Curveplot
LS-DYNA keyword deck by LS-PrePost
Abscissa
Ordinate
XY data
CHOP_EAMZ_mo-1 #pts=3000
* Minval=    -3.2430000305e+01 at time=       217.8040771484
* Maxval=     4.2072198994e-05 at time=         2.5999958515
    0.0000000000e+00    0.0000000000e+00
    9.9982611835e-02    1.2513099992e-14
    1.9998937845e-01    1.6690800066e-06
    2.9997533560e-01    2.1671201011e-06
    3.9998778701e-01    2.7144199066e-06
    4.9998745322e-01    3.2356399515e-06
    5.9997820854e-01    4.1640801101e-06
    6.9998013973e-01    5.9248100115e-06
    7.9997879267e-01    7.2551601988e-06
    8.9998644590e-01    9.2326699814e-06
    9.9999207258e-01    1.1833800272e-05
    1.0999804735e+00    1.5498799257e-05
    1.1999995708e+00    1.8821900085e-05
    1.2999824286e+00    2.2563299353e-05
    1.3999978304e+00    2.5394299882e-05
    1.4999972582e+00    2.7162799597e-05
    1.5999836922e+00    2.7485399187e-05
    1.6999758482e+00    2.6992200219e-05
    1.7999942303e+00    2.6450199584e-05
    1.8999974728e+00    2.6715100830e-05
    1.9999816418e+00    2.9421400541e-05
    2.0999867916e+00    3.1570900319e-05
    2.1999886036e+00    3.4851698729e-05
    2.2999877930e+00    3.8298101572e-05
    2.3999793530e+00    4.1296898416e-05
    2.4999806881e+00    4.2024901632e-05
    2.5999958515e+00    4.2072198994e-05
    2.6999797821e+00    4.1849700210e-05
    2.7999842167e+00    3.9304301026e-05
    2.8999984264e+00    3.4539498301e-05
    2.9999928474e+00    2.8056299925e-05
    3.0999886990e+00    1.9697199605e-05
    3.1999971867e+00    7.3455598795e-06
    3.2999744415e+00   -6.9190900831e-06
    3.3999845982e+00   -2.4285000109e-05
    3.4999895096e+00   -4.3247000576e-05
    3.5999891758e+00   -6.3143903390e-05
    3.6999917030e+00   -8.3223203546e-05
    3.7999820709e+00   -1.0413199925e-04
    3.8999779224e+00   -1.2562600023e-04
    3.9999778271e+00   -1.4672700490e-04
    4.0999832153e+00   -1.7140299315e-04
    4.1999883652e+00   -1.9982899539e-04
    4.2999901772e+00   -2.3112200142e-04
    4.3999953270e+00   -2.6316501317e-04
    4.4999747276e+00   -2.9720799648e-04
    4.5999855995e+00   -3.3255098970e-04
    4.6999740601e+00   -3.6722500226e-04
    4.7999787331e+00   -4.0289500612e-04
    4.8999800682e+00   -4.4047099072e-04
    4.9999928474e+00   -4.8128998606e-04
    5.0999736786e+00   -5.2478001453e-04
    5.1999864578e+00   -5.7407701388e-04
    5.2999849319e+00   -6.2570499722e-04
    5.3999800682e+00   -6.8097602343e-04
    5.4999814034e+00   -7.3912902735e-04
    5.5999865532e+00   -7.9897901742e-04
    5.6999816895e+00   -8.6035201093e-04
    5.7999835014e+00   -9.2410098296e-04
    5.8999786377e+00   -9.9308800418e-04
    5.9999856949e+00   -1.0659600375e-03
    6.0999760628e+00   -1.1422799435e-03
    6.1999859810e+00   -1.2214600574e-03
    6.2999730110e+00   -1.3039599871e-03
    6.3999848366e+00   -1.3874099823e-03
    6.4999895096e+00   -1.4731399715e-03
    6.5999765396e+00   -1.5619100304e-03
    6.6999945641e+00   -1.6536799958e-03
    6.7999725342e+00   -1.7497600056e-03
    6.8999905586e+00   -1.8495300319e-03
    6.9999766350e+00   -1.9540700596e-03
    7.0999908447e+00   -2.0612699445e-03
    7.1999864578e+00   -2.1721599624e-03
    7.2999901772e+00   -2.2846499924e-03
    7.3999891281e+00   -2.4014599621e-03
    7.4999928474e+00   -2.5207600556e-03
    7.5999937057e+00   -2.6458399370e-03
    7.6999754906e+00   -2.7757899370e-03
    7.7999696732e+00   -2.9075799976e-03
    7.8999733925e+00   -3.0447000172e-03
    7.9999823570e+00   -3.1850798987e-03
    8.0999841690e+00   -3.3291699365e-03
    8.1999797821e+00   -3.4741701093e-03
    8.2999763489e+00   -3.6216499284e-03
    8.3999900818e+00   -3.7711299956e-03
    8.4999818802e+00   -3.9239600301e-03
    8.5999898911e+00   -4.0796701796e-03
    8.6999826431e+00   -4.2364499532e-03
    8.7999830246e+00   -4.3966798112e-03
    8.8999948502e+00   -4.5601101592e-03
    8.9999942780e+00   -4.7264802270e-03
    9.0999965668e+00   -4.8953699879e-03
    9.1999816895e+00   -5.0685200840e-03
    9.2999858856e+00   -5.2461097948e-03
    9.3999853134e+00   -5.4271798581e-03
    9.4999780655e+00   -5.6113600731e-03
    9.5999937057e+00   -5.7997098193e-03
    9.6999883652e+00   -5.9917899780e-03
    9.7999906540e+00   -6.1847497709e-03
    9.8999910355e+00   -6.3803400844e-03
    9.9999876022e+00   -6.5783001482e-03
    1.0099982262e+01   -6.7796399817e-03
    1.0199989319e+01   -6.9862101227e-03
    1.0299994469e+01   -7.1970601566e-03
    1.0399988174e+01   -7.4094799347e-03
    1.0499996185e+01   -7.6251500286e-03
    1.0599995613e+01   -7.8432103619e-03
    1.0699992180e+01   -8.0628097057e-03
    1.0800000191e+01   -8.2872295752e-03
    1.0899995804e+01   -8.5142701864e-03
    1.0999985695e+01   -8.7435804307e-03
    1.1100003242e+01   -8.9745400473e-03
    1.1199999809e+01   -9.2110000551e-03
    1.1299988747e+01   -9.4525599852e-03
    1.1399987221e+01   -9.6983201802e-03
    1.1499982834e+01   -9.9495798349e-03
    1.1600003242e+01   -1.0205900297e-02
    1.1700003624e+01   -1.0465700179e-02
    1.1800004959e+01   -1.0727900080e-02
    1.1899992943e+01   -1.0993300006e-02
    1.2000000954e+01   -1.1260099709e-02
    1.2099992752e+01   -1.1529999785e-02
    1.2200003624e+01   -1.1801299639e-02
    1.2300004959e+01   -1.2074500322e-02
    1.2399997711e+01   -1.2351700105e-02
    1.2499990463e+01   -1.2633100152e-02
    1.2599995613e+01   -1.2920199893e-02
    1.2699999809e+01   -1.3212000020e-02
    1.2799995422e+01   -1.3511599973e-02
    1.2899995804e+01   -1.3818699867e-02
    1.2999990463e+01   -1.4133499935e-02
    1.3100006104e+01   -1.4455200173e-02
    1.3200004578e+01   -1.4784299769e-02
    1.3300004005e+01   -1.5121700242e-02
    1.3399991035e+01   -1.5465199947e-02
    1.3499997139e+01   -1.5814600512e-02
    1.3600014687e+01   -1.6168499365e-02
    1.3699992180e+01   -1.6525899991e-02
    1.3799991608e+01   -1.6886100173e-02
    1.3900001526e+01   -1.7251500860e-02
    1.3999991417e+01   -1.7620999366e-02
    1.4100013733e+01   -1.7999200150e-02
    1.4199995995e+01   -1.8383199349e-02
    1.4299995422e+01   -1.8773099408e-02
    1.4400007248e+01   -1.9167300314e-02
    1.4500001907e+01   -1.9567599520e-02
    1.4599994659e+01   -1.9974399358e-02
    1.4700014114e+01   -2.0385900512e-02
    1.4799996376e+01   -2.0803399384e-02
    1.4899997711e+01   -2.1227700636e-02
    1.4999997139e+01   -2.1661100909e-02
    1.5100004196e+01   -2.2101199254e-02
    1.5200007439e+01   -2.2550199181e-02
    1.5300016403e+01   -2.3008400574e-02
    1.5400004387e+01   -2.3475300521e-02
    1.5500002861e+01   -2.3948699236e-02
    1.5600021362e+01   -2.4425800890e-02
    1.5699999809e+01   -2.4910200387e-02
    1.5800008774e+01   -2.5401400402e-02
    1.5900000572e+01   -2.5900399312e-02
    1.6000007629e+01   -2.6405200362e-02
    1.6099998474e+01   -2.6917200536e-02
    1.6200010300e+01   -2.7434399351e-02
    1.6300018311e+01   -2.7958799154e-02
    1.6400005341e+01   -2.8487699106e-02
    1.6500007629e+01   -2.9021399096e-02
    1.6600008011e+01   -2.9563499615e-02
    1.6700021744e+01   -3.0113400891e-02
    1.6800016403e+01   -3.0670600012e-02
    1.6900024414e+01   -3.1236499548e-02
    1.7000009537e+01   -3.1810000539e-02
    1.7100006104e+01   -3.2389499247e-02
    1.7200021744e+01   -3.2974500209e-02
    1.7300024033e+01   -3.3566400409e-02
    1.7400011063e+01   -3.4164398909e-02
    1.7500028610e+01   -3.4766599536e-02
    1.7600025177e+01   -3.5375699401e-02
    1.7700023651e+01   -3.5992901772e-02
    1.7800008774e+01   -3.6618899554e-02
    1.7900011063e+01   -3.7249598652e-02
    1.8000019073e+01   -3.7888601422e-02
    1.8100013733e+01   -3.8532599807e-02
    1.8200010300e+01   -3.9180099964e-02
    1.8300008774e+01   -3.9830099791e-02
    1.8400009155e+01   -4.0483500808e-02
    1.8500017166e+01   -4.1140399873e-02
    1.8600011826e+01   -4.1801299900e-02
    1.8700017929e+01   -4.2466901243e-02
    1.8800025940e+01   -4.3136000633e-02
    1.8900026321e+01   -4.3809298426e-02
    1.9000022888e+01   -4.4485900551e-02
    1.9100019455e+01   -4.5167598873e-02
    1.9200012207e+01   -4.5854199678e-02
    1.9300035477e+01   -4.6546798199e-02
    1.9400016785e+01   -4.7244101763e-02
    1.9500034332e+01   -4.7945398837e-02
    1.9600038528e+01   -4.8651799560e-02
    1.9700035095e+01   -4.9363199621e-02
    1.9800027847e+01   -5.0076801330e-02
    1.9900022507e+01   -5.0793301314e-02
    2.0000036240e+01   -5.1512900740e-02
    2.0100036621e+01   -5.2235499024e-02
    2.0200017929e+01   -5.2960399538e-02
    2.0300018311e+01   -5.3688101470e-02
    2.0400030136e+01   -5.4420400411e-02
    2.0500038147e+01   -5.5156998336e-02
    2.0600032806e+01   -5.5896200240e-02
    2.0700014114e+01   -5.6639701128e-02
    2.0800039291e+01   -5.7388599962e-02
    2.0900030136e+01   -5.8139301836e-02
    2.1000026703e+01   -5.8891400695e-02
    2.1100042343e+01   -5.9644199908e-02
    2.1200042725e+01   -6.0401998460e-02
    2.1300025940e+01   -6.1163000762e-02
    2.1400041580e+01   -6.1930898577e-02
    2.1500026703e+01   -6.2703698874e-02
    2.1600040436e+01   -6.3482701778e-02
    2.1700025558e+01   -6.4266398549e-02
    2.1800033569e+01   -6.5053902566e-02
    2.1900030136e+01   -6.5840996802e-02
    2.2000036240e+01   -6.6626697779e-02
    2.2100032806e+01   -6.7415498197e-02
    2.2200029373e+01   -6.8205103278e-02
    2.2300027847e+01   -6.8997800350e-02
    2.2400041580e+01   -6.9792702794e-02
    2.2500047684e+01   -7.0595003664e-02
    2.2600046158e+01   -7.1402102709e-02
    2.2700035095e+01   -7.2213798761e-02
    2.2800039291e+01   -7.3032103479e-02
    2.2900045395e+01   -7.3856897652e-02
    2.3000034332e+01   -7.4688799679e-02
    2.3100030899e+01   -7.5527101755e-02
    2.3200035095e+01   -7.6371401548e-02
    2.3300041199e+01   -7.7221699059e-02
    2.3400030136e+01   -7.8078798950e-02
    2.3500028610e+01   -7.8939497471e-02
    2.3600032806e+01   -7.9804502428e-02
    2.3700038910e+01   -8.0670401454e-02
    2.3800041199e+01   -8.1536397338e-02
    2.3900028229e+01   -8.2406200469e-02
    2.4000040054e+01   -8.3281099796e-02
    2.4100051880e+01   -8.4161996841e-02
    2.4200040817e+01   -8.5049197078e-02
    2.4300050735e+01   -8.5943102837e-02
    2.4400030136e+01   -8.6840398610e-02
    2.4500043869e+01   -8.7742701173e-02
    2.4600055695e+01   -8.8648997247e-02
    2.4700054169e+01   -8.9560598135e-02
    2.4800035477e+01   -9.0475596488e-02
    2.4900039673e+01   -9.1393902898e-02
    2.5000045776e+01   -9.2318102717e-02
    2.5100034714e+01   -9.3247100711e-02
    2.5200038910e+01   -9.4182498753e-02
    2.5300041199e+01   -9.5125399530e-02
    2.5400056839e+01   -9.6073202789e-02
    2.5500036240e+01   -9.7024202347e-02
    2.5600053787e+01   -9.7981601954e-02
    2.5700044632e+01   -9.8944596946e-02
    2.5800060272e+01   -9.9912196398e-02
    2.5900041580e+01   -1.0088200122e-01
    2.6000059128e+01   -1.0185699910e-01
    2.6100048065e+01   -1.0283499956e-01
    2.6200035095e+01   -1.0381600261e-01
    2.6300058365e+01   -1.0480099916e-01
    2.6400049210e+01   -1.0578899831e-01
    2.6500062943e+01   -1.0678000003e-01
    2.6600057602e+01   -1.0777500272e-01
    2.6700044632e+01   -1.0877600312e-01
    2.6800064087e+01   -1.0978099704e-01
    2.6900058746e+01   -1.1078999937e-01
    2.7000045776e+01   -1.1180099845e-01
    2.7100059509e+01   -1.1281599849e-01
    2.7200052261e+01   -1.1383300275e-01
    2.7300050735e+01   -1.1485499889e-01
    2.7400066376e+01   -1.1587999761e-01
    2.7500049591e+01   -1.1690799892e-01
    2.7600053787e+01   -1.1793900281e-01
    2.7700063705e+01   -1.1897599697e-01
    2.7800067902e+01   -1.2001399696e-01
    2.7900051117e+01   -1.2105599791e-01
    2.8000062943e+01   -1.2210199982e-01
    2.8100057602e+01   -1.2314900011e-01
    2.8200044632e+01   -1.2419199944e-01
    2.8300067902e+01   -1.2523800135e-01
    2.8400062561e+01   -1.2628300488e-01
    2.8500049591e+01   -1.2732799351e-01
    2.8600053787e+01   -1.2837299705e-01
    2.8700052261e+01   -1.2941600382e-01
    2.8800050735e+01   -1.3045999408e-01
    2.8900072098e+01   -1.3150399923e-01
    2.9000055313e+01   -1.3255099952e-01
    2.9100069046e+01   -1.3359799981e-01
    2.9200071335e+01   -1.3464899361e-01
    2.9300071716e+01   -1.3570100069e-01
    2.9400056839e+01   -1.3675500453e-01
    2.9500068665e+01   -1.3780799508e-01
    2.9600059509e+01   -1.3886100054e-01
    2.9700065613e+01   -1.3991199434e-01
    2.9800060272e+01   -1.4096300304e-01
    2.9900056839e+01   -1.4201100171e-01
    3.0000064850e+01   -1.4306099713e-01
    3.0100061417e+01   -1.4411099255e-01
    3.0200057983e+01   -1.4515900612e-01
    3.0300077438e+01   -1.4620700479e-01
    3.0400070190e+01   -1.4725199342e-01
    3.0500070572e+01   -1.4830000699e-01
    3.0600061417e+01   -1.4934700727e-01
    3.0700071335e+01   -1.5039500594e-01
    3.0800058365e+01   -1.5144300461e-01
    3.0900074005e+01   -1.5249200165e-01
    3.1000072479e+01   -1.5353499353e-01
    3.1100072861e+01   -1.5457600355e-01
    3.1200056076e+01   -1.5561799705e-01
    3.1300062180e+01   -1.5665900707e-01
    3.1400077820e+01   -1.5770399570e-01
    3.1500062943e+01   -1.5875099599e-01
    3.1600067139e+01   -1.5980799496e-01
    3.1700059891e+01   -1.6086900234e-01
    3.1800081253e+01   -1.6192999482e-01
    3.1900064468e+01   -1.6298599541e-01
    3.2000068665e+01   -1.6403700411e-01
    3.2100074768e+01   -1.6508600116e-01
    3.2200065613e+01   -1.6612899303e-01
    3.2300067902e+01   -1.6717599332e-01
    3.2400066376e+01   -1.6822500527e-01
    3.2500049591e+01   -1.6927999258e-01
    3.2600063324e+01   -1.7033800483e-01
    3.2700054169e+01   -1.7140400410e-01
    3.2800067902e+01   -1.7247599363e-01
    3.2900054932e+01   -1.7355999351e-01
    3.3000045776e+01   -1.7465099692e-01
    3.3100055695e+01   -1.7575299740e-01
    3.3200042725e+01   -1.7686299980e-01
    3.3300052643e+01   -1.7798300087e-01
    3.3400035858e+01   -1.7911300063e-01
    3.3500045776e+01   -1.8024499714e-01
    3.3600051880e+01   -1.8138100207e-01
    3.3700054169e+01   -1.8251800537e-01
    3.3800052643e+01   -1.8365499377e-01
    3.3900035858e+01   -1.8479199708e-01
    3.4000026703e+01   -1.8593800068e-01
    3.4100025177e+01   -1.8709599972e-01
    3.4200042725e+01   -1.8826599419e-01
    3.4300037384e+01   -1.8944300711e-01
    3.4400035858e+01   -1.9062200189e-01
    3.4500022888e+01   -1.9180800021e-01
    3.4600017548e+01   -1.9299599528e-01
    3.4700019836e+01   -1.9418899715e-01
    3.4800022125e+01   -1.9538399577e-01
    3.4900016785e+01   -1.9658699632e-01
    3.5000026703e+01   -1.9780200720e-01
    3.5100013733e+01   -1.9902999699e-01
    3.5200027466e+01   -2.0026999712e-01
    3.5300014496e+01   -2.0151999593e-01
    3.5400016785e+01   -2.0278100669e-01
    3.5500019073e+01   -2.0405100286e-01
    3.5600025177e+01   -2.0532800257e-01
    3.5700000763e+01   -2.0661300421e-01
    3.5799999237e+01   -2.0790900290e-01
    3.5899997711e+01   -2.0921799541e-01
    3.6000007629e+01   -2.1053500473e-01
    3.6099998474e+01   -2.1185900271e-01
    3.6200000763e+01   -2.1319299936e-01
    3.6299995422e+01   -2.1453200281e-01
    3.6400009155e+01   -2.1587699652e-01
    3.6499992371e+01   -2.1722899377e-01
    3.6600009918e+01   -2.1859100461e-01
    3.6699996948e+01   -2.1996599436e-01
    3.6799999237e+01   -2.2135199606e-01
    3.6900001526e+01   -2.2274799645e-01
    3.7000003815e+01   -2.2415600717e-01
    3.7099990845e+01   -2.2557200491e-01
    3.7199989319e+01   -2.2699299455e-01
    3.7299987793e+01   -2.2842499614e-01
    3.7399986267e+01   -2.2986400127e-01
    3.7499988556e+01   -2.3131400347e-01
    3.7599971771e+01   -2.3277899623e-01
    3.7699981689e+01   -2.3425500095e-01
    3.7799983978e+01   -2.3574300110e-01
    3.7899967194e+01   -2.3724199831e-01
    3.7999973297e+01   -2.3874999583e-01
    3.8099964142e+01   -2.4026200175e-01
    3.8199985504e+01   -2.4177999794e-01
    3.8299980164e+01   -2.4330100417e-01
    3.8399967194e+01   -2.4482899904e-01
    3.8499958038e+01   -2.4636000395e-01
    3.8599956512e+01   -2.4789699912e-01
    3.8699954987e+01   -2.4944099784e-01
    3.8799953461e+01   -2.5098800659e-01
    3.8899951935e+01   -2.5254198909e-01
    3.8999973297e+01   -2.5410398841e-01
    3.9099952698e+01   -2.5567498803e-01
    3.9199954987e+01   -2.5725200772e-01
    3.9299949646e+01   -2.5884300470e-01
    3.9399951935e+01   -2.6044100523e-01
    3.9499950409e+01   -2.6204800606e-01
    3.9599960327e+01   -2.6366001368e-01
    3.9699939728e+01   -2.6527801156e-01
    3.9799938202e+01   -2.6689898968e-01
    3.9899955750e+01   -2.6852700114e-01
    3.9999946594e+01   -2.7016198635e-01
    4.0099952698e+01   -2.7180498838e-01
    4.0199932098e+01   -2.7345800400e-01
    4.0299934387e+01   -2.7511700988e-01
    4.0399932861e+01   -2.7678799629e-01
    4.0499946594e+01   -2.7846300602e-01
    4.0599929810e+01   -2.8014698625e-01
    4.0699935913e+01   -2.8183600307e-01
    4.0799934387e+01   -2.8353598714e-01
    4.0899940491e+01   -2.8523999453e-01
    4.0999923706e+01   -2.8694701195e-01
    4.1099941254e+01   -2.8865998983e-01
    4.1199920654e+01   -2.9038101435e-01
    4.1299938202e+01   -2.9211199284e-01
    4.1399917603e+01   -2.9385200143e-01
    4.1499916077e+01   -2.9561099410e-01
    4.1599914551e+01   -2.9738500714e-01
    4.1699909210e+01   -2.9917499423e-01
    4.1799915314e+01   -3.0097100139e-01
    4.1899906158e+01   -3.0277299881e-01
    4.1999912262e+01   -3.0457600951e-01
    4.2099914551e+01   -3.0638399720e-01
    4.2199920654e+01   -3.0819401145e-01
    4.2299915314e+01   -3.1001201272e-01
    4.2399898529e+01   -3.1184300780e-01
    4.2499912262e+01   -3.1369099021e-01
    4.2599903107e+01   -3.1555300951e-01
    4.2699897766e+01   -3.1742799282e-01
    4.2799896240e+01   -3.1932500005e-01
    4.2899894714e+01   -3.2124599814e-01
    4.2999912262e+01   -3.2318800688e-01
    4.3099899292e+01   -3.2514700294e-01
    4.3199897766e+01   -3.2712998986e-01
    4.3299884796e+01   -3.2913300395e-01
    4.3399890900e+01   -3.3115801215e-01
    4.3499885559e+01   -3.3319699764e-01
    4.3599887848e+01   -3.3524700999e-01
    4.3699882507e+01   -3.3730599284e-01
    4.3799888611e+01   -3.3937600255e-01
    4.3899887085e+01   -3.4145399928e-01
    4.3999885559e+01   -3.4355399013e-01
    4.4099876404e+01   -3.4567698836e-01
    4.4199893951e+01   -3.4782499075e-01
    4.4299877167e+01   -3.4998801351e-01
    4.4399875641e+01   -3.5216599703e-01
    4.4499866486e+01   -3.5436201096e-01
    4.4599872589e+01   -3.5657298565e-01
    4.4699871063e+01   -3.5879701376e-01
    4.4799880981e+01   -3.6103299260e-01
    4.4899871826e+01   -3.6329001188e-01
    4.4999870300e+01   -3.6556699872e-01
    4.5099857330e+01   -3.6787301302e-01
    4.5199871063e+01   -3.7020000815e-01
    4.5299873352e+01   -3.7255400419e-01
    4.5399860382e+01   -3.7492701411e-01
    4.5499858856e+01   -3.7731999159e-01
    4.5599861145e+01   -3.7972900271e-01
    4.5699859619e+01   -3.8215500116e-01
    4.5799858093e+01   -3.8460499048e-01
    4.5899864197e+01   -3.8707599044e-01
    4.5999843597e+01   -3.8956800103e-01
    4.6099842072e+01   -3.9207100868e-01
    4.6199844360e+01   -3.9459699392e-01
    4.6299846649e+01   -3.9713698626e-01
    4.6399852753e+01   -3.9969599247e-01
    4.6499851227e+01   -4.0226799250e-01
    4.6599849701e+01   -4.0486198664e-01
    4.6699836731e+01   -4.0748101473e-01
    4.6799846649e+01   -4.1012299061e-01
    4.6899833679e+01   -4.1278499365e-01
    4.6999843597e+01   -4.1546601057e-01
    4.7099842072e+01   -4.1816800833e-01
    4.7199832916e+01   -4.2088299990e-01
    4.7299846649e+01   -4.2361998558e-01
    4.7399829865e+01   -4.2636701465e-01
    4.7499835968e+01   -4.2914101481e-01
    4.7599842072e+01   -4.3193599582e-01
    4.7699832916e+01   -4.3475300074e-01
    4.7799835205e+01   -4.3759098649e-01
    4.7899829865e+01   -4.4044899940e-01
    4.7999816895e+01   -4.4332799315e-01
    4.8099815369e+01   -4.4621700048e-01
    4.8199813843e+01   -4.4911798835e-01
    4.8299823761e+01   -4.5202800632e-01
    4.8399829865e+01   -4.5495200157e-01
    4.8499805450e+01   -4.5788401365e-01
    4.8599826813e+01   -4.6083199978e-01
    4.8699821472e+01   -4.6378600597e-01
    4.8799823761e+01   -4.6675500274e-01
    4.8899803162e+01   -4.6973401308e-01
    4.8999797821e+01   -4.7273001075e-01
    4.9099803925e+01   -4.7573998570e-01
    4.9199806213e+01   -4.7876399755e-01
    4.9299800873e+01   -4.8181000352e-01
    4.9399810791e+01   -4.8486900330e-01
    4.9499797821e+01   -4.8794299364e-01
    4.9599803925e+01   -4.9102801085e-01
    4.9699794769e+01   -4.9412599206e-01
    4.9799789429e+01   -4.9723100662e-01
    4.9899795532e+01   -5.0034999847e-01
    4.9999786377e+01   -5.0347799063e-01
    5.0099792480e+01   -5.0661998987e-01
    5.0199790955e+01   -5.0977700949e-01
    5.0299793243e+01   -5.1294600964e-01
    5.0399799347e+01   -5.1612997055e-01
    5.0499774933e+01   -5.1932299137e-01
    5.0599796295e+01   -5.2253097296e-01
    5.0699790955e+01   -5.2574700117e-01
    5.0799770355e+01   -5.2897799015e-01
    5.0899768829e+01   -5.3221797943e-01
    5.0999782562e+01   -5.3546297550e-01
    5.1099773407e+01   -5.3871601820e-01
    5.1199771881e+01   -5.4198497534e-01
    5.1299785614e+01   -5.4526698589e-01
    5.1399776459e+01   -5.4856699705e-01
    5.1499778748e+01   -5.5189001560e-01
    5.1599773407e+01   -5.5523699522e-01
    5.1699775696e+01   -5.5860602856e-01
    5.1799766541e+01   -5.6198698282e-01
    5.1899757385e+01   -5.6537497044e-01
    5.1999771118e+01   -5.6876701117e-01
    5.2099765778e+01   -5.7216602564e-01
    5.2199771881e+01   -5.7556998730e-01
    5.2299755096e+01   -5.7898300886e-01
    5.2399757385e+01   -5.8241301775e-01
    5.2499767303e+01   -5.8586502075e-01
    5.2599758148e+01   -5.8933401108e-01
    5.2699756622e+01   -5.9282201529e-01
    5.2799743652e+01   -5.9633702040e-01
    5.2899761200e+01   -5.9988600016e-01
    5.2999759674e+01   -6.0345900059e-01
    5.3099735260e+01   -6.0705602169e-01
    5.3199748993e+01   -6.1067998409e-01
    5.3299732208e+01   -6.1432999372e-01
    5.3399734497e+01   -6.1800700426e-01
    5.3499744415e+01   -6.2170201540e-01
    5.3599742889e+01   -6.2541097403e-01
    5.3699737549e+01   -6.2913000584e-01
    5.3799732208e+01   -6.3286399841e-01
    5.3899723053e+01   -6.3660800457e-01
    5.3999725342e+01   -6.4037501812e-01
    5.4099731445e+01   -6.4416897297e-01
    5.4199722290e+01   -6.4799600840e-01
    5.4299716949e+01   -6.5183997154e-01
    5.4399723053e+01   -6.5570402145e-01
    5.4499732971e+01   -6.5958702564e-01
    5.4599727631e+01   -6.6348600388e-01
    5.4699710846e+01   -6.6740000248e-01
    5.4799709320e+01   -6.7132598162e-01
    5.4899730682e+01   -6.7527699471e-01
    5.4999713898e+01   -6.7925000191e-01
    5.5099712372e+01   -6.8325597048e-01
    5.5199703217e+01   -6.8728500605e-01
    5.5299701691e+01   -6.9134497643e-01
    5.5399700165e+01   -6.9542801380e-01
    5.5499717712e+01   -6.9953399897e-01
    5.5599716187e+01   -7.0365798473e-01
    5.5699703217e+01   -7.0779901743e-01
    5.5799705505e+01   -7.1196597815e-01
    5.5899692535e+01   -7.1615302563e-01
    5.5999702454e+01   -7.2036397457e-01
    5.6099708557e+01   -7.2458398342e-01
    5.6199695587e+01   -7.2882902622e-01
    5.6299709320e+01   -7.3309099674e-01
    5.6399700165e+01   -7.3737198114e-01
    5.6499694824e+01   -7.4166399240e-01
    5.6599700928e+01   -7.4598002434e-01
    5.6699691772e+01   -7.5032198429e-01
    5.6799678802e+01   -7.5468498468e-01
    5.6899688721e+01   -7.5907099247e-01
    5.6999691010e+01   -7.6347100735e-01
    5.7099685669e+01   -7.6789200306e-01
    5.7199695587e+01   -7.7232497931e-01
    5.7299682617e+01   -7.7677601576e-01
    5.7399677277e+01   -7.8123897314e-01
    5.7499664307e+01   -7.8572702408e-01
    5.7599678040e+01   -7.9023498297e-01
    5.7699684143e+01   -7.9476499557e-01
    5.7799682617e+01   -7.9931402206e-01
    5.7899665833e+01   -8.0388402939e-01
    5.7999679565e+01   -8.0847197771e-01
    5.8099678040e+01   -8.1306701899e-01
    5.8199661255e+01   -8.1767100096e-01
    5.8299678802e+01   -8.2227998972e-01
    5.8399669647e+01   -8.2689899206e-01
    5.8499664307e+01   -8.3151799440e-01
    5.8599662781e+01   -8.3614802361e-01
    5.8699665070e+01   -8.4078299999e-01
    5.8799663544e+01   -8.4542798996e-01
    5.8899669647e+01   -8.5008001328e-01
    5.8999664307e+01   -8.5474300385e-01
    5.9099655151e+01   -8.5941499472e-01
    5.9199653625e+01   -8.6410200596e-01
    5.9299659729e+01   -8.6880701780e-01
    5.9399658203e+01   -8.7352001667e-01
    5.9499656677e+01   -8.7824398279e-01
    5.9599655151e+01   -8.8297599554e-01
    5.9699642181e+01   -8.8771301508e-01
    5.9799644470e+01   -8.9245200157e-01
    5.9899650574e+01   -8.9719802141e-01
    5.9999649048e+01   -9.0195000172e-01
    6.0099651337e+01   -9.0671199560e-01
    6.0199634552e+01   -9.1147899628e-01
    6.0299648285e+01   -9.1625601053e-01
    6.0399631500e+01   -9.2103999853e-01
    6.0499641418e+01   -9.2583501339e-01
    6.0599624634e+01   -9.3063098192e-01
    6.0699642181e+01   -9.3543702364e-01
    6.0799617767e+01   -9.4024801254e-01
    6.0899639130e+01   -9.4506299496e-01
    6.0999614716e+01   -9.4987201691e-01
    6.1099628448e+01   -9.5468497276e-01
    6.1199626923e+01   -9.5951098204e-01
    6.1299621582e+01   -9.6434402466e-01
    6.1399627686e+01   -9.6919298172e-01
    6.1499622345e+01   -9.7406202555e-01
    6.1599628448e+01   -9.7895598412e-01
    6.1699611664e+01   -9.8386299610e-01
    6.1799613953e+01   -9.8878198862e-01
    6.1899608612e+01   -9.9369698763e-01
    6.1999622345e+01   -9.9861299992e-01
    6.2099601746e+01   -1.0035300255e+00
    6.2199604034e+01   -1.0084400177e+00
    6.2299602509e+01   -1.0133500099e+00
    6.2399608612e+01   -1.0182800293e+00
    6.2499614716e+01   -1.0232299566e+00
    6.2599590302e+01   -1.0281900167e+00
    6.2699611664e+01   -1.0331699848e+00
    6.2799610138e+01   -1.0381699800e+00
    6.2899585724e+01   -1.0432000160e+00
    6.2999595642e+01   -1.0482499599e+00
    6.3099601746e+01   -1.0533299446e+00
    6.3199592590e+01   -1.0584299564e+00
    6.3299602509e+01   -1.0635600090e+00
    6.3399593353e+01   -1.0687099695e+00
    6.3499584198e+01   -1.0738699436e+00
    6.3599590302e+01   -1.0790400505e+00
    6.3699596405e+01   -1.0842100382e+00
    6.3799591064e+01   -1.0894000530e+00
    6.3899589539e+01   -1.0945899487e+00
    6.3999576569e+01   -1.0997999907e+00
    6.4099578857e+01   -1.1050399542e+00
    6.4199584961e+01   -1.1103099585e+00
    6.4299583435e+01   -1.1155899763e+00
    6.4399581909e+01   -1.1208900213e+00
    6.4499565125e+01   -1.1261999607e+00
    6.4599563599e+01   -1.1315300465e+00
    6.4699577332e+01   -1.1368600130e+00
    6.4799560547e+01   -1.1421999931e+00
    6.4899559021e+01   -1.1475499868e+00
    6.4999572754e+01   -1.1529400349e+00
    6.5099555969e+01   -1.1583499908e+00
    6.5199554443e+01   -1.1637799740e+00
    6.5299568176e+01   -1.1692399979e+00
    6.5399566650e+01   -1.1747200489e+00
    6.5499557495e+01   -1.1802200079e+00
    6.5599548340e+01   -1.1857399940e+00
    6.5699554443e+01   -1.1912599802e+00
    6.5799568176e+01   -1.1968200207e+00
    6.5899551392e+01   -1.2023799419e+00
    6.5999549866e+01   -1.2079700232e+00
    6.6099555969e+01   -1.2135599852e+00
    6.6199554443e+01   -1.2191699743e+00
    6.6299560547e+01   -1.2247999907e+00
    6.6399543762e+01   -1.2304400206e+00
    6.6499534607e+01   -1.2360899448e+00
    6.6599548340e+01   -1.2417600155e+00
    6.6699539185e+01   -1.2474499941e+00
    6.6799545288e+01   -1.2531700134e+00
    6.6899536133e+01   -1.2588900328e+00
    6.6999542236e+01   -1.2646399736e+00
    6.7099533081e+01   -1.2703900337e+00
    6.7199539185e+01   -1.2761600018e+00
    6.7299522400e+01   -1.2819399834e+00
    6.7399536133e+01   -1.2877299786e+00
    6.7499534607e+01   -1.2935500145e+00
    6.7599517822e+01   -1.2993799448e+00
    6.7699531555e+01   -1.3052300215e+00
    6.7799522400e+01   -1.3111000061e+00
    6.7899528503e+01   -1.3169900179e+00
    6.7999519348e+01   -1.3228900433e+00
    6.8099510193e+01   -1.3287999630e+00
    6.8199531555e+01   -1.3347100019e+00
    6.8299514771e+01   -1.3406200409e+00
    6.8399520874e+01   -1.3465299606e+00
    6.8499504089e+01   -1.3524399996e+00
    6.8599517822e+01   -1.3583600521e+00
    6.8699508667e+01   -1.3642699718e+00
    6.8799499512e+01   -1.3701900244e+00
    6.8899520874e+01   -1.3761199713e+00
    6.8999511719e+01   -1.3820600510e+00
    6.9099494934e+01   -1.3880000114e+00
    6.9199493408e+01   -1.3939599991e+00
    6.9299514771e+01   -1.3999300003e+00
    6.9399497986e+01   -1.4059100151e+00
    6.9499496460e+01   -1.4119000435e+00
    6.9599502563e+01   -1.4178899527e+00
    6.9699493408e+01   -1.4238799810e+00
    6.9799507141e+01   -1.4298700094e+00
    6.9899482727e+01   -1.4358600378e+00
    6.9999481201e+01   -1.4418599606e+00
    7.0099487305e+01   -1.4478700161e+00
    7.0199485779e+01   -1.4538700581e+00
    7.0299484253e+01   -1.4598900080e+00
    7.0399482727e+01   -1.4659099579e+00
    7.0499473572e+01   -1.4719300270e+00
    7.0599479675e+01   -1.4779599905e+00
    7.0699470520e+01   -1.4839899540e+00
    7.0799484253e+01   -1.4900300503e+00
    7.0899482727e+01   -1.4960600138e+00
    7.0999458313e+01   -1.5020999908e+00
    7.1099487305e+01   -1.5081299543e+00
    7.1199478149e+01   -1.5141700506e+00
    7.1299468994e+01   -1.5202100277e+00
    7.1399459839e+01   -1.5262700319e+00
    7.1499473572e+01   -1.5323499441e+00
    7.1599464417e+01   -1.5384500027e+00
    7.1699455261e+01   -1.5445699692e+00
    7.1799476624e+01   -1.5506999493e+00
    7.1899467468e+01   -1.5568200350e+00
    7.1999458313e+01   -1.5629400015e+00
    7.2099456787e+01   -1.5690499544e+00
    7.2199462891e+01   -1.5751600266e+00
    7.2299468994e+01   -1.5812699795e+00
    7.2399452209e+01   -1.5873899460e+00
    7.2499450684e+01   -1.5935300589e+00
    7.2599441528e+01   -1.5996899605e+00
    7.2699447632e+01   -1.6058599949e+00
    7.2799453735e+01   -1.6120500565e+00
    7.2899452209e+01   -1.6182800531e+00
    7.2999435425e+01   -1.6245199442e+00
    7.3099441528e+01   -1.6307899952e+00
    7.3199440002e+01   -1.6370799541e+00
    7.3299438477e+01   -1.6433900595e+00
    7.3399436951e+01   -1.6497199535e+00
    7.3499435425e+01   -1.6560599804e+00
    7.3599449158e+01   -1.6624200344e+00
    7.3699432373e+01   -1.6687699556e+00
    7.3799430847e+01   -1.6751400232e+00
    7.3899444580e+01   -1.6815099716e+00
    7.3999435425e+01   -1.6879099607e+00
    7.4099426270e+01   -1.6943299770e+00
    7.4199417114e+01   -1.7007800341e+00
    7.4299415588e+01   -1.7072499990e+00
    7.4399429321e+01   -1.7137399912e+00
    7.4499412537e+01   -1.7202399969e+00
    7.4599418640e+01   -1.7267500162e+00
    7.4699409485e+01   -1.7332700491e+00
    7.4799407959e+01   -1.7397999763e+00
    7.4899406433e+01   -1.7463400364e+00
    7.4999427795e+01   -1.7529100180e+00
    7.5099411011e+01   -1.7595100403e+00
    7.5199401855e+01   -1.7661299706e+00
    7.5299400330e+01   -1.7727799416e+00
    7.5399414062e+01   -1.7794500589e+00
    7.5499404907e+01   -1.7861399651e+00
    7.5599395752e+01   -1.7928400040e+00
    7.5699401855e+01   -1.7995599508e+00
    7.5799415588e+01   -1.8063000441e+00
    7.5899391174e+01   -1.8130600452e+00
    7.5999397278e+01   -1.8198399544e+00
    7.6099411011e+01   -1.8266299963e+00
    7.6199394226e+01   -1.8334300518e+00
    7.6299400330e+01   -1.8402600288e+00
    7.6399398804e+01   -1.8470900059e+00
    7.6499389648e+01   -1.8539400101e+00
    7.6599395752e+01   -1.8608100414e+00
    7.6699394226e+01   -1.8676999807e+00
    7.6799377441e+01   -1.8746199608e+00
    7.6899398804e+01   -1.8815499544e+00
    7.6999397278e+01   -1.8884899616e+00
    7.7099380493e+01   -1.8954499960e+00
    7.7199371338e+01   -1.9024200439e+00
    7.7299369812e+01   -1.9093999863e+00
    7.7399383545e+01   -1.9163999557e+00
    7.7499389648e+01   -1.9234199524e+00
    7.7599365234e+01   -1.9304499626e+00
    7.7699386597e+01   -1.9375100136e+00
    7.7799377441e+01   -1.9445899725e+00
    7.7899368286e+01   -1.9516899586e+00
    7.7999374390e+01   -1.9587999582e+00
    7.8099357605e+01   -1.9659099579e+00
    7.8199371338e+01   -1.9730299711e+00
    7.8299369812e+01   -1.9801499844e+00
    7.8399360657e+01   -1.9872699976e+00
    7.8499351501e+01   -1.9943799973e+00
    7.8599349976e+01   -2.0014998913e+00
    7.8699348450e+01   -2.0086300373e+00
    7.8799362183e+01   -2.0157599449e+00
    7.8899360657e+01   -2.0228900909e+00
    7.8999351501e+01   -2.0300300121e+00
    7.9099342346e+01   -2.0371799469e+00
    7.9199340820e+01   -2.0443499088e+00
    7.9299346924e+01   -2.0515201092e+00
    7.9399337769e+01   -2.0587100983e+00
    7.9499336243e+01   -2.0659000874e+00
    7.9599357605e+01   -2.0730900764e+00
    7.9699348450e+01   -2.0802800655e+00
    7.9799354553e+01   -2.0874700546e+00
    7.9899337769e+01   -2.0946700573e+00
    7.9999336243e+01   -2.1018600464e+00
    8.0099342346e+01   -2.1090700626e+00
    8.0199333191e+01   -2.1162700653e+00
    8.0299346924e+01   -2.1234900951e+00
    8.0399345398e+01   -2.1307001114e+00
    8.0499320984e+01   -2.1379199028e+00
    8.0599327087e+01   -2.1451499462e+00
    8.0699333191e+01   -2.1523699760e+00
    8.0799339294e+01   -2.1596100330e+00
    8.0899322510e+01   -2.1668300629e+00
    8.0999313354e+01   -2.1740601063e+00
    8.1099311829e+01   -2.1812798977e+00
    8.1199317932e+01   -2.1885099411e+00
    8.1299331665e+01   -2.1957399845e+00
    8.1399330139e+01   -2.2030000687e+00
    8.1499305725e+01   -2.2102699280e+00
    8.1599304199e+01   -2.2175700665e+00
    8.1699302673e+01   -2.2248799801e+00
    8.1799316406e+01   -2.2322099209e+00
    8.1899307251e+01   -2.2395401001e+00
    8.1999305725e+01   -2.2468600273e+00
    8.2099304199e+01   -2.2541799545e+00
    8.2199310303e+01   -2.2614998817e+00
    8.2299293518e+01   -2.2688100338e+00
    8.2399299622e+01   -2.2761399746e+00
    8.2499298096e+01   -2.2834799290e+00
    8.2599311829e+01   -2.2908499241e+00
    8.2699287415e+01   -2.2982199192e+00
    8.2799308777e+01   -2.3056299686e+00
    8.2899291992e+01   -2.3130600452e+00
    8.2999282837e+01   -2.3205199242e+00
    8.3099288940e+01   -2.3280000687e+00
    8.3199295044e+01   -2.3355000019e+00
    8.3299293518e+01   -2.3430199623e+00
    8.3399276733e+01   -2.3505699635e+00
    8.3499290466e+01   -2.3581299782e+00
    8.3599281311e+01   -2.3657000065e+00
    8.3699279785e+01   -2.3732800484e+00
    8.3799278259e+01   -2.3808701038e+00
    8.3899284363e+01   -2.3884799480e+00
    8.3999275208e+01   -2.3961000443e+00
    8.4099273682e+01   -2.4037599564e+00
    8.4199272156e+01   -2.4114398956e+00
    8.4299278259e+01   -2.4191501141e+00
    8.4399261475e+01   -2.4268600941e+00
    8.4499267578e+01   -2.4345901012e+00
    8.4599273682e+01   -2.4423298836e+00
    8.4699272156e+01   -2.4500799179e+00
    8.4799278259e+01   -2.4578299522e+00
    8.4899253845e+01   -2.4656000137e+00
    8.4999259949e+01   -2.4733901024e+00
    8.5099266052e+01   -2.4812099934e+00
    8.5199256897e+01   -2.4890599251e+00
    8.5299270630e+01   -2.4969298840e+00
    8.5399269104e+01   -2.5048298836e+00
    8.5499252319e+01   -2.5127398968e+00
    8.5599250793e+01   -2.5206699371e+00
    8.5699249268e+01   -2.5286099911e+00
    8.5799255371e+01   -2.5365800858e+00
    8.5899238586e+01   -2.5445699692e+00
    8.5999244690e+01   -2.5525801182e+00
    8.6099243164e+01   -2.5605900288e+00
    8.6199241638e+01   -2.5686199665e+00
    8.6299240112e+01   -2.5766699314e+00
    8.6399246216e+01   -2.5847299099e+00
    8.6499229431e+01   -2.5927898884e+00
    8.6599235535e+01   -2.6008899212e+00
    8.6699234009e+01   -2.6089999676e+00
    8.6799240112e+01   -2.6171400547e+00
    8.6899230957e+01   -2.6252799034e+00
    8.6999221802e+01   -2.6334400177e+00
    8.7099235535e+01   -2.6416199207e+00
    8.7199218750e+01   -2.6498000622e+00
    8.7299232483e+01   -2.6579999924e+00
    8.7399230957e+01   -2.6662099361e+00
    8.7499229431e+01   -2.6744298935e+00
    8.7599227905e+01   -2.6826899052e+00
    8.7699226379e+01   -2.6909599304e+00
    8.7799209595e+01   -2.6992499828e+00
    8.7899208069e+01   -2.7075600624e+00
    8.7999221802e+01   -2.7158799171e+00
    8.8099220276e+01   -2.7242100239e+00
    8.8199218750e+01   -2.7325301170e+00
    8.8299217224e+01   -2.7408599854e+00
    8.8399215698e+01   -2.7491800785e+00
    8.8499221802e+01   -2.7575099468e+00
    8.8599197388e+01   -2.7658300400e+00
    8.8699211121e+01   -2.7741599083e+00
    8.8799209595e+01   -2.7824900150e+00
    8.8899192810e+01   -2.7908198833e+00
    8.8999191284e+01   -2.7991600037e+00
    8.9099205017e+01   -2.8075098991e+00
    8.9199203491e+01   -2.8158700466e+00
    8.9299186707e+01   -2.8242399693e+00
    8.9399208069e+01   -2.8326199055e+00
    8.9499198914e+01   -2.8410100937e+00
    8.9599189758e+01   -2.8494000435e+00
    8.9699203491e+01   -2.8577799797e+00
    8.9799186707e+01   -2.8661699295e+00
    8.9899177551e+01   -2.8745501041e+00
    8.9999191284e+01   -2.8829400539e+00
    9.0099174500e+01   -2.8913300037e+00
    9.0199195862e+01   -2.8997299671e+00
    9.0299186707e+01   -2.9081299305e+00
    9.0399185181e+01   -2.9165298939e+00
    9.0499168396e+01   -2.9249401093e+00
    9.0599174500e+01   -2.9333400726e+00
    9.0699172974e+01   -2.9417500496e+00
    9.0799163818e+01   -2.9501600266e+00
    9.0899177551e+01   -2.9585599899e+00
    9.0999160767e+01   -2.9669599533e+00
    9.1099166870e+01   -2.9753499031e+00
    9.1199172974e+01   -2.9837400913e+00
    9.1299156189e+01   -2.9921400547e+00
    9.1399169922e+01   -3.0005600452e+00
    9.1499153137e+01   -3.0090000629e+00
    9.1599151611e+01   -3.0174698830e+00
    9.1699157715e+01   -3.0259599686e+00
    9.1799148560e+01   -3.0344600677e+00
    9.1899162292e+01   -3.0429599285e+00
    9.1999153137e+01   -3.0514600277e+00
    9.2099151611e+01   -3.0599501133e+00
    9.2199157715e+01   -3.0684299469e+00
    9.2299156189e+01   -3.0769200325e+00
    9.2399147034e+01   -3.0854101181e+00
    9.2499137878e+01   -3.0939300060e+00
    9.2599151611e+01   -3.1024599075e+00
    9.2699134827e+01   -3.1110100746e+00
    9.2799140930e+01   -3.1195800304e+00
    9.2899131775e+01   -3.1282000542e+00
    9.2999137878e+01   -3.1368401051e+00
    9.3099143982e+01   -3.1454999447e+00
    9.3199134827e+01   -3.1541800499e+00
    9.3299140930e+01   -3.1628999710e+00
    9.3399124146e+01   -3.1716399193e+00
    9.3499130249e+01   -3.1803998947e+00
    9.3599128723e+01   -3.1891698837e+00
    9.3699134827e+01   -3.1979401112e+00
    9.3799118042e+01   -3.2067399025e+00
    9.3899124146e+01   -3.2155399323e+00
    9.3999130249e+01   -3.2243700027e+00
    9.4099128723e+01   -3.2332398891e+00
    9.4199127197e+01   -3.2421400547e+00
    9.4299110413e+01   -3.2510700226e+00
    9.4399108887e+01   -3.2599999905e+00
    9.4499114990e+01   -3.2689599991e+00
    9.4599128723e+01   -3.2779200077e+00
    9.4699104309e+01   -3.2869000435e+00
    9.4799118042e+01   -3.2958800793e+00
    9.4899108887e+01   -3.3048799038e+00
    9.4999114990e+01   -3.3139100075e+00
    9.5099113464e+01   -3.3229799271e+00
    9.5199096680e+01   -3.3320701122e+00
    9.5299102783e+01   -3.3412001133e+00
    9.5399093628e+01   -3.3503599167e+00
    9.5499107361e+01   -3.3595499992e+00
    9.5599098206e+01   -3.3687500954e+00
    9.5699089050e+01   -3.3779799938e+00
    9.5799095154e+01   -3.3872299194e+00
    9.5899093628e+01   -3.3965098858e+00
    9.5999107361e+01   -3.4058198929e+00
    9.6099082947e+01   -3.4151299000e+00
    9.6199089050e+01   -3.4244799614e+00
    9.6299095154e+01   -3.4338400364e+00
    9.6399093628e+01   -3.4432199001e+00
    9.6499084473e+01   -3.4526100159e+00
    9.6599075317e+01   -3.4620399475e+00
    9.6699073792e+01   -3.4714999199e+00
    9.6799072266e+01   -3.4809799194e+00
    9.6899093628e+01   -3.4904799461e+00
    9.6999069214e+01   -3.5000000000e+00
    9.7099067688e+01   -3.5095500946e+00
    9.7199089050e+01   -3.5190999508e+00
    9.7299064636e+01   -3.5286800861e+00
    9.7399063110e+01   -3.5382699966e+00
    9.7499084473e+01   -3.5478999615e+00
    9.7599082947e+01   -3.5575499535e+00
    9.7699073792e+01   -3.5672399998e+00
    9.7799064636e+01   -3.5769500732e+00
    9.7899055481e+01   -3.5866899490e+00
    9.7999061584e+01   -3.5964500904e+00
    9.8099067688e+01   -3.6062099934e+00
    9.8199050903e+01   -3.6159799099e+00
    9.8299064636e+01   -3.6257600784e+00
    9.8399055481e+01   -3.6355400085e+00
    9.8499061584e+01   -3.6453199387e+00
    9.8599044800e+01   -3.6551098824e+00
    9.8699050903e+01   -3.6649100780e+00
    9.8799049377e+01   -3.6747200489e+00
    9.8899047852e+01   -3.6845400333e+00
    9.8999061584e+01   -3.6943600178e+00
    9.9099052429e+01   -3.7042000294e+00
    9.9199043274e+01   -3.7140600681e+00
    9.9299041748e+01   -3.7239398956e+00
    9.9399032593e+01   -3.7338399887e+00
    9.9499038696e+01   -3.7437500954e+00
    9.9599052429e+01   -3.7536699772e+00
    9.9699028015e+01   -3.7635900974e+00
    9.9799049377e+01   -3.7735199928e+00
    9.9899040222e+01   -3.7834401131e+00
    9.9999038696e+01   -3.7933900356e+00
    1.0009902191e+02   -3.8033399582e+00
    1.0019902039e+02   -3.8132998943e+00
    1.0029901886e+02   -3.8232800961e+00
    1.0039901733e+02   -3.8332600594e+00
    1.0049903107e+02   -3.8432500362e+00
    1.0059902191e+02   -3.8532500267e+00
    1.0069904327e+02   -3.8632400036e+00
    1.0079902649e+02   -3.8732500076e+00
    1.0089900970e+02   -3.8832600117e+00
    1.0099902344e+02   -3.8932600021e+00
    1.0109900665e+02   -3.9032599926e+00
    1.0119899750e+02   -3.9132699966e+00
    1.0129901123e+02   -3.9232900143e+00
    1.0139900970e+02   -3.9333500862e+00
    1.0149902344e+02   -3.9434299469e+00
    1.0159902191e+02   -3.9535501003e+00
    1.0169901276e+02   -3.9637100697e+00
    1.0179901123e+02   -3.9738900661e+00
    1.0189900208e+02   -3.9840800762e+00
    1.0199900818e+02   -3.9942600727e+00
    1.0209899902e+02   -4.0044498444e+00
    1.0219901276e+02   -4.0146398544e+00
    1.0229898834e+02   -4.0248298645e+00
    1.0239898682e+02   -4.0350399017e+00
    1.0249900055e+02   -4.0452899933e+00
    1.0259898376e+02   -4.0555601120e+00
    1.0269898224e+02   -4.0658497810e+00
    1.0279898071e+02   -4.0761899948e+00
    1.0289897919e+02   -4.0865697861e+00
    1.0299899292e+02   -4.0970001221e+00
    1.0309899902e+02   -4.1074600220e+00
    1.0319898987e+02   -4.1179499626e+00
    1.0329898071e+02   -4.1284899712e+00
    1.0339897919e+02   -4.1390700340e+00
    1.0349897003e+02   -4.1496801376e+00
    1.0359896851e+02   -4.1603097916e+00
    1.0369898224e+02   -4.1709699631e+00
    1.0379898071e+02   -4.1816501617e+00
    1.0389897919e+02   -4.1923499107e+00
    1.0399896240e+02   -4.2030901909e+00
    1.0409896088e+02   -4.2138800621e+00
    1.0419895935e+02   -4.2247300148e+00
    1.0429895782e+02   -4.2356200218e+00
    1.0439895630e+02   -4.2465300560e+00
    1.0449897003e+02   -4.2574701309e+00
    1.0459896088e+02   -4.2684397697e+00
    1.0469895935e+02   -4.2794198990e+00
    1.0479897308e+02   -4.2904100418e+00
    1.0489894867e+02   -4.3014397621e+00
    1.0499894714e+02   -4.3125200272e+00
    1.0509896088e+02   -4.3236498833e+00
    1.0519895172e+02   -4.3348298073e+00
    1.0529895782e+02   -4.3460597992e+00
    1.0539895630e+02   -4.3573298454e+00
    1.0549893951e+02   -4.3686399460e+00
    1.0559896088e+02   -4.3799901009e+00
    1.0569892883e+02   -4.3913698196e+00
    1.0579895782e+02   -4.4028000832e+00
    1.0589894104e+02   -4.4142799377e+00
    1.0599893188e+02   -4.4257898331e+00
    1.0609895325e+02   -4.4373297691e+00
    1.0619892883e+02   -4.4489102364e+00
    1.0629894257e+02   -4.4605298042e+00
    1.0639894867e+02   -4.4721798897e+00
    1.0649893188e+02   -4.4838500023e+00
    1.0659893799e+02   -4.4955801964e+00
    1.0669892883e+02   -4.5073499680e+00
    1.0679894257e+02   -4.5191698074e+00
    1.0689894104e+02   -4.5310201645e+00
    1.0699893188e+02   -4.5429100990e+00
    1.0709893036e+02   -4.5548400879e+00
    1.0719893646e+02   -4.5668001175e+00
    1.0729891205e+02   -4.5787801743e+00
    1.0739893341e+02   -4.5907998085e+00
    1.0749890900e+02   -4.6028699875e+00
    1.0759890747e+02   -4.6149902344e+00
    1.0769892120e+02   -4.6271600723e+00
    1.0779891205e+02   -4.6393699646e+00
    1.0789891052e+02   -4.6516299248e+00
    1.0799890900e+02   -4.6639199257e+00
    1.0809889984e+02   -4.6762299538e+00
    1.0819889832e+02   -4.6885600090e+00
    1.0829891205e+02   -4.7009100914e+00
    1.0839891052e+02   -4.7132802010e+00
    1.0849890900e+02   -4.7256498337e+00
    1.0859889221e+02   -4.7380499840e+00
    1.0869889832e+02   -4.7504701614e+00
    1.0879888916e+02   -4.7628998756e+00
    1.0889890289e+02   -4.7753601074e+00
    1.0899890900e+02   -4.7878499031e+00
    1.0909889221e+02   -4.8003602028e+00
    1.0919889832e+02   -4.8129100800e+00
    1.0929889679e+02   -4.8254899979e+00
    1.0939888763e+02   -4.8381099701e+00
    1.0949887848e+02   -4.8507399559e+00
    1.0959887695e+02   -4.8634099960e+00
    1.0969888306e+02   -4.8760900497e+00
    1.0979888916e+02   -4.8887801170e+00
    1.0989888763e+02   -4.9014902115e+00
    1.0999887085e+02   -4.9142298698e+00
    1.1009887695e+02   -4.9269800186e+00
    1.1019886780e+02   -4.9397602081e+00
    1.1029888916e+02   -4.9525599480e+00
    1.1039888763e+02   -4.9653801918e+00
    1.1049887848e+02   -4.9782199860e+00
    1.1059886169e+02   -4.9910697937e+00
    1.1069888306e+02   -5.0039401054e+00
    1.1079885864e+02   -5.0168299675e+00
    1.1089885712e+02   -5.0297298431e+00
    1.1099886322e+02   -5.0426301956e+00
    1.1109886169e+02   -5.0555400848e+00
    1.1119886017e+02   -5.0684700012e+00
    1.1129885101e+02   -5.0814299583e+00
    1.1139887238e+02   -5.0944299698e+00
    1.1149886322e+02   -5.1074800491e+00
    1.1159886932e+02   -5.1205902100e+00
    1.1169886017e+02   -5.1337599754e+00
    1.1179885864e+02   -5.1469697952e+00
    1.1189884949e+02   -5.1601901054e+00
    1.1199884796e+02   -5.1734199524e+00
    1.1209884644e+02   -5.1866698265e+00
    1.1219886017e+02   -5.1999402046e+00
    1.1229885101e+02   -5.2132101059e+00
    1.1239884186e+02   -5.2265300751e+00
    1.1249884033e+02   -5.2398800850e+00
    1.1259883881e+02   -5.2532901764e+00
    1.1269883728e+02   -5.2667298317e+00
    1.1279882812e+02   -5.2802300453e+00
    1.1289884186e+02   -5.2938098907e+00
    1.1299881744e+02   -5.3074398041e+00
    1.1309882355e+02   -5.3211197853e+00
    1.1319882965e+02   -5.3348598480e+00
    1.1329884338e+02   -5.3486700058e+00
    1.1339881897e+02   -5.3625202179e+00
    1.1349881744e+02   -5.3764300346e+00
    1.1359882355e+02   -5.3903799057e+00
    1.1369882965e+02   -5.4043698311e+00
    1.1379882812e+02   -5.4183897972e+00
    1.1389881897e+02   -5.4324598312e+00
    1.1399881744e+02   -5.4465799332e+00
    1.1409882355e+02   -5.4607901573e+00
    1.1419880676e+02   -5.4750699997e+00
    1.1429879761e+02   -5.4893999100e+00
    1.1439881897e+02   -5.5037899017e+00
    1.1449880981e+02   -5.5182199478e+00
    1.1459882355e+02   -5.5326900482e+00
    1.1469882202e+02   -5.5471901894e+00
    1.1479882050e+02   -5.5617198944e+00
    1.1489881134e+02   -5.5762901306e+00
    1.1499881744e+02   -5.5909399986e+00
    1.1509880829e+02   -5.6056499481e+00
    1.1519879913e+02   -5.6204299927e+00
    1.1529879761e+02   -5.6352901459e+00
    1.1539881134e+02   -5.6502099037e+00
    1.1549880981e+02   -5.6651902199e+00
    1.1559879303e+02   -5.6802201271e+00
    1.1569879150e+02   -5.6953101158e+00
    1.1579879761e+02   -5.7104601860e+00
    1.1589878845e+02   -5.7256798744e+00
    1.1599880219e+02   -5.7409501076e+00
    1.1609879303e+02   -5.7562699318e+00
    1.1619879913e+02   -5.7716498375e+00
    1.1629878998e+02   -5.7870898247e+00
    1.1639878082e+02   -5.8025698662e+00
    1.1649878693e+02   -5.8180899620e+00
    1.1659877777e+02   -5.8336801529e+00
    1.1669879150e+02   -5.8493399620e+00
    1.1679876709e+02   -5.8650598526e+00
    1.1689878845e+02   -5.8808398247e+00
    1.1699877930e+02   -5.8966698647e+00
    1.1709877777e+02   -5.9125499725e+00
    1.1719877625e+02   -5.9284701347e+00
    1.1729876709e+02   -5.9444298744e+00
    1.1739875793e+02   -5.9604501724e+00
    1.1749877930e+02   -5.9765400887e+00
    1.1759874725e+02   -5.9926800728e+00
    1.1769875336e+02   -6.0088901520e+00
    1.1779876709e+02   -6.0251698494e+00
    1.1789875793e+02   -6.0415000916e+00
    1.1799877167e+02   -6.0578899384e+00
    1.1809874725e+02   -6.0743098259e+00
    1.1819875336e+02   -6.0907502174e+00
    1.1829875183e+02   -6.1072301865e+00
    1.1839875793e+02   -6.1237401962e+00
    1.1849874878e+02   -6.1402602196e+00
    1.1859874725e+02   -6.1568198204e+00
    1.1869873810e+02   -6.1733999252e+00
    1.1879875183e+02   -6.1900200844e+00
    1.1889875031e+02   -6.2066698074e+00
    1.1899874878e+02   -6.2233600616e+00
    1.1909873962e+02   -6.2400798798e+00
    1.1919873047e+02   -6.2568497658e+00
    1.1929873657e+02   -6.2736701965e+00
    1.1939875031e+02   -6.2905402184e+00
    1.1949874115e+02   -6.3074297905e+00
    1.1959871674e+02   -6.3243598938e+00
    1.1969873047e+02   -6.3413200378e+00
    1.1979872131e+02   -6.3582901955e+00
    1.1989871979e+02   -6.3752899170e+00
    1.1999871826e+02   -6.3923201561e+00
    1.2009871674e+02   -6.4093899727e+00
    1.2019873047e+02   -6.4264898300e+00
    1.2029872131e+02   -6.4436202049e+00
    1.2039872742e+02   -6.4607901573e+00
    1.2049871826e+02   -6.4779801369e+00
    1.2059873199e+02   -6.4951901436e+00
    1.2069873047e+02   -6.5124201775e+00
    1.2079871368e+02   -6.5296697617e+00
    1.2089869690e+02   -6.5469498634e+00
    1.2099871826e+02   -6.5642299652e+00
    1.2109870911e+02   -6.5815300941e+00
    1.2119869995e+02   -6.5988497734e+00
    1.2129869843e+02   -6.6162099838e+00
    1.2139869690e+02   -6.6336197853e+00
    1.2149871063e+02   -6.6510901451e+00
    1.2159870148e+02   -6.6686401367e+00
    1.2169869995e+02   -6.6862502098e+00
    1.2179869080e+02   -6.7039098740e+00
    1.2189869690e+02   -6.7216000557e+00
    1.2199870300e+02   -6.7393198013e+00
    1.2209870148e+02   -6.7570500374e+00
    1.2219869232e+02   -6.7747998238e+00
    1.2229869843e+02   -6.7925801277e+00
    1.2239868927e+02   -6.8104000092e+00
    1.2249868774e+02   -6.8282699585e+00
    1.2259868622e+02   -6.8461899757e+00
    1.2269866943e+02   -6.8641600609e+00
    1.2279868317e+02   -6.8822097778e+00
    1.2289866638e+02   -6.9003300667e+00
    1.2299867249e+02   -6.9185199738e+00
    1.2309868622e+02   -6.9367799759e+00
    1.2319867706e+02   -6.9551000595e+00
    1.2329866791e+02   -6.9734902382e+00
    1.2339868164e+02   -6.9919500351e+00
    1.2349867249e+02   -7.0104699135e+00
    1.2359867859e+02   -7.0290298462e+00
    1.2369866943e+02   -7.0476398468e+00
    1.2379866791e+02   -7.0662999153e+00
    1.2389865875e+02   -7.0850100517e+00
    1.2399864960e+02   -7.1037898064e+00
    1.2409866333e+02   -7.1226701736e+00
    1.2419866180e+02   -7.1416301727e+00
    1.2429865265e+02   -7.1606597900e+00
    1.2439865875e+02   -7.1797399521e+00
    1.2449864960e+02   -7.1988801956e+00
    1.2459867096e+02   -7.2180700302e+00
    1.2469864655e+02   -7.2372798920e+00
    1.2479863739e+02   -7.2565197945e+00
    1.2489865875e+02   -7.2758297920e+00
    1.2499864960e+02   -7.2951998711e+00
    1.2509866333e+02   -7.3146600723e+00
    1.2519863892e+02   -7.3341798782e+00
    1.2529866028e+02   -7.3537898064e+00
    1.2539865112e+02   -7.3734798431e+00
    1.2549864960e+02   -7.3932299614e+00
    1.2559863281e+02   -7.4130301476e+00
    1.2569863129e+02   -7.4329099655e+00
    1.2579865265e+02   -7.4528598785e+00
    1.2589862823e+02   -7.4728698730e+00
    1.2599862671e+02   -7.4929499626e+00
    1.2609864044e+02   -7.5130801201e+00
    1.2619863892e+02   -7.5332698822e+00
    1.2629862976e+02   -7.5535202026e+00
    1.2639862823e+02   -7.5738301277e+00
    1.2649864197e+02   -7.5941801071e+00
    1.2659861755e+02   -7.6145901680e+00
    1.2669863129e+02   -7.6350898743e+00
    1.2679862976e+02   -7.6556501389e+00
    1.2689861298e+02   -7.6762599945e+00
    1.2699861908e+02   -7.6969399452e+00
    1.2709860992e+02   -7.7176699638e+00
    1.2719860840e+02   -7.7384400368e+00
    1.2729860687e+02   -7.7592601776e+00
    1.2739861298e+02   -7.7801299095e+00
    1.2749859619e+02   -7.8010601997e+00
    1.2759860992e+02   -7.8220701218e+00
    1.2769862366e+02   -7.8431501389e+00
    1.2779859924e+02   -7.8642902374e+00
    1.2789859772e+02   -7.8854999542e+00
    1.2799861145e+02   -7.9067602158e+00
    1.2809858704e+02   -7.9280600548e+00
    1.2819859314e+02   -7.9493799210e+00
    1.2829861450e+02   -7.9707398415e+00
    1.2839860535e+02   -7.9921197891e+00
    1.2849859619e+02   -8.0135097504e+00
    1.2859861755e+02   -8.0349397659e+00
    1.2869862366e+02   -8.0564002991e+00
    1.2879862976e+02   -8.0778903961e+00
    1.2889865112e+02   -8.0994195938e+00
    1.2899864197e+02   -8.1209697723e+00
    1.2909866333e+02   -8.1425600052e+00
    1.2919865417e+02   -8.1641998291e+00
    1.2929866028e+02   -8.1858901978e+00
    1.2939868164e+02   -8.2076196671e+00
    1.2949867249e+02   -8.2293701172e+00
    1.2959867859e+02   -8.2511701584e+00
    1.2969868469e+02   -8.2729902267e+00
    1.2979870605e+02   -8.2948303223e+00
    1.2989871216e+02   -8.3166799545e+00
    1.2999870300e+02   -8.3385696411e+00
    1.3009870911e+02   -8.3604898453e+00
    1.3019873047e+02   -8.3824501038e+00
    1.3029872131e+02   -8.4044303894e+00
    1.3039872742e+02   -8.4264497757e+00
    1.3049873352e+02   -8.4484901428e+00
    1.3059875488e+02   -8.4705495834e+00
    1.3069874573e+02   -8.4926300049e+00
    1.3079876709e+02   -8.5147304535e+00
    1.3089877319e+02   -8.5368499756e+00
    1.3099877930e+02   -8.5589599609e+00
    1.3109878540e+02   -8.5810804367e+00
    1.3119879150e+02   -8.6032304764e+00
    1.3129878235e+02   -8.6254100800e+00
    1.3139880371e+02   -8.6476497650e+00
    1.3149879456e+02   -8.6699495316e+00
    1.3159880066e+02   -8.6923303604e+00
    1.3169882202e+02   -8.7147903442e+00
    1.3179881287e+02   -8.7372903824e+00
    1.3189883423e+02   -8.7598199844e+00
    1.3199884033e+02   -8.7823801041e+00
    1.3209883118e+02   -8.8049602509e+00
    1.3219883728e+02   -8.8275604248e+00
    1.3229884338e+02   -8.8501901627e+00
    1.3239886475e+02   -8.8728504181e+00
    1.3249885559e+02   -8.8955602646e+00
    1.3259886169e+02   -8.9183301926e+00
    1.3269888306e+02   -8.9411497116e+00
    1.3279887390e+02   -8.9640302658e+00
    1.3289888000e+02   -8.9870004654e+00
    1.3299888611e+02   -9.0100402832e+00
    1.3309889221e+02   -9.0331497192e+00
    1.3319889832e+02   -9.0563201904e+00
    1.3329890442e+02   -9.0795602798e+00
    1.3339892578e+02   -9.1028699875e+00
    1.3349891663e+02   -9.1262397766e+00
    1.3359893799e+02   -9.1496496201e+00
    1.3369894409e+02   -9.1731100082e+00
    1.3379893494e+02   -9.1966295242e+00
    1.3389895630e+02   -9.2201900482e+00
    1.3399896240e+02   -9.2438402176e+00
    1.3409895325e+02   -9.2675800323e+00
    1.3419895935e+02   -9.2914104462e+00
    1.3429896545e+02   -9.3153200150e+00
    1.3439898682e+02   -9.3392801285e+00
    1.3449896240e+02   -9.3632802963e+00
    1.3459899902e+02   -9.3873395920e+00
    1.3469898987e+02   -9.4114198685e+00
    1.3479899597e+02   -9.4355297089e+00
    1.3489901733e+02   -9.4596996307e+00
    1.3499902344e+02   -9.4839401245e+00
    1.3509901428e+02   -9.5082397461e+00
    1.3519903564e+02   -9.5326299667e+00
    1.3529902649e+02   -9.5571002960e+00
    1.3539903259e+02   -9.5816402435e+00
    1.3549905396e+02   -9.6062498093e+00
    1.3559906006e+02   -9.6309204102e+00
    1.3569905090e+02   -9.6556501389e+00
    1.3579905701e+02   -9.6804704666e+00
    1.3589906311e+02   -9.7053604126e+00
    1.3599906921e+02   -9.7303199768e+00
    1.3609909058e+02   -9.7553501129e+00
    1.3619909668e+02   -9.7804698944e+00
    1.3629908752e+02   -9.8056802750e+00
    1.3639909363e+02   -9.8310003281e+00
    1.3649911499e+02   -9.8564195633e+00
    1.3659910583e+02   -9.8819704056e+00
    1.3669911194e+02   -9.9076700211e+00
    1.3679913330e+02   -9.9335098267e+00
    1.3689912415e+02   -9.9594802856e+00
    1.3699914551e+02   -9.9855699539e+00
    1.3709913635e+02   -1.0011799812e+01
    1.3719914246e+02   -1.0038100243e+01
    1.3729914856e+02   -1.0064499855e+01
    1.3739915466e+02   -1.0090999603e+01
    1.3749917603e+02   -1.0117699623e+01
    1.3759916687e+02   -1.0144399643e+01
    1.3769917297e+02   -1.0171199799e+01
    1.3779919434e+02   -1.0198100090e+01
    1.3789918518e+02   -1.0225000381e+01
    1.3799920654e+02   -1.0251999855e+01
    1.3809919739e+02   -1.0279100418e+01
    1.3819920349e+02   -1.0306200027e+01
    1.3829922485e+02   -1.0333399773e+01
    1.3839921570e+02   -1.0360600471e+01
    1.3849922180e+02   -1.0387800217e+01
    1.3859921265e+02   -1.0415100098e+01
    1.3869923401e+02   -1.0442500114e+01
    1.3879924011e+02   -1.0470000267e+01
    1.3889926147e+02   -1.0497599602e+01
    1.3899926758e+02   -1.0525300026e+01
    1.3909925842e+02   -1.0553199768e+01
    1.3919926453e+02   -1.0581299782e+01
    1.3929928589e+02   -1.0609499931e+01
    1.3939927673e+02   -1.0637900352e+01
    1.3949928284e+02   -1.0666399956e+01
    1.3959930420e+02   -1.0695099831e+01
    1.3969929504e+02   -1.0723999977e+01
    1.3979930115e+02   -1.0753000259e+01
    1.3989930725e+02   -1.0782099724e+01
    1.3999931335e+02   -1.0811300278e+01
    1.4009930420e+02   -1.0840700150e+01
    1.4019932556e+02   -1.0870100021e+01
    1.4029933167e+02   -1.0899700165e+01
    1.4039933777e+02   -1.0929300308e+01
    1.4049935913e+02   -1.0959099770e+01
    1.4059934998e+02   -1.0988800049e+01
    1.4069935608e+02   -1.1018699646e+01
    1.4079937744e+02   -1.1048600197e+01
    1.4089935303e+02   -1.1078599930e+01
    1.4099937439e+02   -1.1108699799e+01
    1.4109938049e+02   -1.1138799667e+01
    1.4119938660e+02   -1.1168999672e+01
    1.4129939270e+02   -1.1199299812e+01
    1.4139939880e+02   -1.1229700089e+01
    1.4149940491e+02   -1.1260299683e+01
    1.4159942627e+02   -1.1291000366e+01
    1.4169941711e+02   -1.1321999550e+01
    1.4179942322e+02   -1.1353099823e+01
    1.4189944458e+02   -1.1384400368e+01
    1.4199943542e+02   -1.1415800095e+01
    1.4209945679e+02   -1.1447299957e+01
    1.4219946289e+02   -1.1479000092e+01
    1.4229945374e+02   -1.1510899544e+01
    1.4239947510e+02   -1.1542900085e+01
    1.4249948120e+02   -1.1575099945e+01
    1.4259947205e+02   -1.1607500076e+01
    1.4269949341e+02   -1.1640000343e+01
    1.4279949951e+02   -1.1672599792e+01
    1.4289949036e+02   -1.1705499649e+01
    1.4299951172e+02   -1.1738499641e+01
    1.4309950256e+02   -1.1771599770e+01
    1.4319952393e+02   -1.1804800034e+01
    1.4329953003e+02   -1.1838100433e+01
    1.4339953613e+02   -1.1871500015e+01
    1.4349954224e+02   -1.1904999733e+01
    1.4359953308e+02   -1.1938599586e+01
    1.4369955444e+02   -1.1972200394e+01
    1.4379956055e+02   -1.2005800247e+01
    1.4389956665e+02   -1.2039600372e+01
    1.4399957275e+02   -1.2073399544e+01
    1.4409956360e+02   -1.2107399940e+01
    1.4419955444e+02   -1.2141500473e+01
    1.4429959106e+02   -1.2175700188e+01
    1.4439958191e+02   -1.2210100174e+01
    1.4449960327e+02   -1.2244600296e+01
    1.4459959412e+02   -1.2279199600e+01
    1.4469960022e+02   -1.2313899994e+01
    1.4479960632e+02   -1.2348799706e+01
    1.4489961243e+02   -1.2383899689e+01
    1.4499963379e+02   -1.2419099808e+01
    1.4509962463e+02   -1.2454500198e+01
    1.4519964600e+02   -1.2490099907e+01
    1.4529963684e+02   -1.2525899887e+01
    1.4539964294e+02   -1.2561800003e+01
    1.4549966431e+02   -1.2597900391e+01
    1.4559965515e+02   -1.2634099960e+01
    1.4569967651e+02   -1.2670399666e+01
    1.4579966736e+02   -1.2706800461e+01
    1.4589967346e+02   -1.2743300438e+01
    1.4599967957e+02   -1.2779800415e+01
    1.4609970093e+02   -1.2816399574e+01
    1.4619970703e+02   -1.2853099823e+01
    1.4629969788e+02   -1.2889699936e+01
    1.4639970398e+02   -1.2926400185e+01
    1.4649971008e+02   -1.2963199615e+01
    1.4659971619e+02   -1.3000000000e+01
    1.4669973755e+02   -1.3036899567e+01
    1.4679974365e+02   -1.3073900223e+01
    1.4689973450e+02   -1.3110899925e+01
    1.4699974060e+02   -1.3147999763e+01
    1.4709974670e+02   -1.3185199738e+01
    1.4719976807e+02   -1.3222599983e+01
    1.4729977417e+02   -1.3260000229e+01
    1.4739976501e+02   -1.3297499657e+01
    1.4749977112e+02   -1.3335200310e+01
    1.4759979248e+02   -1.3373000145e+01
    1.4769978333e+02   -1.3410900116e+01
    1.4779977417e+02   -1.3448900223e+01
    1.4789981079e+02   -1.3487099648e+01
    1.4799980164e+02   -1.3525400162e+01
    1.4809982300e+02   -1.3563699722e+01
    1.4819981384e+02   -1.3602100372e+01
    1.4829983521e+02   -1.3640600204e+01
    1.4839982605e+02   -1.3679100037e+01
    1.4849984741e+02   -1.3717499733e+01
    1.4859983826e+02   -1.3755999565e+01
    1.4869984436e+02   -1.3794500351e+01
    1.4879983521e+02   -1.3833000183e+01
    1.4889987183e+02   -1.3871600151e+01
    1.4899986267e+02   -1.3910099983e+01
    1.4909986877e+02   -1.3948599815e+01
    1.4919987488e+02   -1.3987099648e+01
    1.4929989624e+02   -1.4025699615e+01
    1.4939990234e+02   -1.4064299583e+01
    1.4949989319e+02   -1.4102899551e+01
    1.4959989929e+02   -1.4141500473e+01
    1.4969990540e+02   -1.4180199623e+01
    1.4979991150e+02   -1.4218899727e+01
    1.4989991760e+02   -1.4257599831e+01
    1.4999992371e+02   -1.4296299934e+01
    1.5009992981e+02   -1.4335200310e+01
    1.5019995117e+02   -1.4374099731e+01
    1.5029995728e+02   -1.4413000107e+01
    1.5039996338e+02   -1.4451999664e+01
    1.5049995422e+02   -1.4491000175e+01
    1.5059994507e+02   -1.4530099869e+01
    1.5069996643e+02   -1.4569199562e+01
    1.5079997253e+02   -1.4608400345e+01
    1.5089999390e+02   -1.4647500038e+01
    1.5099998474e+02   -1.4686499596e+01
    1.5110000610e+02   -1.4725600243e+01
    1.5119999695e+02   -1.4764499664e+01
    1.5130001831e+02   -1.4803500175e+01
    1.5140000916e+02   -1.4842399597e+01
    1.5150003052e+02   -1.4881299973e+01
    1.5160003662e+02   -1.4920299530e+01
    1.5170002747e+02   -1.4959199905e+01
    1.5180003357e+02   -1.4998100281e+01
    1.5190003967e+02   -1.5036899567e+01
    1.5200004578e+02   -1.5075799942e+01
    1.5210006714e+02   -1.5114500046e+01
    1.5220005798e+02   -1.5153300285e+01
    1.5230007935e+02   -1.5191900253e+01
    1.5240008545e+02   -1.5230600357e+01
    1.5250009155e+02   -1.5269300461e+01
    1.5260008240e+02   -1.5307999611e+01
    1.5270008850e+02   -1.5346599579e+01
    1.5280010986e+02   -1.5385299683e+01
    1.5290011597e+02   -1.5424099922e+01
    1.5300012207e+02   -1.5462800026e+01
    1.5310011292e+02   -1.5501600266e+01
    1.5320013428e+02   -1.5540300369e+01
    1.5330014038e+02   -1.5579000473e+01
    1.5340014648e+02   -1.5617699623e+01
    1.5350013733e+02   -1.5656299591e+01
    1.5360014343e+02   -1.5694899559e+01
    1.5370014954e+02   -1.5733300209e+01
    1.5380015564e+02   -1.5771699905e+01
    1.5390017700e+02   -1.5810000420e+01
    1.5400018311e+02   -1.5848199844e+01
    1.5410017395e+02   -1.5886400223e+01
    1.5420019531e+02   -1.5924500465e+01
    1.5430018616e+02   -1.5962499619e+01
    1.5440019226e+02   -1.6000499725e+01
    1.5450018311e+02   -1.6038400650e+01
    1.5460020447e+02   -1.6076200485e+01
    1.5470021057e+02   -1.6113899231e+01
    1.5480023193e+02   -1.6151500702e+01
    1.5490022278e+02   -1.6189100266e+01
    1.5500021362e+02   -1.6226600647e+01
    1.5510025024e+02   -1.6263999939e+01
    1.5520025635e+02   -1.6301500320e+01
    1.5530024719e+02   -1.6338899612e+01
    1.5540025330e+02   -1.6376300812e+01
    1.5550027466e+02   -1.6413600922e+01
    1.5560026550e+02   -1.6451000214e+01
    1.5570027161e+02   -1.6488199234e+01
    1.5580026245e+02   -1.6525400162e+01
    1.5590028381e+02   -1.6562599182e+01
    1.5600030518e+02   -1.6599700928e+01
    1.5610031128e+02   -1.6636600494e+01
    1.5620031738e+02   -1.6673500061e+01
    1.5630030823e+02   -1.6710199356e+01
    1.5640031433e+02   -1.6746900558e+01
    1.5650033569e+02   -1.6783399582e+01
    1.5660032654e+02   -1.6819700241e+01
    1.5670034790e+02   -1.6856100082e+01
    1.5680035400e+02   -1.6892200470e+01
    1.5690036011e+02   -1.6928300858e+01
    1.5700035095e+02   -1.6964300156e+01
    1.5710037231e+02   -1.7000099182e+01
    1.5720036316e+02   -1.7035800934e+01
    1.5730036926e+02   -1.7071399689e+01
    1.5740037537e+02   -1.7106800079e+01
    1.5750038147e+02   -1.7142200470e+01
    1.5760040283e+02   -1.7177400589e+01
    1.5770039368e+02   -1.7212600708e+01
    1.5780041504e+02   -1.7247699738e+01
    1.5790040588e+02   -1.7282699585e+01
    1.5800042725e+02   -1.7317699432e+01
    1.5810040283e+02   -1.7352500916e+01
    1.5820043945e+02   -1.7387300491e+01
    1.5830044556e+02   -1.7421899796e+01
    1.5840043640e+02   -1.7456499100e+01
    1.5850044250e+02   -1.7490900040e+01
    1.5860043335e+02   -1.7525299072e+01
    1.5870045471e+02   -1.7559499741e+01
    1.5880046082e+02   -1.7593599319e+01
    1.5890046692e+02   -1.7627599716e+01
    1.5900047302e+02   -1.7661500931e+01
    1.5910047913e+02   -1.7695199966e+01
    1.5920048523e+02   -1.7728900909e+01
    1.5930050659e+02   -1.7762399673e+01
    1.5940049744e+02   -1.7795799255e+01
    1.5950050354e+02   -1.7829099655e+01
    1.5960052490e+02   -1.7862199783e+01
    1.5970051575e+02   -1.7895200729e+01
    1.5980052185e+02   -1.7927999496e+01
    1.5990054321e+02   -1.7960599899e+01
    1.6000054932e+02   -1.7993099213e+01
    1.6010055542e+02   -1.8025499344e+01
    1.6020054626e+02   -1.8057800293e+01
    1.6030056763e+02   -1.8089899063e+01
    1.6040055847e+02   -1.8121900558e+01
    1.6050056458e+02   -1.8153799057e+01
    1.6060058594e+02   -1.8185600281e+01
    1.6070057678e+02   -1.8217300415e+01
    1.6080058289e+02   -1.8248899460e+01
    1.6090060425e+02   -1.8280399323e+01
    1.6100059509e+02   -1.8311800003e+01
    1.6110060120e+02   -1.8343000412e+01
    1.6120062256e+02   -1.8374099731e+01
    1.6130061340e+02   -1.8405000687e+01
    1.6140063477e+02   -1.8435899734e+01
    1.6150064087e+02   -1.8466699600e+01
    1.6160064697e+02   -1.8497499466e+01
    1.6170062256e+02   -1.8528200150e+01
    1.6180064392e+02   -1.8558799744e+01
    1.6190065002e+02   -1.8589300156e+01
    1.6200065613e+02   -1.8619600296e+01
    1.6210067749e+02   -1.8649900436e+01
    1.6220068359e+02   -1.8680000305e+01
    1.6230067444e+02   -1.8709999084e+01
    1.6240068054e+02   -1.8739799500e+01
    1.6250068665e+02   -1.8769599915e+01
    1.6260069275e+02   -1.8799299240e+01
    1.6270071411e+02   -1.8828800201e+01
    1.6280070496e+02   -1.8858299255e+01
    1.6290071106e+02   -1.8887699127e+01
    1.6300071716e+02   -1.8916999817e+01
    1.6310073853e+02   -1.8946300507e+01
    1.6320074463e+02   -1.8975500107e+01
    1.6330073547e+02   -1.9004600525e+01
    1.6340074158e+02   -1.9033599854e+01
    1.6350074768e+02   -1.9062599182e+01
    1.6360075378e+02   -1.9091400146e+01
    1.6370075989e+02   -1.9120199203e+01
    1.6380076599e+02   -1.9148899078e+01
    1.6390078735e+02   -1.9177499771e+01
    1.6400079346e+02   -1.9206100464e+01
    1.6410078430e+02   -1.9234600067e+01
    1.6420079041e+02   -1.9263099670e+01
    1.6430079651e+02   -1.9291599274e+01
    1.6440080261e+02   -1.9319999695e+01
    1.6450080872e+02   -1.9348300934e+01
    1.6460081482e+02   -1.9376600266e+01
    1.6470082092e+02   -1.9404800415e+01
    1.6480082703e+02   -1.9433000565e+01
    1.6490083313e+02   -1.9461099625e+01
    1.6500085449e+02   -1.9489099503e+01
    1.6510086060e+02   -1.9517099380e+01
    1.6520086670e+02   -1.9545000076e+01
    1.6530085754e+02   -1.9572900772e+01
    1.6540086365e+02   -1.9600799561e+01
    1.6550088501e+02   -1.9628700256e+01
    1.6560089111e+02   -1.9656499863e+01
    1.6570089722e+02   -1.9684299469e+01
    1.6580090332e+02   -1.9712099075e+01
    1.6590089417e+02   -1.9739799500e+01
    1.6600090027e+02   -1.9767599106e+01
    1.6610090637e+02   -1.9795200348e+01
    1.6620091248e+02   -1.9822900772e+01
    1.6630093384e+02   -1.9850500107e+01
    1.6640092468e+02   -1.9878099442e+01
    1.6650094604e+02   -1.9905700684e+01
    1.6660093689e+02   -1.9933300018e+01
    1.6670094299e+02   -1.9960899353e+01
    1.6680096436e+02   -1.9988500595e+01
    1.6690095520e+02   -2.0016099930e+01
    1.6700097656e+02   -2.0043699265e+01
    1.6710098267e+02   -2.0071300507e+01
    1.6720097351e+02   -2.0098899841e+01
    1.6730097961e+02   -2.0126399994e+01
    1.6740098572e+02   -2.0153999329e+01
    1.6750099182e+02   -2.0181600571e+01
    1.6760099792e+02   -2.0209199905e+01
    1.6770100403e+02   -2.0236799240e+01
    1.6780101013e+02   -2.0264400482e+01
    1.6790103149e+02   -2.0291999817e+01
    1.6800102234e+02   -2.0319700241e+01
    1.6810102844e+02   -2.0347400665e+01
    1.6820103455e+02   -2.0375099182e+01
    1.6830105591e+02   -2.0402799606e+01
    1.6840104675e+02   -2.0430500031e+01
    1.6850105286e+02   -2.0458200455e+01
    1.6860107422e+02   -2.0485900879e+01
    1.6870106506e+02   -2.0513700485e+01
    1.6880107117e+02   -2.0541400909e+01
    1.6890109253e+02   -2.0569200516e+01
    1.6900109863e+02   -2.0597000122e+01
    1.6910107422e+02   -2.0624900818e+01
    1.6920109558e+02   -2.0652799606e+01
    1.6930110168e+02   -2.0680799484e+01
    1.6940110779e+02   -2.0708799362e+01
    1.6950111389e+02   -2.0736900330e+01
    1.6960113525e+02   -2.0765100479e+01
    1.6970114136e+02   -2.0793199539e+01
    1.6980114746e+02   -2.0821500778e+01
    1.6990113831e+02   -2.0849700928e+01
    1.7000114441e+02   -2.0878000259e+01
    1.7010115051e+02   -2.0906400681e+01
    1.7020117188e+02   -2.0934799194e+01
    1.7030117798e+02   -2.0963300705e+01
    1.7040116882e+02   -2.0991800308e+01
    1.7050117493e+02   -2.1020399094e+01
    1.7060119629e+02   -2.1049100876e+01
    1.7070118713e+02   -2.1077800751e+01
    1.7080119324e+02   -2.1106599808e+01
    1.7090119934e+02   -2.1135400772e+01
    1.7100120544e+02   -2.1164199829e+01
    1.7110121155e+02   -2.1193099976e+01
    1.7120121765e+02   -2.1222000122e+01
    1.7130122375e+02   -2.1250999451e+01
    1.7140124512e+02   -2.1280099869e+01
    1.7150123596e+02   -2.1309299469e+01
    1.7160125732e+02   -2.1338600159e+01
    1.7170126343e+02   -2.1368099213e+01
    1.7180125427e+02   -2.1397699356e+01
    1.7190124512e+02   -2.1427400589e+01
    1.7200128174e+02   -2.1457300186e+01
    1.7210128784e+02   -2.1487199783e+01
    1.7220129395e+02   -2.1517299652e+01
    1.7230128479e+02   -2.1547399521e+01
    1.7240129089e+02   -2.1577699661e+01
    1.7250129700e+02   -2.1608100891e+01
    1.7260130310e+02   -2.1638599396e+01
    1.7270130920e+02   -2.1669200897e+01
    1.7280133057e+02   -2.1700000763e+01
    1.7290133667e+02   -2.1730899811e+01
    1.7300134277e+02   -2.1761899948e+01
    1.7310134888e+02   -2.1792999268e+01
    1.7320135498e+02   -2.1824300766e+01
    1.7330134583e+02   -2.1855600357e+01
    1.7340136719e+02   -2.1887100220e+01
    1.7350134277e+02   -2.1918600082e+01
    1.7360136414e+02   -2.1950300217e+01
    1.7370137024e+02   -2.1982000351e+01
    1.7380137634e+02   -2.2013900757e+01
    1.7390138245e+02   -2.2045799255e+01
    1.7400140381e+02   -2.2077899933e+01
    1.7410140991e+02   -2.2110200882e+01
    1.7420140076e+02   -2.2142599106e+01
    1.7430140686e+02   -2.2175100327e+01
    1.7440141296e+02   -2.2207799911e+01
    1.7450140381e+02   -2.2240699768e+01
    1.7460144043e+02   -2.2273700714e+01
    1.7470144653e+02   -2.2306800842e+01
    1.7480143738e+02   -2.2340000153e+01
    1.7490144348e+02   -2.2373399734e+01
    1.7500146484e+02   -2.2406900406e+01
    1.7510145569e+02   -2.2440599442e+01
    1.7520146179e+02   -2.2474500656e+01
    1.7530148315e+02   -2.2508499146e+01
    1.7540148926e+02   -2.2542699814e+01
    1.7550148010e+02   -2.2577100754e+01
    1.7560148621e+02   -2.2611600876e+01
    1.7570150757e+02   -2.2646200180e+01
    1.7580148315e+02   -2.2681100845e+01
    1.7590151978e+02   -2.2715999603e+01
    1.7600151062e+02   -2.2750999451e+01
    1.7610153198e+02   -2.2786199570e+01
    1.7620152283e+02   -2.2821500778e+01
    1.7630151367e+02   -2.2856899261e+01
    1.7640153503e+02   -2.2892499924e+01
    1.7650154114e+02   -2.2928100586e+01
    1.7660154724e+02   -2.2963899612e+01
    1.7670155334e+02   -2.2999799728e+01
    1.7680157471e+02   -2.3035900116e+01
    1.7690158081e+02   -2.3072099686e+01
    1.7700157166e+02   -2.3108400345e+01
    1.7710159302e+02   -2.3144800186e+01
    1.7720158386e+02   -2.3181400299e+01
    1.7730160522e+02   -2.3218099594e+01
    1.7740161133e+02   -2.3254899979e+01
    1.7750160217e+02   -2.3291799545e+01
    1.7760162354e+02   -2.3328899384e+01
    1.7770162964e+02   -2.3366199493e+01
    1.7780160522e+02   -2.3403600693e+01
    1.7790162659e+02   -2.3441200256e+01
    1.7800163269e+02   -2.3478900909e+01
    1.7810163879e+02   -2.3516799927e+01
    1.7820164490e+02   -2.3554800034e+01
    1.7830163574e+02   -2.3592899323e+01
    1.7840167236e+02   -2.3631099701e+01
    1.7850167847e+02   -2.3669500351e+01
    1.7860168457e+02   -2.3707899094e+01
    1.7870167542e+02   -2.3746400833e+01
    1.7880169678e+02   -2.3785100937e+01
    1.7890170288e+02   -2.3823799133e+01
    1.7900169373e+02   -2.3862600327e+01
    1.7910169983e+02   -2.3901599884e+01
    1.7920170593e+02   -2.3940599442e+01
    1.7930172729e+02   -2.3979700089e+01
    1.7940173340e+02   -2.4018899918e+01
    1.7950172424e+02   -2.4058300018e+01
    1.7960173035e+02   -2.4097600937e+01
    1.7970173645e+02   -2.4137100220e+01
    1.7980174255e+02   -2.4176700592e+01
    1.7990176392e+02   -2.4216299057e+01
    1.8000177002e+02   -2.4256099701e+01
    1.8010176086e+02   -2.4295900345e+01
    1.8020178223e+02   -2.4335800171e+01
    1.8030177307e+02   -2.4375799179e+01
    1.8040179443e+02   -2.4415899277e+01
    1.8050178528e+02   -2.4456100464e+01
    1.8060180664e+02   -2.4496400833e+01
    1.8070181274e+02   -2.4536699295e+01
    1.8080181885e+02   -2.4577199936e+01
    1.8090180969e+02   -2.4617700577e+01
    1.8100181580e+02   -2.4658199310e+01
    1.8110182190e+02   -2.4698799133e+01
    1.8120184326e+02   -2.4739400864e+01
    1.8130183411e+02   -2.4780099869e+01
    1.8140184021e+02   -2.4820800781e+01
    1.8150184631e+02   -2.4861600876e+01
    1.8160185242e+02   -2.4902500153e+01
    1.8170187378e+02   -2.4943500519e+01
    1.8180187988e+02   -2.4984500885e+01
    1.8190188599e+02   -2.5025600433e+01
    1.8200187683e+02   -2.5066799164e+01
    1.8210188293e+02   -2.5107900620e+01
    1.8220190430e+02   -2.5149200439e+01
    1.8230191040e+02   -2.5190399170e+01
    1.8240191650e+02   -2.5231700897e+01
    1.8250190735e+02   -2.5273000717e+01
    1.8260191345e+02   -2.5314300537e+01
    1.8270193481e+02   -2.5355699539e+01
    1.8280192566e+02   -2.5397100449e+01
    1.8290191650e+02   -2.5438600540e+01
    1.8300193787e+02   -2.5480100632e+01
    1.8310194397e+02   -2.5521699905e+01
    1.8320196533e+02   -2.5563299179e+01
    1.8330195618e+02   -2.5604900360e+01
    1.8340197754e+02   -2.5646600723e+01
    1.8350198364e+02   -2.5688199997e+01
    1.8360197449e+02   -2.5729799271e+01
    1.8370199585e+02   -2.5771400452e+01
    1.8380198669e+02   -2.5812999725e+01
    1.8390199280e+02   -2.5854600906e+01
    1.8400199890e+02   -2.5896200180e+01
    1.8410200500e+02   -2.5937900543e+01
    1.8420201111e+02   -2.5979499817e+01
    1.8430201721e+02   -2.6021099091e+01
    1.8440202332e+02   -2.6062700272e+01
    1.8450202942e+02   -2.6104400635e+01
    1.8460203552e+02   -2.6145999908e+01
    1.8470204163e+02   -2.6187500000e+01
    1.8480206299e+02   -2.6229000092e+01
    1.8490205383e+02   -2.6270500183e+01
    1.8500205994e+02   -2.6311899185e+01
    1.8510206604e+02   -2.6353300095e+01
    1.8520207214e+02   -2.6394699097e+01
    1.8530209351e+02   -2.6436100006e+01
    1.8540208435e+02   -2.6477500916e+01
    1.8550209045e+02   -2.6518800735e+01
    1.8560209656e+02   -2.6560100555e+01
    1.8570210266e+02   -2.6601400375e+01
    1.8580210876e+02   -2.6642599106e+01
    1.8590213013e+02   -2.6683799744e+01
    1.8600213623e+02   -2.6724800110e+01
    1.8610212708e+02   -2.6765899658e+01
    1.8620213318e+02   -2.6806800842e+01
    1.8630213928e+02   -2.6847700119e+01
    1.8640216064e+02   -2.6888500214e+01
    1.8650216675e+02   -2.6929199219e+01
    1.8660217285e+02   -2.6969800949e+01
    1.8670216370e+02   -2.7010299683e+01
    1.8680218506e+02   -2.7050800323e+01
    1.8690219116e+02   -2.7091100693e+01
    1.8700219727e+02   -2.7131399155e+01
    1.8710220337e+02   -2.7171600342e+01
    1.8720219421e+02   -2.7211599350e+01
    1.8730220032e+02   -2.7251499176e+01
    1.8740222168e+02   -2.7291299820e+01
    1.8750221252e+02   -2.7330999374e+01
    1.8760223389e+02   -2.7370599747e+01
    1.8770223999e+02   -2.7409999847e+01
    1.8780223083e+02   -2.7449399948e+01
    1.8790223694e+02   -2.7488599777e+01
    1.8800224304e+02   -2.7527799606e+01
    1.8810226440e+02   -2.7566799164e+01
    1.8820227051e+02   -2.7605699539e+01
    1.8830227661e+02   -2.7644399643e+01
    1.8840228271e+02   -2.7683099747e+01
    1.8850227356e+02   -2.7721500397e+01
    1.8860229492e+02   -2.7759899139e+01
    1.8870230103e+02   -2.7798099518e+01
    1.8880230713e+02   -2.7836099625e+01
    1.8890228271e+02   -2.7874000549e+01
    1.8900230408e+02   -2.7911699295e+01
    1.8910231018e+02   -2.7949300766e+01
    1.8920231628e+02   -2.7986700058e+01
    1.8930233765e+02   -2.8024000168e+01
    1.8940231323e+02   -2.8061100006e+01
    1.8950234985e+02   -2.8097999573e+01
    1.8960235596e+02   -2.8134799957e+01
    1.8970236206e+02   -2.8171400070e+01
    1.8980235291e+02   -2.8207799911e+01
    1.8990235901e+02   -2.8243999481e+01
    1.9000238037e+02   -2.8280000687e+01
    1.9010238647e+02   -2.8315799713e+01
    1.9020239258e+02   -2.8351499557e+01
    1.9030238342e+02   -2.8386899948e+01
    1.9040240479e+02   -2.8422199249e+01
    1.9050239563e+02   -2.8457399368e+01
    1.9060241699e+02   -2.8492300034e+01
    1.9070242310e+02   -2.8527000427e+01
    1.9080241394e+02   -2.8561599731e+01
    1.9090243530e+02   -2.8596000671e+01
    1.9100244141e+02   -2.8630100250e+01
    1.9110244751e+02   -2.8663999557e+01
    1.9120242310e+02   -2.8697700500e+01
    1.9130244446e+02   -2.8731199265e+01
    1.9140245056e+02   -2.8764499664e+01
    1.9150245667e+02   -2.8797599792e+01
    1.9160246277e+02   -2.8830600739e+01
    1.9170248413e+02   -2.8863399506e+01
    1.9180247498e+02   -2.8895999908e+01
    1.9190249634e+02   -2.8928499222e+01
    1.9200250244e+02   -2.8960699081e+01
    1.9210249329e+02   -2.8992700577e+01
    1.9220251465e+02   -2.9024499893e+01
    1.9230250549e+02   -2.9056100845e+01
    1.9240252686e+02   -2.9087600708e+01
    1.9250253296e+02   -2.9118799210e+01
    1.9260253906e+02   -2.9149799347e+01
    1.9270252991e+02   -2.9180500031e+01
    1.9280255127e+02   -2.9211099625e+01
    1.9290255737e+02   -2.9241500854e+01
    1.9300256348e+02   -2.9271699905e+01
    1.9310255432e+02   -2.9301700592e+01
    1.9320257568e+02   -2.9331499100e+01
    1.9330258179e+02   -2.9361000061e+01
    1.9340257263e+02   -2.9390300751e+01
    1.9350256348e+02   -2.9419399261e+01
    1.9360260010e+02   -2.9448299408e+01
    1.9370260620e+02   -2.9476900101e+01
    1.9380259705e+02   -2.9505300522e+01
    1.9390260315e+02   -2.9533500671e+01
    1.9400260925e+02   -2.9561500549e+01
    1.9410261536e+02   -2.9589300156e+01
    1.9420263672e+02   -2.9616899490e+01
    1.9430262756e+02   -2.9644399643e+01
    1.9440263367e+02   -2.9671600342e+01
[...]
    2.5130612183e+02   -2.4861400604e+01
    2.5140611267e+02   -2.4827800751e+01
    2.5150611877e+02   -2.4794099808e+01
    2.5160612488e+02   -2.4760299683e+01
    2.5170613098e+02   -2.4726400375e+01
    2.5180613708e+02   -2.4692399979e+01
    2.5190614319e+02   -2.4658199310e+01
    2.5200613403e+02   -2.4623899460e+01
    2.5210615540e+02   -2.4589500427e+01
    2.5220617676e+02   -2.4554899216e+01
    2.5230616760e+02   -2.4520200729e+01
    2.5240617371e+02   -2.4485399246e+01
    2.5250619507e+02   -2.4450500488e+01
    2.5260618591e+02   -2.4415399551e+01
    2.5270619202e+02   -2.4380199432e+01
    2.5280618286e+02   -2.4344900131e+01
    2.5290620422e+02   -2.4309499741e+01
    2.5300622559e+02   -2.4273899078e+01
    2.5310623169e+02   -2.4238199234e+01
    2.5320623779e+02   -2.4202299118e+01
    2.5330622864e+02   -2.4166400909e+01
    2.5340625000e+02   -2.4130199432e+01
    2.5350625610e+02   -2.4093999863e+01
    2.5360624695e+02   -2.4057500839e+01
    2.5370625305e+02   -2.4020900726e+01
    2.5380625916e+02   -2.3984199524e+01
    2.5390626526e+02   -2.3947299957e+01
    2.5400625610e+02   -2.3910200119e+01
    2.5410627747e+02   -2.3872999191e+01
    2.5420629883e+02   -2.3835699081e+01
    2.5430628967e+02   -2.3798099518e+01
    2.5440629578e+02   -2.3760499954e+01
    2.5450630188e+02   -2.3722700119e+01
    2.5460632324e+02   -2.3684700012e+01
    2.5470632935e+02   -2.3646499634e+01
    2.5480632019e+02   -2.3608299255e+01
    2.5490632629e+02   -2.3569799423e+01
    2.5500633240e+02   -2.3531200409e+01
    2.5510632324e+02   -2.3492399216e+01
    2.5520634460e+02   -2.3453500748e+01
    2.5530635071e+02   -2.3414400101e+01
    2.5540635681e+02   -2.3375200272e+01
    2.5550637817e+02   -2.3335800171e+01
    2.5560636902e+02   -2.3296199799e+01
    2.5570637512e+02   -2.3256399155e+01
    2.5580639648e+02   -2.3216499329e+01
    2.5590640259e+02   -2.3176500320e+01
    2.5600637817e+02   -2.3136199951e+01
    2.5610638428e+02   -2.3095800400e+01
    2.5620639038e+02   -2.3055299759e+01
    2.5630639648e+02   -2.3014600754e+01
    2.5640640259e+02   -2.2973699570e+01
    2.5650640869e+02   -2.2932600021e+01
    2.5660641479e+02   -2.2891399384e+01
    2.5670642090e+02   -2.2850099564e+01
    2.5680642700e+02   -2.2808599472e+01
    2.5690643311e+02   -2.2766899109e+01
    2.5700643921e+02   -2.2725099564e+01
    2.5710644531e+02   -2.2683000565e+01
    2.5720645142e+02   -2.2640899658e+01
    2.5730645752e+02   -2.2598600388e+01
    2.5740646362e+02   -2.2556100845e+01
    2.5750646973e+02   -2.2513500214e+01
    2.5760647583e+02   -2.2470699310e+01
    2.5770648193e+02   -2.2427799225e+01
    2.5780648804e+02   -2.2384700775e+01
    2.5790649414e+02   -2.2341400146e+01
    2.5800650024e+02   -2.2298000336e+01
    2.5810650635e+02   -2.2254400253e+01
    2.5820651245e+02   -2.2210699081e+01
    2.5830651855e+02   -2.2166799545e+01
    2.5840652466e+02   -2.2122800827e+01
    2.5850653076e+02   -2.2078599930e+01
    2.5860653687e+02   -2.2034299850e+01
    2.5870654297e+02   -2.1989799500e+01
    2.5880654907e+02   -2.1945100784e+01
    2.5890655518e+02   -2.1900299072e+01
    2.5900656128e+02   -2.1855400085e+01
    2.5910656738e+02   -2.1810300827e+01
    2.5920657349e+02   -2.1764999390e+01
    2.5930657959e+02   -2.1719600677e+01
    2.5940658569e+02   -2.1674100876e+01
    2.5950659180e+02   -2.1628400803e+01
    2.5960659790e+02   -2.1582500458e+01
    2.5970660400e+02   -2.1536500931e+01
    2.5980661011e+02   -2.1490400314e+01
    2.5990661621e+02   -2.1444099426e+01
    2.6000662231e+02   -2.1397699356e+01
    2.6010662842e+02   -2.1351100922e+01
    2.6020663452e+02   -2.1304300308e+01
    2.6030664062e+02   -2.1257400513e+01
    2.6040664673e+02   -2.1210399628e+01
    2.6050665283e+02   -2.1163200378e+01
    2.6060665894e+02   -2.1115900040e+01
    2.6070666504e+02   -2.1068500519e+01
    2.6080667114e+02   -2.1020900726e+01
    2.6090667725e+02   -2.0973100662e+01
    2.6100668335e+02   -2.0925199509e+01
    2.6110668945e+02   -2.0877099991e+01
    2.6120669556e+02   -2.0828899384e+01
    2.6130670166e+02   -2.0780599594e+01
    2.6140667725e+02   -2.0732099533e+01
    2.6150671387e+02   -2.0683399200e+01
    2.6160671997e+02   -2.0634599686e+01
    2.6170672607e+02   -2.0585699081e+01
    2.6180673218e+02   -2.0536699295e+01
    2.6190670776e+02   -2.0487499237e+01
    2.6200674438e+02   -2.0438199997e+01
    2.6210675049e+02   -2.0388700485e+01
    2.6220675659e+02   -2.0339099884e+01
    2.6230676270e+02   -2.0289300919e+01
    2.6240676880e+02   -2.0239400864e+01
    2.6250677490e+02   -2.0189399719e+01
    2.6260678101e+02   -2.0139200211e+01
    2.6270678711e+02   -2.0088899612e+01
    2.6280679321e+02   -2.0038499832e+01
    2.6290679932e+02   -1.9988000870e+01
    2.6300677490e+02   -1.9937400818e+01
    2.6310681152e+02   -1.9886600494e+01
    2.6320678711e+02   -1.9835800171e+01
    2.6330682373e+02   -1.9784799576e+01
    2.6340679932e+02   -1.9733800888e+01
    2.6350680542e+02   -1.9682699203e+01
    2.6360684204e+02   -1.9631399155e+01
    2.6370684814e+02   -1.9580099106e+01
    2.6380685425e+02   -1.9528699875e+01
    2.6390686035e+02   -1.9477199554e+01
    2.6400683594e+02   -1.9425600052e+01
    2.6410687256e+02   -1.9374000549e+01
    2.6420687866e+02   -1.9322200775e+01
    2.6430688477e+02   -1.9270399094e+01
    2.6440689087e+02   -1.9218399048e+01
    2.6450689697e+02   -1.9166400909e+01
    2.6460690308e+02   -1.9114400864e+01
    2.6470690918e+02   -1.9062200546e+01
    2.6480691528e+02   -1.9010000229e+01
    2.6490692139e+02   -1.8957799911e+01
    2.6500692749e+02   -1.8905399323e+01
    2.6510693359e+02   -1.8853000641e+01
    2.6520693970e+02   -1.8800500870e+01
    2.6530694580e+02   -1.8747999191e+01
    2.6540695190e+02   -1.8695299149e+01
    2.6550695801e+02   -1.8642700195e+01
    2.6560696411e+02   -1.8589899063e+01
    2.6570697021e+02   -1.8537099838e+01
    2.6580697632e+02   -1.8484300613e+01
    2.6590698242e+02   -1.8431400299e+01
    2.6600698853e+02   -1.8378499985e+01
    2.6610699463e+02   -1.8325399399e+01
    2.6620700073e+02   -1.8272399902e+01
    2.6630697632e+02   -1.8219200134e+01
    2.6640701294e+02   -1.8166000366e+01
    2.6650701904e+02   -1.8112800598e+01
    2.6660702515e+02   -1.8059499741e+01
    2.6670703125e+02   -1.8006200790e+01
    2.6680703735e+02   -1.7952899933e+01
    2.6690704346e+02   -1.7899499893e+01
    2.6700704956e+02   -1.7846099854e+01
    2.6710705566e+02   -1.7792600632e+01
    2.6720706177e+02   -1.7739099503e+01
    2.6730706787e+02   -1.7685600281e+01
    2.6740707397e+02   -1.7632099152e+01
    2.6750708008e+02   -1.7578500748e+01
    2.6760708618e+02   -1.7524900436e+01
    2.6770709229e+02   -1.7471300125e+01
    2.6780709839e+02   -1.7417699814e+01
    2.6790710449e+02   -1.7364099503e+01
    2.6800711060e+02   -1.7310499191e+01
    2.6810711670e+02   -1.7256900787e+01
    2.6820712280e+02   -1.7203300476e+01
    2.6830712891e+02   -1.7149700165e+01
    2.6840713501e+02   -1.7096000671e+01
    2.6850714111e+02   -1.7042400360e+01
    2.6860714722e+02   -1.6988800049e+01
    2.6870715332e+02   -1.6935199738e+01
    2.6880715942e+02   -1.6881599426e+01
    2.6890716553e+02   -1.6827999115e+01
    2.6900717163e+02   -1.6774299622e+01
    2.6910717773e+02   -1.6720699310e+01
    2.6920718384e+02   -1.6667100906e+01
    2.6930718994e+02   -1.6613500595e+01
    2.6940719604e+02   -1.6559799194e+01
    2.6950720215e+02   -1.6506200790e+01
    2.6960720825e+02   -1.6452600479e+01
    2.6970721436e+02   -1.6399099350e+01
    2.6980722046e+02   -1.6345500946e+01
    2.6990722656e+02   -1.6291999817e+01
    2.7000723267e+02   -1.6238399506e+01
    2.7010723877e+02   -1.6184999466e+01
    2.7020724487e+02   -1.6131500244e+01
    2.7030725098e+02   -1.6078100204e+01
    2.7040722656e+02   -1.6024799347e+01
    2.7050726318e+02   -1.5971400261e+01
    2.7060726929e+02   -1.5918100357e+01
    2.7070727539e+02   -1.5864899635e+01
    2.7080728149e+02   -1.5811699867e+01
    2.7090728760e+02   -1.5758500099e+01
    2.7100729370e+02   -1.5705400467e+01
    2.7110729980e+02   -1.5652299881e+01
    2.7120730591e+02   -1.5599200249e+01
    2.7130731201e+02   -1.5546199799e+01
    2.7140731812e+02   -1.5493200302e+01
    2.7150732422e+02   -1.5440199852e+01
    2.7160733032e+02   -1.5387299538e+01
    2.7170733643e+02   -1.5334400177e+01
    2.7180734253e+02   -1.5281599998e+01
    2.7190734863e+02   -1.5228799820e+01
    2.7200735474e+02   -1.5176099777e+01
    2.7210736084e+02   -1.5123399734e+01
    2.7220736694e+02   -1.5070699692e+01
    2.7230737305e+02   -1.5018199921e+01
    2.7240737915e+02   -1.4965600014e+01
    2.7250738525e+02   -1.4913100243e+01
    2.7260739136e+02   -1.4860699654e+01
    2.7270739746e+02   -1.4808400154e+01
    2.7280740356e+02   -1.4756099701e+01
    2.7290740967e+02   -1.4703800201e+01
    2.7300741577e+02   -1.4651599884e+01
    2.7310742188e+02   -1.4599499702e+01
    2.7320742798e+02   -1.4547400475e+01
    2.7330743408e+02   -1.4495400429e+01
    2.7340744019e+02   -1.4443400383e+01
    2.7350741577e+02   -1.4391599655e+01
    2.7360745239e+02   -1.4339699745e+01
    2.7370745850e+02   -1.4287899971e+01
    2.7380746460e+02   -1.4236200333e+01
    2.7390747070e+02   -1.4184599876e+01
    2.7400747681e+02   -1.4133000374e+01
    2.7410748291e+02   -1.4081500053e+01
    2.7420748901e+02   -1.4029999733e+01
    2.7430749512e+02   -1.3978599548e+01
    2.7440750122e+02   -1.3927300453e+01
    2.7450750732e+02   -1.3876000404e+01
    2.7460751343e+02   -1.3824899673e+01
    2.7470751953e+02   -1.3773799896e+01
    2.7480752563e+02   -1.3722700119e+01
    2.7490753174e+02   -1.3671699524e+01
    2.7500753784e+02   -1.3620800018e+01
    2.7510754395e+02   -1.3569899559e+01
    2.7520755005e+02   -1.3519100189e+01
    2.7530755615e+02   -1.3468400002e+01
    2.7540756226e+02   -1.3417699814e+01
    2.7550756836e+02   -1.3366999626e+01
    2.7560757446e+02   -1.3316399574e+01
    2.7570758057e+02   -1.3265899658e+01
    2.7580758667e+02   -1.3215399742e+01
    2.7590759277e+02   -1.3164999962e+01
    2.7600759888e+02   -1.3114700317e+01
    2.7610760498e+02   -1.3064399719e+01
    2.7620761108e+02   -1.3014100075e+01
    2.7630761719e+02   -1.2963999748e+01
    2.7640762329e+02   -1.2913900375e+01
    2.7650762939e+02   -1.2863900185e+01
    2.7660763550e+02   -1.2814000130e+01
    2.7670764160e+02   -1.2764200211e+01
    2.7680764771e+02   -1.2714500427e+01
    2.7690765381e+02   -1.2664799690e+01
    2.7700765991e+02   -1.2615200043e+01
    2.7710766602e+02   -1.2565699577e+01
    2.7720767212e+02   -1.2516200066e+01
    2.7730767822e+02   -1.2466799736e+01
    2.7740768433e+02   -1.2417400360e+01
    2.7750769043e+02   -1.2368100166e+01
    2.7760769653e+02   -1.2318900108e+01
    2.7770770264e+02   -1.2269700050e+01
    2.7780770874e+02   -1.2220600128e+01
    2.7790771484e+02   -1.2171500206e+01
    2.7800772095e+02   -1.2122500420e+01
    2.7810772705e+02   -1.2073499680e+01
    2.7820773315e+02   -1.2024600029e+01
    2.7830770874e+02   -1.1975700378e+01
    2.7840774536e+02   -1.1926899910e+01
    2.7850775146e+02   -1.1878199577e+01
    2.7860775757e+02   -1.1829600334e+01
    2.7870776367e+02   -1.1781000137e+01
    2.7880776978e+02   -1.1732500076e+01
    2.7890774536e+02   -1.1684000015e+01
    2.7900778198e+02   -1.1635700226e+01
    2.7910775757e+02   -1.1587400436e+01
    2.7920779419e+02   -1.1539199829e+01
    2.7930780029e+02   -1.1491000175e+01
    2.7940780640e+02   -1.1442899704e+01
    2.7950781250e+02   -1.1394800186e+01
    2.7960781860e+02   -1.1346799850e+01
    2.7970782471e+02   -1.1298899651e+01
    2.7980783081e+02   -1.1251000404e+01
    2.7990783691e+02   -1.1203200340e+01
    2.8000784302e+02   -1.1155500412e+01
    2.8010784912e+02   -1.1107799530e+01
    2.8020785522e+02   -1.1060099602e+01
    2.8030786133e+02   -1.1012599945e+01
    2.8040786743e+02   -1.0965000153e+01
    2.8050787354e+02   -1.0917599678e+01
    2.8060787964e+02   -1.0870200157e+01
    2.8070788574e+02   -1.0822799683e+01
    2.8080789185e+02   -1.0775600433e+01
    2.8090789795e+02   -1.0728400230e+01
    2.8100790405e+02   -1.0681200027e+01
    2.8110791016e+02   -1.0634099960e+01
    2.8120791626e+02   -1.0587100029e+01
    2.8130792236e+02   -1.0540100098e+01
    2.8140792847e+02   -1.0493200302e+01
    2.8150793457e+02   -1.0446299553e+01
    2.8160794067e+02   -1.0399399757e+01
    2.8170794678e+02   -1.0352700233e+01
    2.8180795288e+02   -1.0305899620e+01
    2.8190795898e+02   -1.0259200096e+01
    2.8200796509e+02   -1.0212499619e+01
    2.8210797119e+02   -1.0166000366e+01
    2.8220794678e+02   -1.0119400024e+01
    2.8230798340e+02   -1.0072999954e+01
    2.8240798950e+02   -1.0026499748e+01
    2.8250799561e+02   -9.9801101685e+00
    2.8260800171e+02   -9.9337396622e+00
    2.8270800781e+02   -9.8874301910e+00
    2.8280801392e+02   -9.8411397934e+00
    2.8290802002e+02   -9.7948999405e+00
    2.8300802612e+02   -9.7486896515e+00
    2.8310803223e+02   -9.7025203705e+00
    2.8320803833e+02   -9.6563901901e+00
    2.8330804443e+02   -9.6103000641e+00
    2.8340805054e+02   -9.5642404556e+00
    2.8350805664e+02   -9.5182304382e+00
    2.8360806274e+02   -9.4722604752e+00
    2.8370806885e+02   -9.4263200760e+00
    2.8380807495e+02   -9.3804302216e+00
    2.8390808105e+02   -9.3345699310e+00
    2.8400808716e+02   -9.2887496948e+00
    2.8410809326e+02   -9.2429599762e+00
    2.8420809937e+02   -9.1972198486e+00
    2.8430810547e+02   -9.1515102386e+00
    2.8440811157e+02   -9.1058502197e+00
    2.8450811768e+02   -9.0602302551e+00
    2.8460812378e+02   -9.0146503448e+00
    2.8470812988e+02   -8.9691095352e+00
    2.8480813599e+02   -8.9236097336e+00
    2.8490814209e+02   -8.8781604767e+00
    2.8500814819e+02   -8.8327398300e+00
    2.8510815430e+02   -8.7873601913e+00
    2.8520816040e+02   -8.7420101166e+00
    2.8530816650e+02   -8.6967096329e+00
    2.8540817261e+02   -8.6514596939e+00
    2.8550817871e+02   -8.6062498093e+00
    2.8560818481e+02   -8.5610799789e+00
    2.8570819092e+02   -8.5159597397e+00
    2.8580819702e+02   -8.4708995819e+00
    2.8590820312e+02   -8.4258899689e+00
    2.8600820923e+02   -8.3809204102e+00
    2.8610821533e+02   -8.3360099792e+00
    2.8620822144e+02   -8.2911500931e+00
    2.8630822754e+02   -8.2463302612e+00
    2.8640823364e+02   -8.2015800476e+00
    2.8650823975e+02   -8.1569004059e+00
    2.8660824585e+02   -8.1122598648e+00
    2.8670825195e+02   -8.0676603317e+00
    2.8680825806e+02   -8.0231103897e+00
    2.8690826416e+02   -7.9785900116e+00
    2.8700827026e+02   -7.9341101646e+00
    2.8710827637e+02   -7.8896698952e+00
    2.8720828247e+02   -7.8452801704e+00
    2.8730828857e+02   -7.8009300232e+00
    2.8740829468e+02   -7.7566199303e+00
    2.8750830078e+02   -7.7123699188e+00
    2.8760830688e+02   -7.6681699753e+00
    2.8770831299e+02   -7.6240100861e+00
    2.8780831909e+02   -7.5799098015e+00
    2.8790832520e+02   -7.5358600616e+00
    2.8800833130e+02   -7.4918599129e+00
    2.8810833740e+02   -7.4479298592e+00
    2.8820834351e+02   -7.4040598869e+00
    2.8830834961e+02   -7.3602299690e+00
    2.8840835571e+02   -7.3164801598e+00
    2.8850836182e+02   -7.2727899551e+00
    2.8860836792e+02   -7.2291598320e+00
    2.8870837402e+02   -7.1855998039e+00
    2.8880838013e+02   -7.1420798302e+00
    2.8890838623e+02   -7.0986199379e+00
    2.8900839233e+02   -7.0552101135e+00
    2.8910839844e+02   -7.0118398666e+00
    2.8920840454e+02   -6.9685301781e+00
    2.8930841064e+02   -6.9252800941e+00
    2.8940841675e+02   -6.8821001053e+00
    2.8950842285e+02   -6.8389701843e+00
    2.8960839844e+02   -6.7959198952e+00
    2.8970843506e+02   -6.7529301643e+00
    2.8980844116e+02   -6.7100100517e+00
    2.8990844727e+02   -6.6671800613e+00
    2.9000845337e+02   -6.6244201660e+00
    2.9010845947e+02   -6.5817499161e+00
    2.9020843506e+02   -6.5391502380e+00
    2.9030847168e+02   -6.4966301918e+00
    2.9040847778e+02   -6.4541997910e+00
    2.9050848389e+02   -6.4118499756e+00
    2.9060848999e+02   -6.3695697784e+00
    2.9070849609e+02   -6.3274002075e+00
    2.9080850220e+02   -6.2852897644e+00
    2.9090850830e+02   -6.2432799339e+00
    2.9100851440e+02   -6.2013602257e+00
    2.9110852051e+02   -6.1595101357e+00
    2.9120852661e+02   -6.1177501678e+00
    2.9130853271e+02   -6.0760598183e+00
    2.9140853882e+02   -6.0344500542e+00
    2.9150854492e+02   -5.9929199219e+00
    2.9160855103e+02   -5.9514799118e+00
    2.9170855713e+02   -5.9101300240e+00
    2.9180856323e+02   -5.8688697815e+00
    2.9190856934e+02   -5.8277001381e+00
    2.9200857544e+02   -5.7866301537e+00
    2.9210858154e+02   -5.7456598282e+00
    2.9220858765e+02   -5.7047901154e+00
    2.9230859375e+02   -5.6640000343e+00
    2.9240859985e+02   -5.6233000755e+00
    2.9250860596e+02   -5.5826802254e+00
    2.9260861206e+02   -5.5421400070e+00
    2.9270861816e+02   -5.5016698837e+00
    2.9280862427e+02   -5.4612898827e+00
    2.9290863037e+02   -5.4209799767e+00
    2.9300863647e+02   -5.3807401657e+00
    2.9310864258e+02   -5.3405799866e+00
    2.9320864868e+02   -5.3004798889e+00
    2.9330865479e+02   -5.2604598999e+00
    2.9340866089e+02   -5.2205200195e+00
    2.9350866699e+02   -5.1806502342e+00
    2.9360867310e+02   -5.1408700943e+00
    2.9370867920e+02   -5.1011500359e+00
    2.9380868530e+02   -5.0615301132e+00
    2.9390869141e+02   -5.0219998360e+00
    2.9400869751e+02   -4.9825501442e+00
    2.9410870361e+02   -4.9431600571e+00
    2.9420870972e+02   -4.9038500786e+00
    2.9430871582e+02   -4.8646202087e+00
    2.9440872192e+02   -4.8254699707e+00
    2.9450872803e+02   -4.7863798141e+00
    2.9460873413e+02   -4.7473697662e+00
    2.9470874023e+02   -4.7084498405e+00
    2.9480874634e+02   -4.6695899963e+00
    2.9490875244e+02   -4.6308197975e+00
    2.9500875854e+02   -4.5921101570e+00
    2.9510876465e+02   -4.5534801483e+00
    2.9520877075e+02   -4.5149102211e+00
    2.9530877686e+02   -4.4764299393e+00
    2.9540878296e+02   -4.4380202293e+00
    2.9550878906e+02   -4.3997001648e+00
    2.9560879517e+02   -4.3614602089e+00
    2.9570880127e+02   -4.3233098984e+00
    2.9580880737e+02   -4.2852301598e+00
    2.9590881348e+02   -4.2472400665e+00
    2.9600881958e+02   -4.2093501091e+00
    2.9610882568e+02   -4.1715397835e+00
    2.9620883179e+02   -4.1338200569e+00
    2.9630883789e+02   -4.0961999893e+00
    2.9640884399e+02   -4.0586700439e+00
    2.9650885010e+02   -4.0212202072e+00
    2.9660885620e+02   -3.9838500023e+00
    2.9670886230e+02   -3.9465799332e+00
    2.9680886841e+02   -3.9093899727e+00
    2.9690887451e+02   -3.8722898960e+00
    2.9700888062e+02   -3.8352999687e+00
    2.9710888672e+02   -3.7983999252e+00
    2.9720889282e+02   -3.7616100311e+00
    2.9730889893e+02   -3.7249100208e+00
    2.9740890503e+02   -3.6882998943e+00
    2.9750891113e+02   -3.6517899036e+00
    2.9760888672e+02   -3.6153900623e+00
    2.9770892334e+02   -3.5790700912e+00
    2.9780892944e+02   -3.5428400040e+00
    2.9790890503e+02   -3.5067300797e+00
    2.9800894165e+02   -3.4707100391e+00
    2.9810894775e+02   -3.4348099232e+00
    2.9820895386e+02   -3.3990099430e+00
    2.9830895996e+02   -3.3633100986e+00
    2.9840893555e+02   -3.3277299404e+00
    2.9850897217e+02   -3.2922399044e+00
    2.9860897827e+02   -3.2568800449e+00
    2.9870898438e+02   -3.2216000557e+00
    2.9880899048e+02   -3.1864299774e+00
    2.9890899658e+02   -3.1513400078e+00
    2.9900900269e+02   -3.1163699627e+00
    2.9910900879e+02   -3.0814800262e+00
    2.9920901489e+02   -3.0467000008e+00
    2.9930902100e+02   -3.0120000839e+00
    2.9940902710e+02   -2.9774200916e+00
    2.9950903320e+02   -2.9429299831e+00
    2.9960903931e+02   -2.9085299969e+00
    2.9970904541e+02   -2.8742198944e+00
    2.9980905151e+02   -2.8400199413e+00
    2.9990905762e+02   -2.8059000969e+00
endcurve
