Curveplot
LS-DYNA keyword deck by LS-PrePost
Abscissa
Ordinate
XY data
CHOP_NASZ_mo-1 #pts=3000
* Minval=    -9.2416603088e+01 at time=       213.5038146973
* Maxval=     1.1116999667e-04 at time=         2.7999842167
    0.0000000000e+00    0.0000000000e+00
    9.9982611835e-02    8.9281101230e-15
    1.9998937845e-01    1.4159199964e-06
    2.9997533560e-01    1.8474199805e-06
    3.9998778701e-01    2.3229699764e-06
    4.9998745322e-01    2.9924299270e-06
    5.9997820854e-01    3.7458601128e-06
    6.9998013973e-01    5.2392801990e-06
    7.9997879267e-01    7.0400601544e-06
    8.9998644590e-01    9.9165599750e-06
    9.9999207258e-01    1.1759199879e-05
    1.0999804735e+00    1.3783100258e-05
    1.1999995708e+00    1.4483800442e-05
    1.2999824286e+00    1.6295500245e-05
    1.3999978304e+00    1.7876700440e-05
    1.4999972582e+00    2.0076700821e-05
    1.5999836922e+00    2.2895699658e-05
    1.6999758482e+00    2.6263100153e-05
    1.7999942303e+00    3.1788800698e-05
    1.8999974728e+00    3.8949499867e-05
    1.9999816418e+00    4.9531499826e-05
    2.0999867916e+00    5.9056499595e-05
    2.1999886036e+00    7.0381596743e-05
    2.2999877930e+00    8.0693396740e-05
    2.3999793530e+00    9.0145098511e-05
    2.4999806881e+00    9.7170399386e-05
    2.5999958515e+00    1.0354800179e-04
    2.6999797821e+00    1.0924600065e-04
    2.7999842167e+00    1.1116999667e-04
    2.8999984264e+00    1.1056700168e-04
    2.9999928474e+00    1.0735399701e-04
    3.0999886990e+00    1.0252899665e-04
    3.1999971867e+00    9.1680798505e-05
    3.2999744415e+00    7.8291297541e-05
    3.3999845982e+00    6.0599501012e-05
    3.4999895096e+00    4.1471601435e-05
    3.5999891758e+00    2.0883899197e-05
    3.6999917030e+00   -5.8480998177e-07
    3.7999820709e+00   -2.2227699446e-05
    3.8999779224e+00   -4.4884800445e-05
    3.9999778271e+00   -6.6467400757e-05
    4.0999832153e+00   -9.1839501692e-05
    4.1999883652e+00   -1.1898700177e-04
    4.2999901772e+00   -1.4811199799e-04
    4.3999953270e+00   -1.7791299615e-04
    4.4999747276e+00   -2.1026200557e-04
    4.5999855995e+00   -2.4379999377e-04
    4.6999740601e+00   -2.7634500293e-04
    4.7999787331e+00   -3.1187498826e-04
    4.8999800682e+00   -3.5017001210e-04
    4.9999928474e+00   -3.9321198710e-04
    5.0999736786e+00   -4.3824000750e-04
    5.1999864578e+00   -4.8909900943e-04
    5.2999849319e+00   -5.4189597722e-04
    5.3999800682e+00   -5.9902900830e-04
    5.4999814034e+00   -6.5983802779e-04
    5.5999865532e+00   -7.2310701944e-04
    5.6999816895e+00   -7.9016602831e-04
    5.7999835014e+00   -8.5921899881e-04
    5.8999786377e+00   -9.3533698237e-04
    5.9999856949e+00   -1.0156299686e-03
    6.0999760628e+00   -1.1016499484e-03
    6.1999859810e+00   -1.1915200157e-03
    6.2999730110e+00   -1.2858200353e-03
    6.3999848366e+00   -1.3812000398e-03
    6.4999895096e+00   -1.4803400263e-03
    6.5999765396e+00   -1.5839800471e-03
    6.6999945641e+00   -1.6901900526e-03
    6.7999725342e+00   -1.8014099915e-03
    6.8999905586e+00   -1.9160499796e-03
    6.9999766350e+00   -2.0369500853e-03
    7.0999908447e+00   -2.1606900264e-03
    7.1999864578e+00   -2.2906300146e-03
    7.2999901772e+00   -2.4240799248e-03
    7.3999891281e+00   -2.5626199786e-03
    7.4999928474e+00   -2.7051300276e-03
    7.5999937057e+00   -2.8537199832e-03
    7.6999754906e+00   -3.0089600477e-03
    7.7999696732e+00   -3.1665998977e-03
    7.8999733925e+00   -3.3308500424e-03
    7.9999823570e+00   -3.4973400179e-03
    8.0999841690e+00   -3.6707399413e-03
    8.1999797821e+00   -3.8456900511e-03
    8.2999763489e+00   -4.0254602209e-03
    8.3999900818e+00   -4.2074602097e-03
    8.4999818802e+00   -4.3935300782e-03
    8.5999898911e+00   -4.5820497908e-03
    8.6999826431e+00   -4.7709499486e-03
    8.7999830246e+00   -4.9642799422e-03
    8.8999948502e+00   -5.1608402282e-03
    8.9999942780e+00   -5.3611099720e-03
    9.0999965668e+00   -5.5636698380e-03
    9.1999816895e+00   -5.7707298547e-03
    9.2999858856e+00   -5.9815198183e-03
    9.3999853134e+00   -6.1967298388e-03
    9.4999780655e+00   -6.4153601415e-03
    9.5999937057e+00   -6.6387401894e-03
    9.6999883652e+00   -6.8672602065e-03
    9.7999906540e+00   -7.0984200574e-03
    9.8999910355e+00   -7.3341098614e-03
    9.9999876022e+00   -7.5738099404e-03
    1.0099982262e+01   -7.8187501058e-03
    1.0199989319e+01   -8.0681098625e-03
    1.0299994469e+01   -8.3220498636e-03
    1.0399988174e+01   -8.5796499625e-03
    1.0499996185e+01   -8.8419001549e-03
    1.0599995613e+01   -9.1082397848e-03
    1.0699992180e+01   -9.3777496368e-03
    1.0800000191e+01   -9.6520399675e-03
    1.0899995804e+01   -9.9285496399e-03
    1.0999985695e+01   -1.0211200453e-02
    1.1100003242e+01   -1.0498300195e-02
    1.1199999809e+01   -1.0791799985e-02
    1.1299988747e+01   -1.1089299805e-02
    1.1399987221e+01   -1.1390499771e-02
    1.1499982834e+01   -1.1695000343e-02
    1.1600003242e+01   -1.2002100237e-02
    1.1700003624e+01   -1.2311300263e-02
    1.1800004959e+01   -1.2620800175e-02
    1.1899992943e+01   -1.2931800447e-02
    1.2000000954e+01   -1.3244399801e-02
    1.2099992752e+01   -1.3562000357e-02
    1.2200003624e+01   -1.3882399537e-02
    1.2300004959e+01   -1.4207099564e-02
    1.2399997711e+01   -1.4538199641e-02
    1.2499990463e+01   -1.4874500223e-02
    1.2599995613e+01   -1.5218700282e-02
    1.2699999809e+01   -1.5569699928e-02
    1.2799995422e+01   -1.5932299197e-02
    1.2899995804e+01   -1.6302600503e-02
    1.2999990463e+01   -1.6683800146e-02
    1.3100006104e+01   -1.7074000090e-02
    1.3200004578e+01   -1.7474999651e-02
    1.3300004005e+01   -1.7886800691e-02
    1.3399991035e+01   -1.8307900056e-02
    1.3499997139e+01   -1.8736999482e-02
    1.3600014687e+01   -1.9171500579e-02
    1.3699992180e+01   -1.9612599164e-02
    1.3799991608e+01   -2.0057300106e-02
    1.3900001526e+01   -2.0509699360e-02
    1.3999991417e+01   -2.0965699106e-02
    1.4100013733e+01   -2.1431000903e-02
    1.4199995995e+01   -2.1902399138e-02
    1.4299995422e+01   -2.2381000221e-02
    1.4400007248e+01   -2.2866100073e-02
    1.4500001907e+01   -2.3359300569e-02
    1.4599994659e+01   -2.3861899972e-02
    1.4700014114e+01   -2.4370599538e-02
    1.4799996376e+01   -2.4890499189e-02
    1.4899997711e+01   -2.5420399383e-02
    1.4999997139e+01   -2.5963099673e-02
    1.5100004196e+01   -2.6514599100e-02
    1.5200007439e+01   -2.7078000829e-02
    1.5300016403e+01   -2.7652099729e-02
    1.5400004387e+01   -2.8237700462e-02
    1.5500002861e+01   -2.8833100572e-02
    1.5600021362e+01   -2.9435500503e-02
    1.5699999809e+01   -3.0047500506e-02
    1.5800008774e+01   -3.0669599771e-02
    1.5900000572e+01   -3.1303599477e-02
    1.6000007629e+01   -3.1947199255e-02
    1.6099998474e+01   -3.2602999359e-02
    1.6200010300e+01   -3.3267598599e-02
    1.6300018311e+01   -3.3941499889e-02
    1.6400005341e+01   -3.4621801227e-02
    1.6500007629e+01   -3.5311501473e-02
    1.6600008011e+01   -3.6011900753e-02
    1.6700021744e+01   -3.6722600460e-02
    1.6800016403e+01   -3.7442699075e-02
    1.6900024414e+01   -3.8175400347e-02
    1.7000009537e+01   -3.8919098675e-02
    1.7100006104e+01   -3.9673700929e-02
    1.7200021744e+01   -4.0439400822e-02
    1.7300024033e+01   -4.1216500103e-02
    1.7400011063e+01   -4.2003300041e-02
    1.7500028610e+01   -4.2799599469e-02
    1.7600025177e+01   -4.3607499450e-02
    1.7700023651e+01   -4.4427201152e-02
    1.7800008774e+01   -4.5260298997e-02
    1.7900011063e+01   -4.6100098640e-02
    1.8000019073e+01   -4.6952001750e-02
    1.8100013733e+01   -4.7812800854e-02
    1.8200010300e+01   -4.8681799322e-02
    1.8300008774e+01   -4.9555700272e-02
    1.8400009155e+01   -5.0435900688e-02
    1.8500017166e+01   -5.1322299987e-02
    1.8600011826e+01   -5.2215300500e-02
    1.8700017929e+01   -5.3115900606e-02
    1.8800025940e+01   -5.4023001343e-02
    1.8900026321e+01   -5.4937999696e-02
    1.9000022888e+01   -5.5857300758e-02
    1.9100019455e+01   -5.6783899665e-02
    1.9200012207e+01   -5.7717498392e-02
    1.9300035477e+01   -5.8660399169e-02
    1.9400016785e+01   -5.9611700475e-02
    1.9500034332e+01   -6.0570899397e-02
    1.9600038528e+01   -6.1538498849e-02
    1.9700035095e+01   -6.2516197562e-02
    1.9800027847e+01   -6.3500903547e-02
    1.9900022507e+01   -6.4493298531e-02
    2.0000036240e+01   -6.5493598580e-02
    2.0100036621e+01   -6.6500797868e-02
    2.0200017929e+01   -6.7513503134e-02
    2.0300018311e+01   -6.8533197045e-02
    2.0400030136e+01   -6.9561302662e-02
    2.0500038147e+01   -7.0597998798e-02
    2.0600032806e+01   -7.1640096605e-02
    2.0700014114e+01   -7.2690002620e-02
    2.0800039291e+01   -7.3747701943e-02
    2.0900030136e+01   -7.4811100960e-02
    2.1000026703e+01   -7.5883902609e-02
    2.1100042343e+01   -7.6963499188e-02
    2.1200042725e+01   -7.8052699566e-02
    2.1300025940e+01   -7.9147100449e-02
    2.1400041580e+01   -8.0251000822e-02
    2.1500026703e+01   -8.1360600889e-02
    2.1600040436e+01   -8.2478396595e-02
    2.1700025558e+01   -8.3601698279e-02
    2.1800033569e+01   -8.4729596972e-02
    2.1900030136e+01   -8.5859403014e-02
    2.2000036240e+01   -8.6990900338e-02
    2.2100032806e+01   -8.8132798672e-02
    2.2200029373e+01   -8.9279599488e-02
    2.2300027847e+01   -9.0437203646e-02
    2.2400041580e+01   -9.1601699591e-02
    2.2500047684e+01   -9.2780500650e-02
    2.2600046158e+01   -9.3969203532e-02
    2.2700035095e+01   -9.5171198249e-02
    2.2800039291e+01   -9.6385300159e-02
    2.2900045395e+01   -9.7611300647e-02
    2.3000034332e+01   -9.8849602044e-02
    2.3100030899e+01   -1.0010000318e-01
    2.3200035095e+01   -1.0136500001e-01
    2.3300041199e+01   -1.0264100134e-01
    2.3400030136e+01   -1.0393100232e-01
    2.3500028610e+01   -1.0523000360e-01
    2.3600032806e+01   -1.0654199868e-01
    2.3700038910e+01   -1.0786099732e-01
    2.3800041199e+01   -1.0918799788e-01
    2.3900028229e+01   -1.1052300036e-01
    2.4000040054e+01   -1.1186800152e-01
    2.4100051880e+01   -1.1322300136e-01
    2.4200040817e+01   -1.1458999664e-01
    2.4300050735e+01   -1.1596900225e-01
    2.4400030136e+01   -1.1735799909e-01
    2.4500043869e+01   -1.1875999719e-01
    2.4600055695e+01   -1.2017299980e-01
    2.4700054169e+01   -1.2159900367e-01
    2.4800035477e+01   -1.2303700298e-01
    2.4900039673e+01   -1.2448800355e-01
    2.5000045776e+01   -1.2595200539e-01
    2.5100034714e+01   -1.2742799520e-01
    2.5200038910e+01   -1.2891699374e-01
    2.5300041199e+01   -1.3042099774e-01
    2.5400056839e+01   -1.3193699718e-01
    2.5500036240e+01   -1.3346299529e-01
    2.5600053787e+01   -1.3500399888e-01
    2.5700044632e+01   -1.3655699790e-01
    2.5800060272e+01   -1.3812300563e-01
    2.5900041580e+01   -1.3970099390e-01
    2.6000059128e+01   -1.4129300416e-01
    2.6100048065e+01   -1.4289799333e-01
    2.6200035095e+01   -1.4451399446e-01
    2.6300058365e+01   -1.4614099264e-01
    2.6400049210e+01   -1.4778000116e-01
    2.6500062943e+01   -1.4942899346e-01
    2.6600057602e+01   -1.5109099448e-01
    2.6700044632e+01   -1.5276299417e-01
    2.6800064087e+01   -1.5444900095e-01
    2.6900058746e+01   -1.5614399314e-01
    2.7000045776e+01   -1.5785199404e-01
    2.7100059509e+01   -1.5957300365e-01
    2.7200052261e+01   -1.6130499542e-01
    2.7300050735e+01   -1.6305199265e-01
    2.7400066376e+01   -1.6481000185e-01
    2.7500049591e+01   -1.6658200324e-01
    2.7600053787e+01   -1.6836699843e-01
    2.7700063705e+01   -1.7016600072e-01
    2.7800067902e+01   -1.7197600007e-01
    2.7900051117e+01   -1.7379699647e-01
    2.8000062943e+01   -1.7562800646e-01
    2.8100057602e+01   -1.7747099698e-01
    2.8200044632e+01   -1.7931799591e-01
    2.8300067902e+01   -1.8117600679e-01
    2.8400062561e+01   -1.8303999305e-01
    2.8500049591e+01   -1.8491099775e-01
    2.8600053787e+01   -1.8679000437e-01
    2.8700052261e+01   -1.8867599964e-01
    2.8800050735e+01   -1.9056999683e-01
    2.8900072098e+01   -1.9247199595e-01
    2.9000055313e+01   -1.9438299537e-01
    2.9100069046e+01   -1.9630199671e-01
    2.9200071335e+01   -1.9823299348e-01
    2.9300071716e+01   -2.0017099380e-01
    2.9400056839e+01   -2.0212000608e-01
    2.9500068665e+01   -2.0407700539e-01
    2.9600059509e+01   -2.0604400337e-01
    2.9700065613e+01   -2.0801800489e-01
    2.9800060272e+01   -2.1000300348e-01
    2.9900056839e+01   -2.1199600399e-01
    3.0000064850e+01   -2.1400000155e-01
    3.0100061417e+01   -2.1601200104e-01
    3.0200057983e+01   -2.1803000569e-01
    3.0300077438e+01   -2.2005799413e-01
    3.0400070190e+01   -2.2209100425e-01
    3.0500070572e+01   -2.2413699329e-01
    3.0600061417e+01   -2.2619000077e-01
    3.0700071335e+01   -2.2825500369e-01
    3.0800058365e+01   -2.3032400012e-01
    3.0900074005e+01   -2.3240500689e-01
    3.1000072479e+01   -2.3449499905e-01
    3.1100072861e+01   -2.3659700155e-01
    3.1200056076e+01   -2.3871199787e-01
    3.1300062180e+01   -2.4083200097e-01
    3.1400077820e+01   -2.4296399951e-01
    3.1500062943e+01   -2.4509899318e-01
    3.1600067139e+01   -2.4724900723e-01
    3.1700059891e+01   -2.4940100312e-01
    3.1800081253e+01   -2.5155898929e-01
    3.1900064468e+01   -2.5371599197e-01
    3.2000068665e+01   -2.5587800145e-01
    3.2100074768e+01   -2.5804901123e-01
    3.2200065613e+01   -2.6022699475e-01
    3.2300067902e+01   -2.6242300868e-01
    3.2400066376e+01   -2.6463100314e-01
    3.2500049591e+01   -2.6685801148e-01
    3.2600063324e+01   -2.6910001040e-01
    3.2700054169e+01   -2.7136498690e-01
    3.2800067902e+01   -2.7364999056e-01
    3.2900054932e+01   -2.7595901489e-01
    3.3000045776e+01   -2.7828800678e-01
    3.3100055695e+01   -2.8064000607e-01
    3.3200042725e+01   -2.8301900625e-01
    3.3300052643e+01   -2.8541898727e-01
    3.3400035858e+01   -2.8784498572e-01
    3.3500045776e+01   -2.9028600454e-01
    3.3600051880e+01   -2.9274699092e-01
    3.3700054169e+01   -2.9521900415e-01
    3.3800052643e+01   -2.9770600796e-01
    3.3900035858e+01   -3.0020299554e-01
    3.4000026703e+01   -3.0271801353e-01
    3.4100025177e+01   -3.0525299907e-01
    3.4200042725e+01   -3.0780801177e-01
    3.4300037384e+01   -3.1038099527e-01
    3.4400035858e+01   -3.1296798587e-01
    3.4500022888e+01   -3.1557399035e-01
    3.4600017548e+01   -3.1819701195e-01
    3.4700019836e+01   -3.2084101439e-01
    3.4800022125e+01   -3.2350298762e-01
    3.4900016785e+01   -3.2618901134e-01
    3.5000026703e+01   -3.2890200615e-01
    3.5100013733e+01   -3.3164000511e-01
    3.5200027466e+01   -3.3440500498e-01
    3.5300014496e+01   -3.3719301224e-01
    3.5400016785e+01   -3.4000501037e-01
    3.5500019073e+01   -3.4284099936e-01
    3.5600025177e+01   -3.4570199251e-01
    3.5700000763e+01   -3.4858301282e-01
    3.5799999237e+01   -3.5149300098e-01
    3.5899997711e+01   -3.5443198681e-01
    3.6000007629e+01   -3.5739800334e-01
    3.6099998474e+01   -3.6038699746e-01
    3.6200000763e+01   -3.6340200901e-01
    3.6299995422e+01   -3.6643698812e-01
    3.6400009155e+01   -3.6949399114e-01
    3.6499992371e+01   -3.7257298827e-01
    3.6600009918e+01   -3.7567400932e-01
    3.6699996948e+01   -3.7880098820e-01
    3.6799999237e+01   -3.8195100427e-01
    3.6900001526e+01   -3.8512799144e-01
    3.7000003815e+01   -3.8833299279e-01
    3.7099990845e+01   -3.9156401157e-01
    3.7199989319e+01   -3.9482000470e-01
    3.7299987793e+01   -3.9810499549e-01
    3.7399986267e+01   -4.0141400695e-01
    3.7499988556e+01   -4.0475299954e-01
    3.7599971771e+01   -4.0812399983e-01
    3.7699981689e+01   -4.1152501106e-01
    3.7799983978e+01   -4.1495200992e-01
    3.7899967194e+01   -4.1840299964e-01
    3.7999973297e+01   -4.2188099027e-01
    3.8099964142e+01   -4.2537799478e-01
    3.8199985504e+01   -4.2890000343e-01
    3.8299980164e+01   -4.3243700266e-01
    3.8399967194e+01   -4.3599700928e-01
    3.8499958038e+01   -4.3957298994e-01
    3.8599956512e+01   -4.4317001104e-01
    3.8699954987e+01   -4.4678801298e-01
    3.8799953461e+01   -4.5042300224e-01
    3.8899951935e+01   -4.5407700539e-01
    3.8999973297e+01   -4.5775198936e-01
    3.9099952698e+01   -4.6144899726e-01
    3.9199954987e+01   -4.6516498923e-01
    3.9299949646e+01   -4.6891200542e-01
    3.9399951935e+01   -4.7267699242e-01
    3.9499950409e+01   -4.7646999359e-01
    3.9599960327e+01   -4.8028200865e-01
    3.9699939728e+01   -4.8412200809e-01
    3.9799938202e+01   -4.8798400164e-01
    3.9899955750e+01   -4.9187299609e-01
    3.9999946594e+01   -4.9578601122e-01
    4.0099952698e+01   -4.9972200394e-01
    4.0199932098e+01   -5.0368499756e-01
    4.0299934387e+01   -5.0766897202e-01
    4.0399932861e+01   -5.1168501377e-01
    4.0499946594e+01   -5.1571798325e-01
    4.0599929810e+01   -5.1978099346e-01
    4.0699935913e+01   -5.2386397123e-01
    4.0799934387e+01   -5.2797299623e-01
    4.0899940491e+01   -5.3210097551e-01
    4.0999923706e+01   -5.3625899553e-01
    4.1099941254e+01   -5.4044699669e-01
    4.1199920654e+01   -5.4465800524e-01
    4.1299938202e+01   -5.4889500141e-01
    4.1399917603e+01   -5.5315101147e-01
    4.1499916077e+01   -5.5743801594e-01
    4.1599914551e+01   -5.6174498796e-01
    4.1699909210e+01   -5.6607598066e-01
    4.1799915314e+01   -5.7042199373e-01
    4.1899906158e+01   -5.7478702068e-01
    4.1999912262e+01   -5.7916700840e-01
    4.2099914551e+01   -5.8357501030e-01
    4.2199920654e+01   -5.8800601959e-01
    4.2299915314e+01   -5.9246802330e-01
    4.2399898529e+01   -5.9696400166e-01
    4.2499912262e+01   -6.0149699450e-01
    4.2599903107e+01   -6.0606801510e-01
    4.2699897766e+01   -6.1067497730e-01
    4.2799896240e+01   -6.1532700062e-01
    4.2899894714e+01   -6.2002199888e-01
    4.2999912262e+01   -6.2476098537e-01
    4.3099899292e+01   -6.2953901291e-01
    4.3199897766e+01   -6.3436800241e-01
    4.3299884796e+01   -6.3924002647e-01
    4.3399890900e+01   -6.4415901899e-01
    4.3499885559e+01   -6.4911502600e-01
    4.3599887848e+01   -6.5410697460e-01
    4.3699882507e+01   -6.5912801027e-01
    4.3799888611e+01   -6.6418200731e-01
    4.3899887085e+01   -6.6926401854e-01
    4.3999885559e+01   -6.7438501120e-01
    4.4099876404e+01   -6.7954599857e-01
    4.4199893951e+01   -6.8475097418e-01
    4.4299877167e+01   -6.8998897076e-01
    4.4399875641e+01   -6.9526398182e-01
    4.4499866486e+01   -7.0058298111e-01
    4.4599872589e+01   -7.0593798161e-01
    4.4699871063e+01   -7.1133601665e-01
    4.4799880981e+01   -7.1677201986e-01
    4.4899871826e+01   -7.2225999832e-01
    4.4999870300e+01   -7.2778999805e-01
    4.5099857330e+01   -7.3337298632e-01
    4.5199871063e+01   -7.3899900913e-01
    4.5299873352e+01   -7.4467802048e-01
    4.5399860382e+01   -7.5039702654e-01
    4.5499858856e+01   -7.5616097450e-01
    4.5599861145e+01   -7.6196897030e-01
    4.5699859619e+01   -7.6781600714e-01
    4.5799858093e+01   -7.7371901274e-01
    4.5899864197e+01   -7.7966600657e-01
    4.5999843597e+01   -7.8566598892e-01
    4.6099842072e+01   -7.9170197248e-01
    4.6199844360e+01   -7.9779201746e-01
    4.6299846649e+01   -8.0391502380e-01
    4.6399852753e+01   -8.1008797884e-01
    4.6499851227e+01   -8.1629502773e-01
    4.6599849701e+01   -8.2254999876e-01
    4.6699836731e+01   -8.2884997129e-01
    4.6799846649e+01   -8.3519601822e-01
    4.6899833679e+01   -8.4159100056e-01
    4.6999843597e+01   -8.4802901745e-01
    4.7099842072e+01   -8.5452401638e-01
    4.7199832916e+01   -8.6105698347e-01
    4.7299846649e+01   -8.6764800549e-01
    4.7399829865e+01   -8.7427300215e-01
    4.7499835968e+01   -8.8096100092e-01
    4.7599842072e+01   -8.8769298792e-01
    4.7699832916e+01   -8.9447999001e-01
    4.7799835205e+01   -9.0131199360e-01
    4.7899829865e+01   -9.0818798542e-01
    4.7999816895e+01   -9.1511201859e-01
    4.8099815369e+01   -9.2207199335e-01
    4.8199813843e+01   -9.2907601595e-01
    4.8299823761e+01   -9.3611097336e-01
    4.8399829865e+01   -9.4318902493e-01
    4.8499805450e+01   -9.5029199123e-01
    4.8599826813e+01   -9.5744299889e-01
    4.8699821472e+01   -9.6461802721e-01
    4.8799823761e+01   -9.7183698416e-01
    4.8899803162e+01   -9.7908699512e-01
    4.8999797821e+01   -9.8637700081e-01
    4.9099803925e+01   -9.9370598793e-01
    4.9199806213e+01   -1.0010700226e+00
    4.9299800873e+01   -1.0084799528e+00
    4.9399810791e+01   -1.0159399509e+00
    4.9499797821e+01   -1.0234299898e+00
    4.9599803925e+01   -1.0309599638e+00
    4.9699794769e+01   -1.0385400057e+00
    4.9799789429e+01   -1.0461599827e+00
    4.9899795532e+01   -1.0538200140e+00
    4.9999786377e+01   -1.0615199804e+00
    5.0099792480e+01   -1.0692700148e+00
    5.0199790955e+01   -1.0770499706e+00
    5.0299793243e+01   -1.0848699808e+00
    5.0399799347e+01   -1.0927400589e+00
    5.0499774933e+01   -1.1006400585e+00
    5.0599796295e+01   -1.1085900068e+00
    5.0699790955e+01   -1.1165699959e+00
    5.0799770355e+01   -1.1246000528e+00
    5.0899768829e+01   -1.1326600313e+00
    5.0999782562e+01   -1.1407699585e+00
    5.1099773407e+01   -1.1489100456e+00
    5.1199771881e+01   -1.1571099758e+00
    5.1299785614e+01   -1.1653499603e+00
    5.1399776459e+01   -1.1736199856e+00
    5.1499778748e+01   -1.1819399595e+00
    5.1599773407e+01   -1.1903100014e+00
    5.1699775696e+01   -1.1987099648e+00
    5.1799766541e+01   -1.2071399689e+00
    5.1899757385e+01   -1.2156000137e+00
    5.1999771118e+01   -1.2240899801e+00
    5.2099765778e+01   -1.2326300144e+00
    5.2199771881e+01   -1.2411999702e+00
    5.2299755096e+01   -1.2498199940e+00
    5.2399757385e+01   -1.2584999800e+00
    5.2499767303e+01   -1.2672300339e+00
    5.2599758148e+01   -1.2760100365e+00
    5.2699756622e+01   -1.2848500013e+00
    5.2799743652e+01   -1.2937500477e+00
    5.2899761200e+01   -1.3027199507e+00
    5.2999759674e+01   -1.3117500544e+00
    5.3099735260e+01   -1.3208400011e+00
    5.3199748993e+01   -1.3299900293e+00
    5.3299732208e+01   -1.3392200470e+00
    5.3399734497e+01   -1.3485000134e+00
    5.3499744415e+01   -1.3578499556e+00
    5.3599742889e+01   -1.3672399521e+00
    5.3699737549e+01   -1.3766800165e+00
    5.3799732208e+01   -1.3861700296e+00
    5.3899723053e+01   -1.3956999779e+00
    5.3999725342e+01   -1.4052900076e+00
    5.4099731445e+01   -1.4149299860e+00
    5.4199722290e+01   -1.4246300459e+00
    5.4299716949e+01   -1.4343899488e+00
    5.4399723053e+01   -1.4442000389e+00
    5.4499732971e+01   -1.4540699720e+00
    5.4599727631e+01   -1.4639899731e+00
    5.4699710846e+01   -1.4739700556e+00
    5.4799709320e+01   -1.4840099812e+00
    5.4899730682e+01   -1.4941200018e+00
    5.4999713898e+01   -1.5042799711e+00
    5.5099712372e+01   -1.5145200491e+00
    5.5199703217e+01   -1.5248099566e+00
    5.5299701691e+01   -1.5351799726e+00
    5.5399700165e+01   -1.5456000566e+00
    5.5499717712e+01   -1.5561000109e+00
    5.5599716187e+01   -1.5666400194e+00
    5.5699703217e+01   -1.5772399902e+00
    5.5799705505e+01   -1.5879199505e+00
    5.5899692535e+01   -1.5986499786e+00
    5.5999702454e+01   -1.6094499826e+00
    5.6099708557e+01   -1.6203099489e+00
    5.6199695587e+01   -1.6312299967e+00
    5.6299709320e+01   -1.6422100067e+00
    5.6399700165e+01   -1.6532499790e+00
    5.6499694824e+01   -1.6643300056e+00
    5.6599700928e+01   -1.6754900217e+00
    5.6699691772e+01   -1.6866899729e+00
    5.6799678802e+01   -1.6979600191e+00
    5.6899688721e+01   -1.7093000412e+00
    5.6999691010e+01   -1.7206900120e+00
    5.7099685669e+01   -1.7321499586e+00
    5.7199695587e+01   -1.7436699867e+00
    5.7299682617e+01   -1.7552499771e+00
    5.7399677277e+01   -1.7668800354e+00
    5.7499664307e+01   -1.7785899639e+00
    5.7599678040e+01   -1.7903599739e+00
    5.7699684143e+01   -1.8021999598e+00
    5.7799682617e+01   -1.8141000271e+00
    5.7899665833e+01   -1.8260500431e+00
    5.7999679565e+01   -1.8380700350e+00
    5.8099678040e+01   -1.8501399755e+00
    5.8199661255e+01   -1.8622499704e+00
    5.8299678802e+01   -1.8744200468e+00
    5.8399669647e+01   -1.8866300583e+00
    5.8499664307e+01   -1.8988800049e+00
    5.8599662781e+01   -1.9111800194e+00
    5.8699665070e+01   -1.9235299826e+00
    5.8799663544e+01   -1.9359200001e+00
    5.8899669647e+01   -1.9483599663e+00
    5.8999664307e+01   -1.9608500004e+00
    5.9099655151e+01   -1.9733799696e+00
    5.9199653625e+01   -1.9859600067e+00
    5.9299659729e+01   -1.9986100197e+00
    5.9399658203e+01   -2.0113000870e+00
    5.9499656677e+01   -2.0240499973e+00
    5.9599655151e+01   -2.0368499756e+00
    5.9699642181e+01   -2.0497000217e+00
    5.9799644470e+01   -2.0626099110e+00
    5.9899650574e+01   -2.0755600929e+00
    5.9999649048e+01   -2.0885701180e+00
    6.0099651337e+01   -2.1016299725e+00
    6.0199634552e+01   -2.1147398949e+00
    6.0299648285e+01   -2.1278998852e+00
    6.0399631500e+01   -2.1411099434e+00
    6.0499641418e+01   -2.1543700695e+00
    6.0599624634e+01   -2.1676800251e+00
    6.0699642181e+01   -2.1810500622e+00
    6.0799617767e+01   -2.1944599152e+00
    6.0899639130e+01   -2.2079200745e+00
    6.0999614716e+01   -2.2214300632e+00
    6.1099628448e+01   -2.2349998951e+00
    6.1199626923e+01   -2.2486300468e+00
    6.1299621582e+01   -2.2623000145e+00
    6.1399627686e+01   -2.2760300636e+00
    6.1499622345e+01   -2.2898099422e+00
    6.1599628448e+01   -2.3036499023e+00
    6.1699611664e+01   -2.3175299168e+00
    6.1799613953e+01   -2.3314599991e+00
    6.1899608612e+01   -2.3454198837e+00
    6.1999622345e+01   -2.3594300747e+00
    6.2099601746e+01   -2.3734900951e+00
    6.2199604034e+01   -2.3875899315e+00
    6.2299602509e+01   -2.4017601013e+00
    6.2399608612e+01   -2.4159901142e+00
    6.2499614716e+01   -2.4302899837e+00
    6.2599590302e+01   -2.4446499348e+00
    6.2699611664e+01   -2.4590899944e+00
    6.2799610138e+01   -2.4735999107e+00
    6.2899585724e+01   -2.4881899357e+00
    6.2999595642e+01   -2.5028600693e+00
    6.3099601746e+01   -2.5176100731e+00
    6.3199592590e+01   -2.5324399471e+00
    6.3299602509e+01   -2.5473499298e+00
    6.3399593353e+01   -2.5623400211e+00
    6.3499584198e+01   -2.5773899555e+00
    6.3599590302e+01   -2.5925199986e+00
    6.3699596405e+01   -2.6076900959e+00
    6.3799591064e+01   -2.6229400635e+00
    6.3899589539e+01   -2.6382300854e+00
    6.3999576569e+01   -2.6535899639e+00
    6.4099578857e+01   -2.6690199375e+00
    6.4199584961e+01   -2.6845300198e+00
    6.4299583435e+01   -2.7000999451e+00
    6.4399581909e+01   -2.7157499790e+00
    6.4499565125e+01   -2.7314600945e+00
    6.4599563599e+01   -2.7472400665e+00
    6.4699577332e+01   -2.7630999088e+00
    6.4799560547e+01   -2.7790100574e+00
    6.4899559021e+01   -2.7950100899e+00
    6.4999572754e+01   -2.8110899925e+00
    6.5099555969e+01   -2.8272500038e+00
    6.5199554443e+01   -2.8434801102e+00
    6.5299568176e+01   -2.8598101139e+00
    6.5399566650e+01   -2.8761999607e+00
    6.5499557495e+01   -2.8926699162e+00
    6.5599548340e+01   -2.9091999531e+00
    6.5699554443e+01   -2.9258100986e+00
    6.5799568176e+01   -2.9425098896e+00
    6.5899551392e+01   -2.9592800140e+00
    6.5999549866e+01   -2.9761300087e+00
    6.6099555969e+01   -2.9930500984e+00
    6.6199554443e+01   -3.0100500584e+00
    6.6299560547e+01   -3.0271201134e+00
    6.6399543762e+01   -3.0442500114e+00
    6.6499534607e+01   -3.0614500046e+00
    6.6599548340e+01   -3.0787398815e+00
    6.6699539185e+01   -3.0960900784e+00
    6.6799545288e+01   -3.1135098934e+00
    6.6899536133e+01   -3.1310100555e+00
    6.6999542236e+01   -3.1485900879e+00
    6.7099533081e+01   -3.1662499905e+00
    6.7199539185e+01   -3.1839799881e+00
    6.7299522400e+01   -3.2017800808e+00
    6.7399536133e+01   -3.2196600437e+00
    6.7499534607e+01   -3.2376298904e+00
    6.7599517822e+01   -3.2556700706e+00
    6.7699531555e+01   -3.2737998962e+00
    6.7799522400e+01   -3.2919900417e+00
    6.7899528503e+01   -3.3102700710e+00
    6.7999519348e+01   -3.3286099434e+00
    6.8099510193e+01   -3.3470199108e+00
    6.8199531555e+01   -3.3654999733e+00
    6.8299514771e+01   -3.3840301037e+00
    6.8399520874e+01   -3.4026300907e+00
    6.8499504089e+01   -3.4212698936e+00
    6.8599517822e+01   -3.4399800301e+00
    6.8699508667e+01   -3.4587299824e+00
    6.8799499512e+01   -3.4775500298e+00
    6.8899520874e+01   -3.4964299202e+00
    6.8999511719e+01   -3.5153698921e+00
    6.9099494934e+01   -3.5343699455e+00
    6.9199493408e+01   -3.5534501076e+00
    6.9299514771e+01   -3.5725998878e+00
    6.9399497986e+01   -3.5917999744e+00
    6.9499496460e+01   -3.6110799313e+00
    6.9599502563e+01   -3.6304199696e+00
    6.9699493408e+01   -3.6498301029e+00
    6.9799507141e+01   -3.6693000793e+00
    6.9899482727e+01   -3.6888399124e+00
    6.9999481201e+01   -3.7084400654e+00
    7.0099487305e+01   -3.7281200886e+00
    7.0199485779e+01   -3.7478499413e+00
    7.0299484253e+01   -3.7676498890e+00
    7.0399482727e+01   -3.7875099182e+00
    7.0499473572e+01   -3.8074400425e+00
    7.0599479675e+01   -3.8274400234e+00
    7.0699470520e+01   -3.8475000858e+00
    7.0799484253e+01   -3.8676300049e+00
    7.0899482727e+01   -3.8878099918e+00
    7.0999458313e+01   -3.9080700874e+00
    7.1099487305e+01   -3.9284000397e+00
    7.1199478149e+01   -3.9488000870e+00
    7.1299468994e+01   -3.9692599773e+00
    7.1399459839e+01   -3.9897899628e+00
    7.1499473572e+01   -4.0103998184e+00
    7.1599464417e+01   -4.0310702324e+00
    7.1699455261e+01   -4.0517997742e+00
    7.1799476624e+01   -4.0725998878e+00
    7.1899467468e+01   -4.0934500694e+00
    7.1999458313e+01   -4.1143598557e+00
    7.2099456787e+01   -4.1353302002e+00
    7.2199462891e+01   -4.1563701630e+00
    7.2299468994e+01   -4.1774802208e+00
    7.2399452209e+01   -4.1986699104e+00
    7.2499450684e+01   -4.2199501991e+00
    7.2599441528e+01   -4.2413101196e+00
    7.2699447632e+01   -4.2627601624e+00
    7.2799453735e+01   -4.2842998505e+00
    7.2899452209e+01   -4.3059501648e+00
    7.2999435425e+01   -4.3276801109e+00
    7.3099441528e+01   -4.3495001793e+00
    7.3199440002e+01   -4.3714199066e+00
    7.3299438477e+01   -4.3934397697e+00
    7.3399436951e+01   -4.4155502319e+00
    7.3499435425e+01   -4.4377498627e+00
    7.3599449158e+01   -4.4600300789e+00
    7.3699432373e+01   -4.4823698997e+00
    7.3799430847e+01   -4.5047998428e+00
    7.3899444580e+01   -4.5272998810e+00
    7.3999435425e+01   -4.5498800278e+00
    7.4099426270e+01   -4.5725598335e+00
    7.4199417114e+01   -4.5953302383e+00
    7.4299415588e+01   -4.6181797981e+00
    7.4399429321e+01   -4.6411199570e+00
    7.4499412537e+01   -4.6641502380e+00
    7.4599418640e+01   -4.6872701645e+00
    7.4699409485e+01   -4.7104701996e+00
    7.4799407959e+01   -4.7337498665e+00
    7.4899406433e+01   -4.7571301460e+00
    7.4999427795e+01   -4.7806100845e+00
    7.5099411011e+01   -4.8041901588e+00
    7.5199401855e+01   -4.8278598785e+00
    7.5299400330e+01   -4.8516302109e+00
    7.5399414062e+01   -4.8754901886e+00
    7.5499404907e+01   -4.8994398117e+00
    7.5599395752e+01   -4.9234800339e+00
    7.5699401855e+01   -4.9475998878e+00
    7.5799415588e+01   -4.9718298912e+00
    7.5899391174e+01   -4.9961500168e+00
    7.5999397278e+01   -5.0205698013e+00
    7.6099411011e+01   -5.0450701714e+00
    7.6199394226e+01   -5.0696702003e+00
    7.6299400330e+01   -5.0943498611e+00
    7.6399398804e+01   -5.1191301346e+00
    7.6499389648e+01   -5.1439800262e+00
    7.6599395752e+01   -5.1689200401e+00
    7.6699394226e+01   -5.1939601898e+00
    7.6799377441e+01   -5.2190799713e+00
    7.6899398804e+01   -5.2442998886e+00
    7.6999397278e+01   -5.2696099281e+00
    7.7099380493e+01   -5.2950100899e+00
    7.7199371338e+01   -5.3204998970e+00
    7.7299369812e+01   -5.3460898399e+00
    7.7399383545e+01   -5.3717699051e+00
    7.7499389648e+01   -5.3975501060e+00
    7.7599365234e+01   -5.4234099388e+00
    7.7699386597e+01   -5.4493899345e+00
    7.7799377441e+01   -5.4754500389e+00
    7.7899368286e+01   -5.5015997887e+00
    7.7999374390e+01   -5.5278401375e+00
    7.8099357605e+01   -5.5541501045e+00
    7.8199371338e+01   -5.5805501938e+00
    7.8299369812e+01   -5.6070199013e+00
    7.8399360657e+01   -5.6335601807e+00
    7.8499351501e+01   -5.6601700783e+00
    7.8599349976e+01   -5.6868600845e+00
    7.8699348450e+01   -5.7136201859e+00
    7.8799362183e+01   -5.7404599190e+00
    7.8899360657e+01   -5.7673702240e+00
    7.8999351501e+01   -5.7943501472e+00
    7.9099342346e+01   -5.8214101791e+00
    7.9199340820e+01   -5.8485598564e+00
    7.9299346924e+01   -5.8758001328e+00
    7.9399337769e+01   -5.9031100273e+00
    7.9499336243e+01   -5.9305100441e+00
    7.9599357605e+01   -5.9579901695e+00
    7.9699348450e+01   -5.9855499268e+00
    7.9799354553e+01   -6.0131897926e+00
    7.9899337769e+01   -6.0409097672e+00
    7.9999336243e+01   -6.0687098503e+00
    8.0099342346e+01   -6.0965900421e+00
    8.0199333191e+01   -6.1245398521e+00
    8.0299346924e+01   -6.1525897980e+00
    8.0399345398e+01   -6.1806998253e+00
    8.0499320984e+01   -6.2088899612e+00
    8.0599327087e+01   -6.2371702194e+00
    8.0699333191e+01   -6.2655301094e+00
    8.0799339294e+01   -6.2939701080e+00
    8.0899322510e+01   -6.3224802017e+00
    8.0999313354e+01   -6.3510699272e+00
    8.1099311829e+01   -6.3797597885e+00
    8.1199317932e+01   -6.4085302353e+00
    8.1299331665e+01   -6.4373798370e+00
    8.1399330139e+01   -6.4663100243e+00
    8.1499305725e+01   -6.4953198433e+00
    8.1599304199e+01   -6.5244297981e+00
    8.1699302673e+01   -6.5536198616e+00
    8.1799316406e+01   -6.5828900337e+00
    8.1899307251e+01   -6.6122198105e+00
    8.1999305725e+01   -6.6416301727e+00
    8.2099304199e+01   -6.6711201668e+00
    8.2199310303e+01   -6.7006897926e+00
    8.2299293518e+01   -6.7303400040e+00
    8.2399299622e+01   -6.7600898743e+00
    8.2499298096e+01   -6.7899498940e+00
    8.2599311829e+01   -6.8199000359e+00
    8.2699287415e+01   -6.8499598503e+00
    8.2799308777e+01   -6.8801298141e+00
    8.2899291992e+01   -6.9103999138e+00
    8.2999282837e+01   -6.9407801628e+00
    8.3099288940e+01   -6.9712800980e+00
    8.3199295044e+01   -7.0018901825e+00
    8.3299293518e+01   -7.0326099396e+00
    8.3399276733e+01   -7.0634298325e+00
    8.3499290466e+01   -7.0943598747e+00
    8.3599281311e+01   -7.1253800392e+00
    8.3699279785e+01   -7.1564898491e+00
    8.3799278259e+01   -7.1877098083e+00
    8.3899284363e+01   -7.2189998627e+00
    8.3999275208e+01   -7.2504000664e+00
    8.4099273682e+01   -7.2818999290e+00
    8.4199272156e+01   -7.3135099411e+00
    8.4299278259e+01   -7.3452100754e+00
    8.4399261475e+01   -7.3770098686e+00
    8.4499267578e+01   -7.4089198112e+00
    8.4599273682e+01   -7.4409198761e+00
    8.4699272156e+01   -7.4730200768e+00
    8.4799278259e+01   -7.5052099228e+00
    8.4899253845e+01   -7.5375099182e+00
    8.4999259949e+01   -7.5699300766e+00
    8.5099266052e+01   -7.6024498940e+00
    8.5199256897e+01   -7.6350798607e+00
    8.5299270630e+01   -7.6678299904e+00
    8.5399269104e+01   -7.7006697655e+00
    8.5499252319e+01   -7.7336101532e+00
    8.5599250793e+01   -7.7666602135e+00
    8.5699249268e+01   -7.7998199463e+00
    8.5799255371e+01   -7.8330798149e+00
    8.5899238586e+01   -7.8664498329e+00
    8.5999244690e+01   -7.8999400139e+00
    8.6099243164e+01   -7.9335098267e+00
    8.6199241638e+01   -7.9671998024e+00
    8.6299240112e+01   -8.0009803772e+00
    8.6399246216e+01   -8.0348701477e+00
    8.6499229431e+01   -8.0688400269e+00
    8.6599235535e+01   -8.1029195786e+00
    8.6699234009e+01   -8.1371002197e+00
    8.6799240112e+01   -8.1713800430e+00
    8.6899230957e+01   -8.2057695389e+00
    8.6999221802e+01   -8.2402496338e+00
    8.7099235535e+01   -8.2748498917e+00
    8.7199218750e+01   -8.3095397949e+00
    8.7299232483e+01   -8.3443403244e+00
    8.7399230957e+01   -8.3792400360e+00
    8.7499229431e+01   -8.4142503738e+00
    8.7599227905e+01   -8.4493703842e+00
    8.7699226379e+01   -8.4846000671e+00
    8.7799209595e+01   -8.5199298859e+00
    8.7899208069e+01   -8.5553598404e+00
    8.7999221802e+01   -8.5909004211e+00
    8.8099220276e+01   -8.6265201569e+00
    8.8199218750e+01   -8.6622295380e+00
    8.8299217224e+01   -8.6980304718e+00
    8.8399215698e+01   -8.7339000702e+00
    8.8499221802e+01   -8.7698602676e+00
    8.8599197388e+01   -8.8058996201e+00
    8.8699211121e+01   -8.8420295715e+00
    8.8799209595e+01   -8.8782396317e+00
    8.8899192810e+01   -8.9145298004e+00
    8.8999191284e+01   -8.9509096146e+00
    8.9099205017e+01   -8.9873895645e+00
    8.9199203491e+01   -9.0239601135e+00
    8.9299186707e+01   -9.0606098175e+00
    8.9399208069e+01   -9.0973701477e+00
    8.9499198914e+01   -9.1342201233e+00
    8.9599189758e+01   -9.1711502075e+00
    8.9699203491e+01   -9.2081804276e+00
    8.9799186707e+01   -9.2453002930e+00
    8.9899177551e+01   -9.2825002670e+00
    8.9999191284e+01   -9.3198099136e+00
    9.0099174500e+01   -9.3571996689e+00
    9.0199195862e+01   -9.3946895599e+00
    9.0299186707e+01   -9.4322500229e+00
    9.0399185181e+01   -9.4699096680e+00
    9.0499168396e+01   -9.5076599121e+00
    9.0599174500e+01   -9.5454998016e+00
    9.0699172974e+01   -9.5834197998e+00
    9.0799163818e+01   -9.6214303970e+00
    9.0899177551e+01   -9.6595401764e+00
    9.0999160767e+01   -9.6977195740e+00
    9.1099166870e+01   -9.7360095978e+00
    9.1199172974e+01   -9.7743902206e+00
    9.1299156189e+01   -9.8128595352e+00
    9.1399169922e+01   -9.8514204025e+00
    9.1499153137e+01   -9.8900699615e+00
    9.1599151611e+01   -9.9288301468e+00
    9.1699157715e+01   -9.9676704407e+00
    9.1799148560e+01   -1.0006600380e+01
    9.1899162292e+01   -1.0045599937e+01
    9.1999153137e+01   -1.0084699631e+01
    9.2099151611e+01   -1.0123900414e+01
    9.2199157715e+01   -1.0163100243e+01
    9.2299156189e+01   -1.0202500343e+01
    9.2399147034e+01   -1.0241999626e+01
    9.2499137878e+01   -1.0281499863e+01
    9.2599151611e+01   -1.0321200371e+01
    9.2699134827e+01   -1.0361000061e+01
    9.2799140930e+01   -1.0400899887e+01
    9.2899131775e+01   -1.0440999985e+01
    9.2999137878e+01   -1.0481200218e+01
    9.3099143982e+01   -1.0521499634e+01
    9.3199134827e+01   -1.0561900139e+01
    9.3299140930e+01   -1.0602399826e+01
    9.3399124146e+01   -1.0643099785e+01
    9.3499130249e+01   -1.0683899879e+01
    9.3599128723e+01   -1.0724699974e+01
    9.3699134827e+01   -1.0765700340e+01
    9.3799118042e+01   -1.0806799889e+01
    9.3899124146e+01   -1.0847999573e+01
    9.3999130249e+01   -1.0889300346e+01
    9.4099128723e+01   -1.0930700302e+01
    9.4199127197e+01   -1.0972200394e+01
    9.4299110413e+01   -1.1013899803e+01
    9.4399108887e+01   -1.1055600166e+01
    9.4499114990e+01   -1.1097499847e+01
    9.4599128723e+01   -1.1139399529e+01
    9.4699104309e+01   -1.1181500435e+01
    9.4799118042e+01   -1.1223699570e+01
    9.4899108887e+01   -1.1265899658e+01
    9.4999114990e+01   -1.1308400154e+01
    9.5099113464e+01   -1.1350899696e+01
    9.5199096680e+01   -1.1393600464e+01
    9.5299102783e+01   -1.1436400414e+01
    9.5399093628e+01   -1.1479299545e+01
    9.5499107361e+01   -1.1522299767e+01
    9.5599098206e+01   -1.1565400124e+01
    9.5699089050e+01   -1.1608699799e+01
    9.5799095154e+01   -1.1652000427e+01
    9.5899093628e+01   -1.1695500374e+01
    9.5999107361e+01   -1.1739199638e+01
    9.6099082947e+01   -1.1782899857e+01
    9.6199089050e+01   -1.1826800346e+01
    9.6299095154e+01   -1.1870699883e+01
    9.6399093628e+01   -1.1914799690e+01
    9.6499084473e+01   -1.1958999634e+01
    9.6599075317e+01   -1.2003299713e+01
    9.6699073792e+01   -1.2047699928e+01
    9.6799072266e+01   -1.2092200279e+01
    9.6899093628e+01   -1.2136899948e+01
    9.6999069214e+01   -1.2181599617e+01
    9.7099067688e+01   -1.2226499557e+01
    9.7199089050e+01   -1.2271499634e+01
    9.7299064636e+01   -1.2316599846e+01
    9.7399063110e+01   -1.2361900330e+01
    9.7499084473e+01   -1.2407199860e+01
    9.7599082947e+01   -1.2452699661e+01
    9.7699073792e+01   -1.2498299599e+01
    9.7799064636e+01   -1.2544099808e+01
    9.7899055481e+01   -1.2589900017e+01
    9.7999061584e+01   -1.2635899544e+01
    9.8099067688e+01   -1.2681900024e+01
    9.8199050903e+01   -1.2728099823e+01
    9.8299064636e+01   -1.2774399757e+01
    9.8399055481e+01   -1.2820699692e+01
    9.8499061584e+01   -1.2867099762e+01
    9.8599044800e+01   -1.2913700104e+01
    9.8699050903e+01   -1.2960300446e+01
    9.8799049377e+01   -1.3006999969e+01
    9.8899047852e+01   -1.3053899765e+01
    9.8999061584e+01   -1.3100799561e+01
    9.9099052429e+01   -1.3147800446e+01
    9.9199043274e+01   -1.3194899559e+01
    9.9299041748e+01   -1.3242199898e+01
    9.9399032593e+01   -1.3289500237e+01
    9.9499038696e+01   -1.3336899757e+01
    9.9599052429e+01   -1.3384499550e+01
    9.9699028015e+01   -1.3432100296e+01
    9.9799049377e+01   -1.3479900360e+01
    9.9899040222e+01   -1.3527799606e+01
    9.9999038696e+01   -1.3575699806e+01
    1.0009902191e+02   -1.3623800278e+01
    1.0019902039e+02   -1.3671999931e+01
    1.0029901886e+02   -1.3720199585e+01
    1.0039901733e+02   -1.3768600464e+01
    1.0049903107e+02   -1.3817099571e+01
    1.0059902191e+02   -1.3865599632e+01
    1.0069904327e+02   -1.3914299965e+01
    1.0079902649e+02   -1.3963000298e+01
    1.0089900970e+02   -1.4011899948e+01
    1.0099902344e+02   -1.4060899734e+01
    1.0109900665e+02   -1.4109900475e+01
    1.0119899750e+02   -1.4159099579e+01
    1.0129901123e+02   -1.4208299637e+01
    1.0139900970e+02   -1.4257699966e+01
    1.0149902344e+02   -1.4307200432e+01
    1.0159902191e+02   -1.4356800079e+01
    1.0169901276e+02   -1.4406499863e+01
    1.0179901123e+02   -1.4456199646e+01
    1.0189900208e+02   -1.4506099701e+01
    1.0199900818e+02   -1.4556099892e+01
    1.0209899902e+02   -1.4606100082e+01
    1.0219901276e+02   -1.4656299591e+01
    1.0229898834e+02   -1.4706500053e+01
    1.0239898682e+02   -1.4756899834e+01
    1.0249900055e+02   -1.4807399750e+01
    1.0259898376e+02   -1.4857999802e+01
    1.0269898224e+02   -1.4908800125e+01
    1.0279898071e+02   -1.4959600449e+01
    1.0289897919e+02   -1.5010700226e+01
    1.0299899292e+02   -1.5061800003e+01
    1.0309899902e+02   -1.5113200188e+01
    1.0319898987e+02   -1.5164600372e+01
    1.0329898071e+02   -1.5216199875e+01
    1.0339897919e+02   -1.5267900467e+01
    1.0349897003e+02   -1.5319800377e+01
    1.0359896851e+02   -1.5371700287e+01
    1.0369898224e+02   -1.5423800468e+01
    1.0379898071e+02   -1.5475999832e+01
    1.0389897919e+02   -1.5528400421e+01
    1.0399896240e+02   -1.5580800056e+01
    1.0409896088e+02   -1.5633399963e+01
    1.0419895935e+02   -1.5686100006e+01
    1.0429895782e+02   -1.5738900185e+01
    1.0439895630e+02   -1.5791899681e+01
    1.0449897003e+02   -1.5844900131e+01
    1.0459896088e+02   -1.5898099899e+01
    1.0469895935e+02   -1.5951499939e+01
    1.0479897308e+02   -1.6004899979e+01
    1.0489894867e+02   -1.6058500290e+01
    1.0499894714e+02   -1.6112199783e+01
    1.0509896088e+02   -1.6166099548e+01
    1.0519895172e+02   -1.6220100403e+01
    1.0529895782e+02   -1.6274200439e+01
    1.0539895630e+02   -1.6328500748e+01
    1.0549893951e+02   -1.6382900238e+01
    1.0559896088e+02   -1.6437400818e+01
    1.0569892883e+02   -1.6492099762e+01
    1.0579895782e+02   -1.6546899796e+01
    1.0589894104e+02   -1.6601900101e+01
    1.0599893188e+02   -1.6656999588e+01
    1.0609895325e+02   -1.6712200165e+01
    1.0619892883e+02   -1.6767599106e+01
    1.0629894257e+02   -1.6823099136e+01
    1.0639894867e+02   -1.6878700256e+01
    1.0649893188e+02   -1.6934400558e+01
    1.0659893799e+02   -1.6990299225e+01
    1.0669892883e+02   -1.7046300888e+01
    1.0679894257e+02   -1.7102500916e+01
    1.0689894104e+02   -1.7158700943e+01
    1.0699893188e+02   -1.7215099335e+01
    1.0709893036e+02   -1.7271699905e+01
    1.0719893646e+02   -1.7328399658e+01
    1.0729891205e+02   -1.7385200500e+01
    1.0739893341e+02   -1.7442100525e+01
    1.0749890900e+02   -1.7499200821e+01
    1.0759890747e+02   -1.7556499481e+01
    1.0769892120e+02   -1.7613800049e+01
    1.0779891205e+02   -1.7671300888e+01
    1.0789891052e+02   -1.7729000092e+01
    1.0799890900e+02   -1.7786800385e+01
    1.0809889984e+02   -1.7844699860e+01
    1.0819889832e+02   -1.7902700424e+01
    1.0829891205e+02   -1.7960800171e+01
    1.0839891052e+02   -1.8018999100e+01
    1.0849890900e+02   -1.8077299118e+01
    1.0859889221e+02   -1.8135700226e+01
    1.0869889832e+02   -1.8194299698e+01
    1.0879888916e+02   -1.8252899170e+01
    1.0889890289e+02   -1.8311599731e+01
    1.0899890900e+02   -1.8370500565e+01
    1.0909889221e+02   -1.8429399490e+01
    1.0919889832e+02   -1.8488500595e+01
    1.0929889679e+02   -1.8547700882e+01
    1.0939888763e+02   -1.8607099533e+01
    1.0949887848e+02   -1.8666500092e+01
    1.0959887695e+02   -1.8725999832e+01
    1.0969888306e+02   -1.8785699844e+01
    1.0979888916e+02   -1.8845500946e+01
    1.0989888763e+02   -1.8905399323e+01
    1.0999887085e+02   -1.8965400696e+01
    1.1009887695e+02   -1.9025499344e+01
    1.1019886780e+02   -1.9085800171e+01
    1.1029888916e+02   -1.9146099091e+01
    1.1039888763e+02   -1.9206600189e+01
    1.1049887848e+02   -1.9267099380e+01
    1.1059886169e+02   -1.9327800751e+01
    1.1069888306e+02   -1.9388599396e+01
    1.1079885864e+02   -1.9449399948e+01
    1.1089885712e+02   -1.9510400772e+01
    1.1099886322e+02   -1.9571500778e+01
    1.1109886169e+02   -1.9632699966e+01
    1.1119886017e+02   -1.9694099426e+01
    1.1129885101e+02   -1.9755500793e+01
    1.1139887238e+02   -1.9817100525e+01
    1.1149886322e+02   -1.9878700256e+01
    1.1159886932e+02   -1.9940500259e+01
    1.1169886017e+02   -2.0002399445e+01
    1.1179885864e+02   -2.0064399719e+01
    1.1189884949e+02   -2.0126499176e+01
    1.1199884796e+02   -2.0188699722e+01
    1.1209884644e+02   -2.0250999451e+01
    1.1219886017e+02   -2.0313499451e+01
    1.1229885101e+02   -2.0375999451e+01
    1.1239884186e+02   -2.0438699722e+01
    1.1249884033e+02   -2.0501499176e+01
    1.1259883881e+02   -2.0564399719e+01
    1.1269883728e+02   -2.0627500534e+01
    1.1279882812e+02   -2.0690700531e+01
    1.1289884186e+02   -2.0754199982e+01
    1.1299881744e+02   -2.0817699432e+01
    1.1309882355e+02   -2.0881399155e+01
    1.1319882965e+02   -2.0945299149e+01
    1.1329884338e+02   -2.1009300232e+01
    1.1339881897e+02   -2.1073499680e+01
    1.1349881744e+02   -2.1137800217e+01
    1.1359882355e+02   -2.1202199936e+01
    1.1369882965e+02   -2.1266799927e+01
    1.1379882812e+02   -2.1331499100e+01
    1.1389881897e+02   -2.1396400452e+01
    1.1399881744e+02   -2.1461299896e+01
    1.1409882355e+02   -2.1526399612e+01
    1.1419880676e+02   -2.1591699600e+01
    1.1429879761e+02   -2.1657100677e+01
    1.1439881897e+02   -2.1722700119e+01
    1.1449880981e+02   -2.1788400650e+01
    1.1459882355e+02   -2.1854200363e+01
    1.1469882202e+02   -2.1920200348e+01
    1.1479882050e+02   -2.1986200333e+01
    1.1489881134e+02   -2.2052499771e+01
    1.1499881744e+02   -2.2118900299e+01
    1.1509880829e+02   -2.2185400009e+01
    1.1519879913e+02   -2.2252099991e+01
    1.1529879761e+02   -2.2319000244e+01
    1.1539881134e+02   -2.2385999680e+01
    1.1549880981e+02   -2.2453199387e+01
    1.1559879303e+02   -2.2520500183e+01
    1.1569879150e+02   -2.2587900162e+01
    1.1579879761e+02   -2.2655500412e+01
    1.1589878845e+02   -2.2723300934e+01
    1.1599880219e+02   -2.2791200638e+01
    1.1609879303e+02   -2.2859300613e+01
    1.1619879913e+02   -2.2927499771e+01
    1.1629878998e+02   -2.2995899200e+01
    1.1639878082e+02   -2.3064399719e+01
    1.1649878693e+02   -2.3132999420e+01
    1.1659877777e+02   -2.3201799393e+01
    1.1669879150e+02   -2.3270700455e+01
    1.1679876709e+02   -2.3339799881e+01
    1.1689878845e+02   -2.3409000397e+01
    1.1699877930e+02   -2.3478399277e+01
    1.1709877777e+02   -2.3547899246e+01
    1.1719877625e+02   -2.3617500305e+01
    1.1729876709e+02   -2.3687299728e+01
    1.1739875793e+02   -2.3757299423e+01
    1.1749877930e+02   -2.3827400208e+01
    1.1759874725e+02   -2.3897600174e+01
    1.1769875336e+02   -2.3968000412e+01
    1.1779876709e+02   -2.4038600922e+01
    1.1789875793e+02   -2.4109300613e+01
    1.1799877167e+02   -2.4180099487e+01
    1.1809874725e+02   -2.4251100540e+01
    1.1819875336e+02   -2.4322200775e+01
    1.1829875183e+02   -2.4393299103e+01
    1.1839875793e+02   -2.4464700699e+01
    1.1849874878e+02   -2.4536100388e+01
    1.1859874725e+02   -2.4607599258e+01
    1.1869873810e+02   -2.4679199219e+01
    1.1879875183e+02   -2.4750900269e+01
    1.1889875031e+02   -2.4822799683e+01
    1.1899874878e+02   -2.4894800186e+01
    1.1909873962e+02   -2.4966800690e+01
    1.1919873047e+02   -2.5038999557e+01
    1.1929873657e+02   -2.5111400604e+01
    1.1939875031e+02   -2.5183799744e+01
    1.1949874115e+02   -2.5256399155e+01
    1.1959871674e+02   -2.5329099655e+01
    1.1969873047e+02   -2.5401899338e+01
    1.1979872131e+02   -2.5474899292e+01
    1.1989871979e+02   -2.5547899246e+01
    1.1999871826e+02   -2.5621099472e+01
    1.2009871674e+02   -2.5694400787e+01
    1.2019873047e+02   -2.5767799377e+01
    1.2029872131e+02   -2.5841299057e+01
    1.2039872742e+02   -2.5914899826e+01
    1.2049871826e+02   -2.5988700867e+01
    1.2059873199e+02   -2.6062500000e+01
    1.2069873047e+02   -2.6136499405e+01
    1.2079871368e+02   -2.6210599899e+01
    1.2089869690e+02   -2.6284700394e+01
    1.2099871826e+02   -2.6358999252e+01
    1.2109870911e+02   -2.6433500290e+01
    1.2119869995e+02   -2.6507999420e+01
    1.2129869843e+02   -2.6582599640e+01
    1.2139869690e+02   -2.6657400131e+01
    1.2149871063e+02   -2.6732200623e+01
    1.2159870148e+02   -2.6807199478e+01
    1.2169869995e+02   -2.6882299423e+01
    1.2179869080e+02   -2.6957500458e+01
    1.2189869690e+02   -2.7032899857e+01
    1.2199870300e+02   -2.7108299255e+01
    1.2209870148e+02   -2.7183799744e+01
    1.2219869232e+02   -2.7259500504e+01
    1.2229869843e+02   -2.7335199356e+01
    1.2239868927e+02   -2.7411100388e+01
    1.2249868774e+02   -2.7487199783e+01
    1.2259868622e+02   -2.7563400269e+01
    1.2269866943e+02   -2.7639699936e+01
    1.2279868317e+02   -2.7716199875e+01
    1.2289866638e+02   -2.7792800903e+01
    1.2299867249e+02   -2.7869600296e+01
    1.2309868622e+02   -2.7946599960e+01
    1.2319867706e+02   -2.8023700714e+01
    1.2329866791e+02   -2.8100999832e+01
    1.2339868164e+02   -2.8178400040e+01
    1.2349867249e+02   -2.8256000519e+01
    1.2359867859e+02   -2.8333799362e+01
    1.2369866943e+02   -2.8411600113e+01
    1.2379866791e+02   -2.8489599228e+01
    1.2389865875e+02   -2.8567699432e+01
    1.2399864960e+02   -2.8645900726e+01
    1.2409866333e+02   -2.8724399567e+01
    1.2419866180e+02   -2.8802900314e+01
    1.2429865265e+02   -2.8881599426e+01
    1.2439865875e+02   -2.8960500717e+01
    1.2449864960e+02   -2.9039499283e+01
    1.2459867096e+02   -2.9118600845e+01
    1.2469864655e+02   -2.9197900772e+01
    1.2479863739e+02   -2.9277200699e+01
    1.2489865875e+02   -2.9356800079e+01
    1.2499864960e+02   -2.9436500549e+01
    1.2509866333e+02   -2.9516399384e+01
    1.2519863892e+02   -2.9596300125e+01
    1.2529866028e+02   -2.9676500320e+01
    1.2539865112e+02   -2.9756799698e+01
    1.2549864960e+02   -2.9837299347e+01
    1.2559863281e+02   -2.9917900085e+01
    1.2569863129e+02   -2.9998600006e+01
    1.2579865265e+02   -3.0079599380e+01
    1.2589862823e+02   -3.0160600662e+01
    1.2599862671e+02   -3.0241800308e+01
    1.2609864044e+02   -3.0323200226e+01
    1.2619863892e+02   -3.0404699326e+01
    1.2629862976e+02   -3.0486400604e+01
    1.2639862823e+02   -3.0568099976e+01
    1.2649864197e+02   -3.0649999619e+01
    1.2659861755e+02   -3.0732099533e+01
    1.2669863129e+02   -3.0814300537e+01
    1.2679862976e+02   -3.0896600723e+01
    1.2689861298e+02   -3.0979099274e+01
    1.2699861908e+02   -3.1061700821e+01
    1.2709860992e+02   -3.1144500732e+01
    1.2719860840e+02   -3.1227399826e+01
    1.2729860687e+02   -3.1310400009e+01
    1.2739861298e+02   -3.1393600464e+01
    1.2749859619e+02   -3.1476999283e+01
    1.2759860992e+02   -3.1560499191e+01
    1.2769862366e+02   -3.1644100189e+01
    1.2779859924e+02   -3.1727899551e+01
    1.2789859772e+02   -3.1811800003e+01
    1.2799861145e+02   -3.1895799637e+01
    1.2809858704e+02   -3.1979999542e+01
    1.2819859314e+02   -3.2064300537e+01
    1.2829861450e+02   -3.2148601532e+01
    1.2839860535e+02   -3.2233100891e+01
    1.2849859619e+02   -3.2317699432e+01
    1.2859861755e+02   -3.2402301788e+01
    1.2869862366e+02   -3.2487098694e+01
    1.2879862976e+02   -3.2571998596e+01
    1.2889865112e+02   -3.2657001495e+01
    1.2899864197e+02   -3.2742099762e+01
    1.2909866333e+02   -3.2827301025e+01
    1.2919865417e+02   -3.2912601471e+01
    1.2929866028e+02   -3.2998001099e+01
    1.2939868164e+02   -3.3083599091e+01
    1.2949867249e+02   -3.3169200897e+01
    1.2959867859e+02   -3.3255001068e+01
    1.2969868469e+02   -3.3340900421e+01
    1.2979870605e+02   -3.3426898956e+01
    1.2989871216e+02   -3.3513000488e+01
    1.2999870300e+02   -3.3599201202e+01
    1.3009870911e+02   -3.3685501099e+01
    1.3019873047e+02   -3.3771900177e+01
    1.3029872131e+02   -3.3858398438e+01
    1.3039872742e+02   -3.3945098877e+01
    1.3049873352e+02   -3.4031799316e+01
    1.3059875488e+02   -3.4118598938e+01
    1.3069874573e+02   -3.4205600739e+01
    1.3079876709e+02   -3.4292598724e+01
    1.3089877319e+02   -3.4379699707e+01
    1.3099877930e+02   -3.4466899872e+01
    1.3109878540e+02   -3.4554298401e+01
    1.3119879150e+02   -3.4641700745e+01
    1.3129878235e+02   -3.4729198456e+01
    1.3139880371e+02   -3.4816898346e+01
    1.3149879456e+02   -3.4904598236e+01
    1.3159880066e+02   -3.4992500305e+01
    1.3169882202e+02   -3.5080501556e+01
    1.3179881287e+02   -3.5168598175e+01
    1.3189883423e+02   -3.5256698608e+01
    1.3199884033e+02   -3.5345001221e+01
    1.3209883118e+02   -3.5433300018e+01
    1.3219883728e+02   -3.5521800995e+01
    1.3229884338e+02   -3.5610401154e+01
    1.3239886475e+02   -3.5699199677e+01
    1.3249885559e+02   -3.5787998199e+01
    1.3259886169e+02   -3.5876998901e+01
    1.3269888306e+02   -3.5966098785e+01
    1.3279887390e+02   -3.6055400848e+01
    1.3289888000e+02   -3.6144798279e+01
    1.3299888611e+02   -3.6234298706e+01
    1.3309889221e+02   -3.6324001312e+01
    1.3319889832e+02   -3.6413898468e+01
    1.3329890442e+02   -3.6503898621e+01
    1.3339892578e+02   -3.6594100952e+01
    1.3349891663e+02   -3.6684398651e+01
    1.3359893799e+02   -3.6774799347e+01
    1.3369894409e+02   -3.6865398407e+01
    1.3379893494e+02   -3.6956001282e+01
    1.3389895630e+02   -3.7046798706e+01
    1.3399896240e+02   -3.7137699127e+01
    1.3409895325e+02   -3.7228801727e+01
    1.3419895935e+02   -3.7319999695e+01
    1.3429896545e+02   -3.7411399841e+01
    1.3439898682e+02   -3.7502799988e+01
    1.3449896240e+02   -3.7594398499e+01
    1.3459899902e+02   -3.7686199188e+01
    1.3469898987e+02   -3.7777999878e+01
    1.3479899597e+02   -3.7869998932e+01
    1.3489901733e+02   -3.7962100983e+01
    1.3499902344e+02   -3.8054298401e+01
    1.3509901428e+02   -3.8146701813e+01
    1.3519903564e+02   -3.8239200592e+01
    1.3529902649e+02   -3.8331901550e+01
    1.3539903259e+02   -3.8424701691e+01
    1.3549905396e+02   -3.8517700195e+01
    1.3559906006e+02   -3.8610698700e+01
    1.3569905090e+02   -3.8703899384e+01
    1.3579905701e+02   -3.8797298431e+01
    1.3589906311e+02   -3.8890800476e+01
    1.3599906921e+02   -3.8984298706e+01
    1.3609909058e+02   -3.9078098297e+01
    1.3619909668e+02   -3.9171798706e+01
    1.3629908752e+02   -3.9265598297e+01
    1.3639909363e+02   -3.9359401703e+01
    1.3649911499e+02   -3.9453201294e+01
    1.3659910583e+02   -3.9547000885e+01
    1.3669911194e+02   -3.9640800476e+01
    1.3679913330e+02   -3.9734600067e+01
    1.3689912415e+02   -3.9828399658e+01
    1.3699914551e+02   -3.9922199249e+01
    1.3709913635e+02   -4.0015998840e+01
    1.3719914246e+02   -4.0109699249e+01
    1.3729914856e+02   -4.0203498840e+01
    1.3739915466e+02   -4.0297401428e+01
    1.3749917603e+02   -4.0391300201e+01
    1.3759916687e+02   -4.0485298157e+01
    1.3769917297e+02   -4.0579399109e+01
    1.3779919434e+02   -4.0673698425e+01
    1.3789918518e+02   -4.0767898560e+01
    1.3799920654e+02   -4.0862400055e+01
    1.3809919739e+02   -4.0956798553e+01
    1.3819920349e+02   -4.1051399231e+01
    1.3829922485e+02   -4.1146099091e+01
    1.3839921570e+02   -4.1240798950e+01
    1.3849922180e+02   -4.1335601807e+01
    1.3859921265e+02   -4.1430500031e+01
    1.3869923401e+02   -4.1525398254e+01
    1.3879924011e+02   -4.1620399475e+01
    1.3889926147e+02   -4.1715400696e+01
    1.3899926758e+02   -4.1810501099e+01
    1.3909925842e+02   -4.1905601501e+01
    1.3919926453e+02   -4.2000701904e+01
    1.3929928589e+02   -4.2095798492e+01
    1.3939927673e+02   -4.2191001892e+01
    1.3949928284e+02   -4.2286098480e+01
    1.3959930420e+02   -4.2381301880e+01
    1.3969929504e+02   -4.2476398468e+01
    1.3979930115e+02   -4.2571601868e+01
    1.3989930725e+02   -4.2666698456e+01
    1.3999931335e+02   -4.2761798859e+01
    1.4009930420e+02   -4.2856899261e+01
    1.4019932556e+02   -4.2952098846e+01
    1.4029933167e+02   -4.3047199249e+01
    1.4039933777e+02   -4.3142299652e+01
    1.4049935913e+02   -4.3237499237e+01
    1.4059934998e+02   -4.3332599640e+01
    1.4069935608e+02   -4.3427799225e+01
    1.4079937744e+02   -4.3522899628e+01
    1.4089935303e+02   -4.3618099213e+01
    1.4099937439e+02   -4.3713298798e+01
    1.4109938049e+02   -4.3808498383e+01
    1.4119938660e+02   -4.3903598785e+01
    1.4129939270e+02   -4.3998798370e+01
    1.4139939880e+02   -4.4093898773e+01
    1.4149940491e+02   -4.4188899994e+01
    1.4159942627e+02   -4.4284000397e+01
    1.4169941711e+02   -4.4378898621e+01
    1.4179942322e+02   -4.4473701477e+01
    1.4189944458e+02   -4.4568401337e+01
    1.4199943542e+02   -4.4662998199e+01
    1.4209945679e+02   -4.4757400513e+01
    1.4219946289e+02   -4.4851699829e+01
    1.4229945374e+02   -4.4945899963e+01
    1.4239947510e+02   -4.5040000916e+01
    1.4249948120e+02   -4.5133899689e+01
    1.4259947205e+02   -4.5227901459e+01
    1.4269949341e+02   -4.5321701050e+01
    1.4279949951e+02   -4.5415599823e+01
    1.4289949036e+02   -4.5509498596e+01
    1.4299951172e+02   -4.5603401184e+01
    1.4309950256e+02   -4.5697299957e+01
    1.4319952393e+02   -4.5791301727e+01
    1.4329953003e+02   -4.5885299683e+01
    1.4339953613e+02   -4.5979400635e+01
    1.4349954224e+02   -4.6073600769e+01
    1.4359953308e+02   -4.6167900085e+01
    1.4369955444e+02   -4.6262199402e+01
    1.4379956055e+02   -4.6356498718e+01
    1.4389956665e+02   -4.6450901031e+01
    1.4399957275e+02   -4.6545299530e+01
    1.4409956360e+02   -4.6639801025e+01
    1.4419955444e+02   -4.6734199524e+01
    1.4429959106e+02   -4.6828701019e+01
    1.4439958191e+02   -4.6923000336e+01
    1.4449960327e+02   -4.7017299652e+01
    1.4459959412e+02   -4.7111499786e+01
    1.4469960022e+02   -4.7205600739e+01
    1.4479960632e+02   -4.7299598694e+01
    1.4489961243e+02   -4.7393398285e+01
    1.4499963379e+02   -4.7486999512e+01
    1.4509962463e+02   -4.7580600739e+01
    1.4519964600e+02   -4.7673999786e+01
    1.4529963684e+02   -4.7767200470e+01
    1.4539964294e+02   -4.7860401154e+01
    1.4549966431e+02   -4.7953399658e+01
    1.4559965515e+02   -4.8046298981e+01
    1.4569967651e+02   -4.8139099121e+01
    1.4579966736e+02   -4.8231800079e+01
    1.4589967346e+02   -4.8324401855e+01
    1.4599967957e+02   -4.8416900635e+01
    1.4609970093e+02   -4.8509300232e+01
    1.4619970703e+02   -4.8601699829e+01
    1.4629969788e+02   -4.8693901062e+01
    1.4639970398e+02   -4.8786098480e+01
    1.4649971008e+02   -4.8878200531e+01
    1.4659971619e+02   -4.8970199585e+01
    1.4669973755e+02   -4.9062198639e+01
    1.4679974365e+02   -4.9153999329e+01
    1.4689973450e+02   -4.9245800018e+01
    1.4699974060e+02   -4.9337398529e+01
    1.4709974670e+02   -4.9429000854e+01
    1.4719976807e+02   -4.9520401001e+01
    1.4729977417e+02   -4.9611801147e+01
    1.4739976501e+02   -4.9702999115e+01
    1.4749977112e+02   -4.9793998718e+01
    1.4759979248e+02   -4.9884998322e+01
    1.4769978333e+02   -4.9975898743e+01
    1.4779977417e+02   -5.0066600800e+01
    1.4789981079e+02   -5.0157299042e+01
    1.4799980164e+02   -5.0247798920e+01
    1.4809982300e+02   -5.0338199615e+01
    1.4819981384e+02   -5.0428501129e+01
    1.4829983521e+02   -5.0518699646e+01
    1.4839982605e+02   -5.0608798981e+01
    1.4849984741e+02   -5.0698799133e+01
    1.4859983826e+02   -5.0788700104e+01
    1.4869984436e+02   -5.0878501892e+01
    1.4879983521e+02   -5.0968200684e+01
    1.4889987183e+02   -5.1057800293e+01
    1.4899986267e+02   -5.1147399902e+01
    1.4909986877e+02   -5.1236801147e+01
    1.4919987488e+02   -5.1326099396e+01
    1.4929989624e+02   -5.1415401459e+01
    1.4939990234e+02   -5.1504501343e+01
    1.4949989319e+02   -5.1593399048e+01
    1.4959989929e+02   -5.1682201385e+01
    1.4969990540e+02   -5.1770801544e+01
    1.4979991150e+02   -5.1859199524e+01
    1.4989991760e+02   -5.1947299957e+01
    1.4999992371e+02   -5.2035301208e+01
    1.5009992981e+02   -5.2122898102e+01
    1.5019995117e+02   -5.2210399628e+01
    1.5029995728e+02   -5.2297599792e+01
    1.5039996338e+02   -5.2384498596e+01
    1.5049995422e+02   -5.2471199036e+01
    1.5059994507e+02   -5.2557701111e+01
    1.5069996643e+02   -5.2643901825e+01
    1.5079997253e+02   -5.2729999542e+01
    1.5089999390e+02   -5.2815898895e+01
    1.5099998474e+02   -5.2901599884e+01
    1.5110000610e+02   -5.2987098694e+01
    1.5119999695e+02   -5.3072498322e+01
    1.5130001831e+02   -5.3157699585e+01
    1.5140000916e+02   -5.3242801666e+01
    1.5150003052e+02   -5.3327800751e+01
    1.5160003662e+02   -5.3412601471e+01
    1.5170002747e+02   -5.3497398376e+01
    1.5180003357e+02   -5.3582000732e+01
    1.5190003967e+02   -5.3666400909e+01
    1.5200004578e+02   -5.3750701904e+01
    1.5210006714e+02   -5.3834899902e+01
    1.5220005798e+02   -5.3918899536e+01
    1.5230007935e+02   -5.4002700806e+01
    1.5240008545e+02   -5.4086399078e+01
    1.5250009155e+02   -5.4169898987e+01
    1.5260008240e+02   -5.4253299713e+01
    1.5270008850e+02   -5.4336601257e+01
    1.5280010986e+02   -5.4419700623e+01
    1.5290011597e+02   -5.4502700806e+01
    1.5300012207e+02   -5.4585498810e+01
    1.5310011292e+02   -5.4668300629e+01
    1.5320013428e+02   -5.4750900269e+01
    1.5330014038e+02   -5.4833400726e+01
    1.5340014648e+02   -5.4915798187e+01
    1.5350013733e+02   -5.4998001099e+01
    1.5360014343e+02   -5.5080101013e+01
    1.5370014954e+02   -5.5162101746e+01
    1.5380015564e+02   -5.5243900299e+01
    1.5390017700e+02   -5.5325599670e+01
    1.5400018311e+02   -5.5407199860e+01
    1.5410017395e+02   -5.5488601685e+01
    1.5420019531e+02   -5.5569999695e+01
    1.5430018616e+02   -5.5651100159e+01
    1.5440019226e+02   -5.5732200623e+01
    1.5450018311e+02   -5.5812999725e+01
    1.5460020447e+02   -5.5893699646e+01
    1.5470021057e+02   -5.5974098206e+01
    1.5480023193e+02   -5.6054401398e+01
    1.5490022278e+02   -5.6134498596e+01
    1.5500021362e+02   -5.6214298248e+01
    1.5510025024e+02   -5.6293998718e+01
    1.5520025635e+02   -5.6373500824e+01
    1.5530024719e+02   -5.6452701569e+01
    1.5540025330e+02   -5.6531799316e+01
    1.5550027466e+02   -5.6610698700e+01
    1.5560026550e+02   -5.6689399719e+01
    1.5570027161e+02   -5.6767898560e+01
    1.5580026245e+02   -5.6846199036e+01
    1.5590028381e+02   -5.6924400330e+01
    1.5600030518e+02   -5.7002498627e+01
    1.5610031128e+02   -5.7080299377e+01
    1.5620031738e+02   -5.7158100128e+01
    1.5630030823e+02   -5.7235698700e+01
    1.5640031433e+02   -5.7313098907e+01
    1.5650033569e+02   -5.7390499115e+01
    1.5660032654e+02   -5.7467700958e+01
    1.5670034790e+02   -5.7544898987e+01
    1.5680035400e+02   -5.7622001648e+01
    1.5690036011e+02   -5.7699001312e+01
    1.5700035095e+02   -5.7775901794e+01
    1.5710037231e+02   -5.7852699280e+01
    1.5720036316e+02   -5.7929401398e+01
    1.5730036926e+02   -5.8006000519e+01
    1.5740037537e+02   -5.8082500458e+01
    1.5750038147e+02   -5.8158901215e+01
    1.5760040283e+02   -5.8235099792e+01
    1.5770039368e+02   -5.8311298370e+01
    1.5780041504e+02   -5.8387298584e+01
    1.5790040588e+02   -5.8463199615e+01
    1.5800042725e+02   -5.8538898468e+01
    1.5810040283e+02   -5.8614398956e+01
    1.5820043945e+02   -5.8689899445e+01
    1.5830044556e+02   -5.8765098572e+01
    1.5840043640e+02   -5.8840099335e+01
    1.5850044250e+02   -5.8915000916e+01
    1.5860043335e+02   -5.8989700317e+01
    1.5870045471e+02   -5.9064201355e+01
    1.5880046082e+02   -5.9138599396e+01
    1.5890046692e+02   -5.9212799072e+01
    1.5900047302e+02   -5.9286899567e+01
    1.5910047913e+02   -5.9360801697e+01
    1.5920048523e+02   -5.9434600830e+01
    1.5930050659e+02   -5.9508201599e+01
    1.5940049744e+02   -5.9581699371e+01
    1.5950050354e+02   -5.9655101776e+01
    1.5960052490e+02   -5.9728298187e+01
    1.5970051575e+02   -5.9801399231e+01
    1.5980052185e+02   -5.9874298096e+01
    1.5990054321e+02   -5.9947101593e+01
    1.6000054932e+02   -6.0019699097e+01
    1.6010055542e+02   -6.0092201233e+01
    1.6020054626e+02   -6.0164501190e+01
    1.6030056763e+02   -6.0236801147e+01
    1.6040055847e+02   -6.0308799744e+01
    1.6050056458e+02   -6.0380798340e+01
    1.6060058594e+02   -6.0452598572e+01
    1.6070057678e+02   -6.0524299622e+01
    1.6080058289e+02   -6.0595901489e+01
    1.6090060425e+02   -6.0667400360e+01
    1.6100059509e+02   -6.0738700867e+01
    1.6110060120e+02   -6.0809898376e+01
    1.6120062256e+02   -6.0880901337e+01
    1.6130061340e+02   -6.0951900482e+01
    1.6140063477e+02   -6.1022800446e+01
    1.6150064087e+02   -6.1093601227e+01
    1.6160064697e+02   -6.1164398193e+01
    1.6170062256e+02   -6.1235000610e+01
    1.6180064392e+02   -6.1305599213e+01
    1.6190065002e+02   -6.1376201630e+01
    1.6200065613e+02   -6.1446601868e+01
    1.6210067749e+02   -6.1516998291e+01
    1.6220068359e+02   -6.1587299347e+01
    1.6230067444e+02   -6.1657501221e+01
    1.6240068054e+02   -6.1727600098e+01
    1.6250068665e+02   -6.1797698975e+01
    1.6260069275e+02   -6.1867801666e+01
    1.6270071411e+02   -6.1937801361e+01
    1.6280070496e+02   -6.2007701874e+01
    1.6290071106e+02   -6.2077598572e+01
    1.6300071716e+02   -6.2147499084e+01
    1.6310073853e+02   -6.2217300415e+01
    1.6320074463e+02   -6.2287101746e+01
    1.6330073547e+02   -6.2356800079e+01
    1.6340074158e+02   -6.2426498413e+01
    1.6350074768e+02   -6.2496101379e+01
    1.6360075378e+02   -6.2565700531e+01
    1.6370075989e+02   -6.2635299683e+01
    1.6380076599e+02   -6.2704700470e+01
    1.6390078735e+02   -6.2774200439e+01
    1.6400079346e+02   -6.2843601227e+01
    1.6410078430e+02   -6.2912899017e+01
    1.6420079041e+02   -6.2982299805e+01
    1.6430079651e+02   -6.3051601410e+01
    1.6440080261e+02   -6.3120800018e+01
    1.6450080872e+02   -6.3190101624e+01
    1.6460081482e+02   -6.3259300232e+01
    1.6470082092e+02   -6.3328399658e+01
    1.6480082703e+02   -6.3397598267e+01
    1.6490083313e+02   -6.3466701508e+01
    1.6500085449e+02   -6.3535701752e+01
    1.6510086060e+02   -6.3604801178e+01
    1.6520086670e+02   -6.3673900604e+01
    1.6530085754e+02   -6.3743000031e+01
    1.6540086365e+02   -6.3812000275e+01
    1.6550088501e+02   -6.3881099701e+01
    1.6560089111e+02   -6.3950298309e+01
    1.6570089722e+02   -6.4019401550e+01
    1.6580090332e+02   -6.4088500977e+01
    1.6590089417e+02   -6.4157699585e+01
    1.6600090027e+02   -6.4226898193e+01
    1.6610090637e+02   -6.4296096802e+01
    1.6620091248e+02   -6.4365303040e+01
    1.6630093384e+02   -6.4434501648e+01
    1.6640092468e+02   -6.4503700256e+01
    1.6650094604e+02   -6.4572998047e+01
    1.6660093689e+02   -6.4642196655e+01
    1.6670094299e+02   -6.4711601257e+01
    1.6680096436e+02   -6.4780899048e+01
    1.6690095520e+02   -6.4850303650e+01
    1.6700097656e+02   -6.4919700623e+01
    1.6710098267e+02   -6.4989097595e+01
    1.6720097351e+02   -6.5058601379e+01
    1.6730097961e+02   -6.5128097534e+01
    1.6740098572e+02   -6.5197601318e+01
    1.6750099182e+02   -6.5267196655e+01
    1.6760099792e+02   -6.5336799622e+01
    1.6770100403e+02   -6.5406501770e+01
    1.6780101013e+02   -6.5476196289e+01
    1.6790103149e+02   -6.5545997620e+01
    1.6800102234e+02   -6.5615798950e+01
    1.6810102844e+02   -6.5685600281e+01
    1.6820103455e+02   -6.5755500793e+01
    1.6830105591e+02   -6.5825500488e+01
    1.6840104675e+02   -6.5895500183e+01
    1.6850105286e+02   -6.5965499878e+01
    1.6860107422e+02   -6.6035499573e+01
    1.6870106506e+02   -6.6105598450e+01
    1.6880107117e+02   -6.6175796509e+01
    1.6890109253e+02   -6.6246002197e+01
    1.6900109863e+02   -6.6316200256e+01
    1.6910107422e+02   -6.6386497498e+01
    1.6920109558e+02   -6.6456802368e+01
    1.6930110168e+02   -6.6527198792e+01
    1.6940110779e+02   -6.6597702026e+01
    1.6950111389e+02   -6.6668197632e+01
    1.6960113525e+02   -6.6738800049e+01
    1.6970114136e+02   -6.6809402466e+01
    1.6980114746e+02   -6.6880096436e+01
    1.6990113831e+02   -6.6950798035e+01
    1.7000114441e+02   -6.7021598816e+01
    1.7010115051e+02   -6.7092498779e+01
    1.7020117188e+02   -6.7163398743e+01
    1.7030117798e+02   -6.7234497070e+01
    1.7040116882e+02   -6.7305496216e+01
    1.7050117493e+02   -6.7376701355e+01
    1.7060119629e+02   -6.7447998047e+01
    1.7070118713e+02   -6.7519302368e+01
    1.7080119324e+02   -6.7590698242e+01
    1.7090119934e+02   -6.7662101746e+01
    1.7100120544e+02   -6.7733703613e+01
    1.7110121155e+02   -6.7805297852e+01
    1.7120121765e+02   -6.7876899719e+01
    1.7130122375e+02   -6.7948699951e+01
    1.7140124512e+02   -6.8020599365e+01
    1.7150123596e+02   -6.8092498779e+01
    1.7160125732e+02   -6.8164596558e+01
    1.7170126343e+02   -6.8236701965e+01
    1.7180125427e+02   -6.8308998108e+01
    1.7190124512e+02   -6.8381401062e+01
    1.7200128174e+02   -6.8453796387e+01
    1.7210128784e+02   -6.8526397705e+01
    1.7220129395e+02   -6.8598999023e+01
    1.7230128479e+02   -6.8671699524e+01
    1.7240129089e+02   -6.8744499207e+01
    1.7250129700e+02   -6.8817398071e+01
    1.7260130310e+02   -6.8890502930e+01
    1.7270130920e+02   -6.8963600159e+01
    1.7280133057e+02   -6.9036903381e+01
    1.7290133667e+02   -6.9110298157e+01
    1.7300134277e+02   -6.9183898926e+01
    1.7310134888e+02   -6.9257598877e+01
    1.7320135498e+02   -6.9331497192e+01
    1.7330134583e+02   -6.9405502319e+01
    1.7340136719e+02   -6.9479598999e+01
    1.7350134277e+02   -6.9553901672e+01
    1.7360136414e+02   -6.9628303528e+01
    1.7370137024e+02   -6.9702903748e+01
    1.7380137634e+02   -6.9777603149e+01
    1.7390138245e+02   -6.9852500916e+01
    1.7400140381e+02   -6.9927497864e+01
    1.7410140991e+02   -7.0002700806e+01
    1.7420140076e+02   -7.0078002930e+01
    1.7430140686e+02   -7.0153503418e+01
    1.7440141296e+02   -7.0229103088e+01
    1.7450140381e+02   -7.0304801941e+01
    1.7460144043e+02   -7.0380699158e+01
    1.7470144653e+02   -7.0456596375e+01
    1.7480143738e+02   -7.0532699585e+01
    1.7490144348e+02   -7.0608802795e+01
    1.7500146484e+02   -7.0685096741e+01
    1.7510145569e+02   -7.0761497498e+01
    1.7520146179e+02   -7.0837997437e+01
    1.7530148315e+02   -7.0914596558e+01
    1.7540148926e+02   -7.0991302490e+01
    1.7550148010e+02   -7.1068199158e+01
    1.7560148621e+02   -7.1145202637e+01
    1.7570150757e+02   -7.1222297668e+01
    1.7580148315e+02   -7.1299598694e+01
    1.7590151978e+02   -7.1376998901e+01
    1.7600151062e+02   -7.1454498291e+01
    1.7610153198e+02   -7.1532203674e+01
    1.7620152283e+02   -7.1609901428e+01
    1.7630151367e+02   -7.1687797546e+01
    1.7640153503e+02   -7.1765899658e+01
    1.7650154114e+02   -7.1844100952e+01
    1.7660154724e+02   -7.1922401428e+01
    1.7670155334e+02   -7.2000801086e+01
    1.7680157471e+02   -7.2079498291e+01
    1.7690158081e+02   -7.2158203125e+01
    1.7700157166e+02   -7.2237098694e+01
    1.7710159302e+02   -7.2316101074e+01
    1.7720158386e+02   -7.2395202637e+01
    1.7730160522e+02   -7.2474502563e+01
    1.7740161133e+02   -7.2553802490e+01
    1.7750160217e+02   -7.2633300781e+01
    1.7760162354e+02   -7.2712997437e+01
    1.7770162964e+02   -7.2792701721e+01
    1.7780160522e+02   -7.2872596741e+01
    1.7790162659e+02   -7.2952598572e+01
    1.7800163269e+02   -7.3032699585e+01
    1.7810163879e+02   -7.3112998962e+01
    1.7820164490e+02   -7.3193298340e+01
    1.7830163574e+02   -7.3273803711e+01
    1.7840167236e+02   -7.3354400635e+01
    1.7850167847e+02   -7.3434997559e+01
    1.7860168457e+02   -7.3515800476e+01
    1.7870167542e+02   -7.3596603394e+01
    1.7880169678e+02   -7.3677597046e+01
    1.7890170288e+02   -7.3758598328e+01
    1.7900169373e+02   -7.3839698792e+01
    1.7910169983e+02   -7.3920898438e+01
    1.7920170593e+02   -7.4002197266e+01
    1.7930172729e+02   -7.4083602905e+01
    1.7940173340e+02   -7.4165199280e+01
    1.7950172424e+02   -7.4246696472e+01
    1.7960173035e+02   -7.4328300476e+01
    1.7970173645e+02   -7.4410102844e+01
    1.7980174255e+02   -7.4491798401e+01
    1.7990176392e+02   -7.4573699951e+01
    1.8000177002e+02   -7.4655601501e+01
    1.8010176086e+02   -7.4737503052e+01
    1.8020178223e+02   -7.4819503784e+01
    1.8030177307e+02   -7.4901603699e+01
    1.8040179443e+02   -7.4983802795e+01
    1.8050178528e+02   -7.5065902710e+01
    1.8060180664e+02   -7.5148200989e+01
    1.8070181274e+02   -7.5230499268e+01
    1.8080181885e+02   -7.5312797546e+01
    1.8090180969e+02   -7.5395202637e+01
    1.8100181580e+02   -7.5477600098e+01
    1.8110182190e+02   -7.5559997559e+01
    1.8120184326e+02   -7.5642501831e+01
    1.8130183411e+02   -7.5724998474e+01
    1.8140184021e+02   -7.5807601929e+01
    1.8150184631e+02   -7.5890296936e+01
    1.8160185242e+02   -7.5972999573e+01
    1.8170187378e+02   -7.6055801392e+01
    1.8180187988e+02   -7.6138603210e+01
    1.8190188599e+02   -7.6221496582e+01
    1.8200187683e+02   -7.6304397583e+01
    1.8210188293e+02   -7.6387397766e+01
    1.8220190430e+02   -7.6470397949e+01
    1.8230191040e+02   -7.6553497314e+01
    1.8240191650e+02   -7.6636596680e+01
    1.8250190735e+02   -7.6719703674e+01
    1.8260191345e+02   -7.6802803040e+01
    1.8270193481e+02   -7.6886001587e+01
    1.8280192566e+02   -7.6969200134e+01
    1.8290191650e+02   -7.7052497864e+01
    1.8300193787e+02   -7.7135803223e+01
    1.8310194397e+02   -7.7219200134e+01
    1.8320196533e+02   -7.7302497864e+01
    1.8330195618e+02   -7.7385902405e+01
    1.8340197754e+02   -7.7469299316e+01
    1.8350198364e+02   -7.7552803040e+01
    1.8360197449e+02   -7.7636199951e+01
    1.8370199585e+02   -7.7719703674e+01
    1.8380198669e+02   -7.7803100586e+01
    1.8390199280e+02   -7.7886497498e+01
    1.8400199890e+02   -7.7970001221e+01
    1.8410200500e+02   -7.8053398132e+01
    1.8420201111e+02   -7.8136901855e+01
    1.8430201721e+02   -7.8220397949e+01
    1.8440202332e+02   -7.8303802490e+01
    1.8450202942e+02   -7.8387298584e+01
    1.8460203552e+02   -7.8470703125e+01
    1.8470204163e+02   -7.8554000854e+01
    1.8480206299e+02   -7.8637397766e+01
    1.8490205383e+02   -7.8720596313e+01
    1.8500205994e+02   -7.8803901672e+01
    1.8510206604e+02   -7.8887001038e+01
    1.8520207214e+02   -7.8970199585e+01
    1.8530209351e+02   -7.9053298950e+01
    1.8540208435e+02   -7.9136299133e+01
    1.8550209045e+02   -7.9219398499e+01
    1.8560209656e+02   -7.9302299500e+01
    1.8570210266e+02   -7.9385200500e+01
    1.8580210876e+02   -7.9468101501e+01
    1.8590213013e+02   -7.9550903320e+01
    1.8600213623e+02   -7.9633697510e+01
    1.8610212708e+02   -7.9716400146e+01
    1.8620213318e+02   -7.9799003601e+01
    1.8630213928e+02   -7.9881599426e+01
    1.8640216064e+02   -7.9964103699e+01
    1.8650216675e+02   -8.0046501160e+01
    1.8660217285e+02   -8.0128799438e+01
    1.8670216370e+02   -8.0211097717e+01
    1.8680218506e+02   -8.0293296814e+01
    1.8690219116e+02   -8.0375503540e+01
    1.8700219727e+02   -8.0457496643e+01
    1.8710220337e+02   -8.0539497375e+01
    1.8720219421e+02   -8.0621299744e+01
    1.8730220032e+02   -8.0703002930e+01
    1.8740222168e+02   -8.0784698486e+01
    1.8750221252e+02   -8.0866203308e+01
    1.8760223389e+02   -8.0947601318e+01
    1.8770223999e+02   -8.1028900146e+01
    1.8780223083e+02   -8.1110099792e+01
    1.8790223694e+02   -8.1191200256e+01
    1.8800224304e+02   -8.1272102356e+01
    1.8810226440e+02   -8.1352897644e+01
    1.8820227051e+02   -8.1433601379e+01
    1.8830227661e+02   -8.1514099121e+01
    1.8840228271e+02   -8.1594497681e+01
    1.8850227356e+02   -8.1674697876e+01
    1.8860229492e+02   -8.1754798889e+01
    1.8870230103e+02   -8.1834701538e+01
    1.8880230713e+02   -8.1914398193e+01
    1.8890228271e+02   -8.1993896484e+01
    1.8900230408e+02   -8.2073303223e+01
    1.8910231018e+02   -8.2152496338e+01
    1.8920231628e+02   -8.2231597900e+01
    1.8930233765e+02   -8.2310501099e+01
    1.8940231323e+02   -8.2389099121e+01
    1.8950234985e+02   -8.2467697144e+01
    1.8960235596e+02   -8.2545997620e+01
    1.8970236206e+02   -8.2624198914e+01
    1.8980235291e+02   -8.2702102661e+01
    1.8990235901e+02   -8.2779800415e+01
    1.9000238037e+02   -8.2857398987e+01
    1.9010238647e+02   -8.2934700012e+01
    1.9020239258e+02   -8.3011901855e+01
    1.9030238342e+02   -8.3088798523e+01
    1.9040240479e+02   -8.3165603638e+01
    1.9050239563e+02   -8.3242202759e+01
    1.9060241699e+02   -8.3318496704e+01
    1.9070242310e+02   -8.3394699097e+01
    1.9080241394e+02   -8.3470596313e+01
    1.9090243530e+02   -8.3546302795e+01
    1.9100244141e+02   -8.3621696472e+01
    1.9110244751e+02   -8.3696899414e+01
    1.9120242310e+02   -8.3771896362e+01
    1.9130244446e+02   -8.3846603394e+01
    1.9140245056e+02   -8.3921096802e+01
    1.9150245667e+02   -8.3995399475e+01
    1.9160246277e+02   -8.4069503784e+01
    1.9170248413e+02   -8.4143302917e+01
    1.9180247498e+02   -8.4217002869e+01
    1.9190249634e+02   -8.4290298462e+01
    1.9200250244e+02   -8.4363403320e+01
    1.9210249329e+02   -8.4436302185e+01
    1.9220251465e+02   -8.4508903503e+01
    1.9230250549e+02   -8.4581298828e+01
    1.9240252686e+02   -8.4653396606e+01
    1.9250253296e+02   -8.4725196838e+01
    1.9260253906e+02   -8.4796798706e+01
    1.9270252991e+02   -8.4868103027e+01
    1.9280255127e+02   -8.4939201355e+01
    1.9290255737e+02   -8.5010002136e+01
    1.9300256348e+02   -8.5080596924e+01
    1.9310255432e+02   -8.5150802612e+01
    1.9320257568e+02   -8.5220901489e+01
    1.9330258179e+02   -8.5290603638e+01
    1.9340257263e+02   -8.5360099792e+01
    1.9350256348e+02   -8.5429298401e+01
    1.9360260010e+02   -8.5498199463e+01
    1.9370260620e+02   -8.5566902161e+01
    1.9380259705e+02   -8.5635299683e+01
    1.9390260315e+02   -8.5703399658e+01
    1.9400260925e+02   -8.5771202087e+01
    1.9410261536e+02   -8.5838699341e+01
    1.9420263672e+02   -8.5905998230e+01
    1.9430262756e+02   -8.5972999573e+01
    1.9440263367e+02   -8.6039596558e+01
[...]
    2.5130612183e+02   -7.6469802856e+01
    2.5140611267e+02   -7.6396400452e+01
    2.5150611877e+02   -7.6322700500e+01
    2.5160612488e+02   -7.6248703003e+01
    2.5170613098e+02   -7.6174499512e+01
    2.5180613708e+02   -7.6099998474e+01
    2.5190614319e+02   -7.6025199890e+01
    2.5200613403e+02   -7.5950202942e+01
    2.5210615540e+02   -7.5874801636e+01
    2.5220617676e+02   -7.5799201965e+01
    2.5230616760e+02   -7.5723197937e+01
    2.5240617371e+02   -7.5647003174e+01
    2.5250619507e+02   -7.5570503235e+01
    2.5260618591e+02   -7.5493797302e+01
    2.5270619202e+02   -7.5416702271e+01
    2.5280618286e+02   -7.5339302063e+01
    2.5290620422e+02   -7.5261703491e+01
    2.5300622559e+02   -7.5183700562e+01
    2.5310623169e+02   -7.5105499268e+01
    2.5320623779e+02   -7.5027000427e+01
    2.5330622864e+02   -7.4948196411e+01
    2.5340625000e+02   -7.4869003296e+01
    2.5350625610e+02   -7.4789596558e+01
    2.5360624695e+02   -7.4709899902e+01
    2.5370625305e+02   -7.4629798889e+01
    2.5380625916e+02   -7.4549400330e+01
    2.5390626526e+02   -7.4468803406e+01
    2.5400625610e+02   -7.4387802124e+01
    2.5410627747e+02   -7.4306396484e+01
    2.5420629883e+02   -7.4224800110e+01
    2.5430628967e+02   -7.4142898560e+01
    2.5440629578e+02   -7.4060600281e+01
    2.5450630188e+02   -7.3978103638e+01
    2.5460632324e+02   -7.3895202637e+01
    2.5470632935e+02   -7.3811897278e+01
    2.5480632019e+02   -7.3728401184e+01
    2.5490632629e+02   -7.3644500732e+01
    2.5500633240e+02   -7.3560401917e+01
    2.5510632324e+02   -7.3475898743e+01
    2.5520634460e+02   -7.3390998840e+01
    2.5530635071e+02   -7.3305801392e+01
    2.5540635681e+02   -7.3220298767e+01
    2.5550637817e+02   -7.3134498596e+01
    2.5560636902e+02   -7.3048301697e+01
    2.5570637512e+02   -7.2961898804e+01
    2.5580639648e+02   -7.2875000000e+01
    2.5590640259e+02   -7.2787902832e+01
    2.5600637817e+02   -7.2700401306e+01
    2.5610638428e+02   -7.2612602234e+01
    2.5620639038e+02   -7.2524398804e+01
    2.5630639648e+02   -7.2435997009e+01
    2.5640640259e+02   -7.2347099304e+01
    2.5650640869e+02   -7.2258003235e+01
    2.5660641479e+02   -7.2168502808e+01
    2.5670642090e+02   -7.2078697205e+01
    2.5680642700e+02   -7.1988502502e+01
    2.5690643311e+02   -7.1898002625e+01
    2.5700643921e+02   -7.1807098389e+01
    2.5710644531e+02   -7.1715896606e+01
    2.5720645142e+02   -7.1624397278e+01
    2.5730645752e+02   -7.1532501221e+01
    2.5740646362e+02   -7.1440299988e+01
    2.5750646973e+02   -7.1347702026e+01
    2.5760647583e+02   -7.1254798889e+01
    2.5770648193e+02   -7.1161598206e+01
    2.5780648804e+02   -7.1068000793e+01
    2.5790649414e+02   -7.0973999023e+01
    2.5800650024e+02   -7.0879798889e+01
    2.5810650635e+02   -7.0785102844e+01
    2.5820651245e+02   -7.0690101624e+01
    2.5830651855e+02   -7.0594802856e+01
    2.5840652466e+02   -7.0499099731e+01
    2.5850653076e+02   -7.0403099060e+01
    2.5860653687e+02   -7.0306701660e+01
    2.5870654297e+02   -7.0209999084e+01
    2.5880654907e+02   -7.0112899780e+01
    2.5890655518e+02   -7.0015403748e+01
    2.5900656128e+02   -6.9917602539e+01
    2.5910656738e+02   -6.9819503784e+01
    2.5920657349e+02   -6.9721000671e+01
    2.5930657959e+02   -6.9622100830e+01
    2.5940658569e+02   -6.9522903442e+01
    2.5950659180e+02   -6.9423400879e+01
    2.5960659790e+02   -6.9323501587e+01
    2.5970660400e+02   -6.9223197937e+01
    2.5980661011e+02   -6.9122596741e+01
    2.5990661621e+02   -6.9021598816e+01
    2.6000662231e+02   -6.8920303345e+01
    2.6010662842e+02   -6.8818603516e+01
    2.6020663452e+02   -6.8716598511e+01
    2.6030664062e+02   -6.8614196777e+01
    2.6040664673e+02   -6.8511398315e+01
    2.6050665283e+02   -6.8408302307e+01
    2.6060665894e+02   -6.8304901123e+01
    2.6070666504e+02   -6.8201103210e+01
    2.6080667114e+02   -6.8096900940e+01
    2.6090667725e+02   -6.7992401123e+01
    2.6100668335e+02   -6.7887496948e+01
    2.6110668945e+02   -6.7782203674e+01
    2.6120669556e+02   -6.7676597595e+01
    2.6130670166e+02   -6.7570701599e+01
    2.6140667725e+02   -6.7464401245e+01
    2.6150671387e+02   -6.7357696533e+01
    2.6160671997e+02   -6.7250701904e+01
    2.6170672607e+02   -6.7143302917e+01
    2.6180673218e+02   -6.7035598755e+01
    2.6190670776e+02   -6.6927497864e+01
    2.6200674438e+02   -6.6819099426e+01
    2.6210675049e+02   -6.6710296631e+01
    2.6220675659e+02   -6.6601196289e+01
    2.6230676270e+02   -6.6491699219e+01
    2.6240676880e+02   -6.6381797791e+01
    2.6250677490e+02   -6.6271598816e+01
    2.6260678101e+02   -6.6161102295e+01
    2.6270678711e+02   -6.6050201416e+01
    2.6280679321e+02   -6.5939002991e+01
    2.6290679932e+02   -6.5827400208e+01
    2.6300677490e+02   -6.5715499878e+01
    2.6310681152e+02   -6.5603302002e+01
    2.6320678711e+02   -6.5490699768e+01
    2.6330682373e+02   -6.5377799988e+01
    2.6340679932e+02   -6.5264602661e+01
    2.6350680542e+02   -6.5151100159e+01
    2.6360684204e+02   -6.5037200928e+01
    2.6370684814e+02   -6.4923103333e+01
    2.6380685425e+02   -6.4808601379e+01
    2.6390686035e+02   -6.4693801880e+01
    2.6400683594e+02   -6.4578697205e+01
    2.6410687256e+02   -6.4463203430e+01
    2.6420687866e+02   -6.4347396851e+01
    2.6430688477e+02   -6.4231300354e+01
    2.6440689087e+02   -6.4114898682e+01
    2.6450689697e+02   -6.3998100281e+01
    2.6460690308e+02   -6.3881099701e+01
    2.6470690918e+02   -6.3763801575e+01
    2.6480691528e+02   -6.3646099091e+01
    2.6490692139e+02   -6.3528099060e+01
    2.6500692749e+02   -6.3409900665e+01
    2.6510693359e+02   -6.3291301727e+01
    2.6520693970e+02   -6.3172401428e+01
    2.6530694580e+02   -6.3053199768e+01
    2.6540695190e+02   -6.2933700562e+01
    2.6550695801e+02   -6.2813899994e+01
    2.6560696411e+02   -6.2693801880e+01
    2.6570697021e+02   -6.2573398590e+01
    2.6580697632e+02   -6.2452701569e+01
    2.6590698242e+02   -6.2331600189e+01
    2.6600698853e+02   -6.2210399628e+01
    2.6610699463e+02   -6.2088798523e+01
    2.6620700073e+02   -6.1966800690e+01
    2.6630697632e+02   -6.1844600677e+01
    2.6640701294e+02   -6.1722099304e+01
    2.6650701904e+02   -6.1599300385e+01
    2.6660702515e+02   -6.1476200104e+01
    2.6670703125e+02   -6.1352798462e+01
    2.6680703735e+02   -6.1229198456e+01
    2.6690704346e+02   -6.1105201721e+01
    2.6700704956e+02   -6.0980998993e+01
    2.6710705566e+02   -6.0856498718e+01
    2.6720706177e+02   -6.0731700897e+01
    2.6730706787e+02   -6.0606601715e+01
    2.6740707397e+02   -6.0481300354e+01
    2.6750708008e+02   -6.0355701447e+01
    2.6760708618e+02   -6.0229801178e+01
    2.6770709229e+02   -6.0103698730e+01
    2.6780709839e+02   -5.9977401733e+01
    2.6790710449e+02   -5.9850799561e+01
    2.6800711060e+02   -5.9723899841e+01
    2.6810711670e+02   -5.9596801758e+01
    2.6820712280e+02   -5.9469501495e+01
    2.6830712891e+02   -5.9341899872e+01
    2.6840713501e+02   -5.9214000702e+01
    2.6850714111e+02   -5.9085899353e+01
    2.6860714722e+02   -5.8957698822e+01
    2.6870715332e+02   -5.8829101562e+01
    2.6880715942e+02   -5.8700298309e+01
    2.6890716553e+02   -5.8571201324e+01
    2.6900717163e+02   -5.8442001343e+01
    2.6910717773e+02   -5.8312400818e+01
    2.6920718384e+02   -5.8182701111e+01
    2.6930718994e+02   -5.8052700043e+01
    2.6940719604e+02   -5.7922500610e+01
    2.6950720215e+02   -5.7791999817e+01
    2.6960720825e+02   -5.7661399841e+01
    2.6970721436e+02   -5.7530498505e+01
    2.6980722046e+02   -5.7399398804e+01
    2.6990722656e+02   -5.7268100739e+01
    2.7000723267e+02   -5.7136699677e+01
    2.7010723877e+02   -5.7005001068e+01
    2.7020724487e+02   -5.6873100281e+01
    2.7030725098e+02   -5.6741100311e+01
    2.7040722656e+02   -5.6608798981e+01
    2.7050726318e+02   -5.6476398468e+01
    2.7060726929e+02   -5.6343700409e+01
    2.7070727539e+02   -5.6210899353e+01
    2.7080728149e+02   -5.6077899933e+01
    2.7090728760e+02   -5.5944698334e+01
    2.7100729370e+02   -5.5811298370e+01
    2.7110729980e+02   -5.5677799225e+01
    2.7120730591e+02   -5.5543998718e+01
    2.7130731201e+02   -5.5409999847e+01
    2.7140731812e+02   -5.5275901794e+01
    2.7150732422e+02   -5.5141601562e+01
    2.7160733032e+02   -5.5007099152e+01
    2.7170733643e+02   -5.4872398376e+01
    2.7180734253e+02   -5.4737499237e+01
    2.7190734863e+02   -5.4602500916e+01
    2.7200735474e+02   -5.4467399597e+01
    2.7210736084e+02   -5.4332000732e+01
    2.7220736694e+02   -5.4196498871e+01
    2.7230737305e+02   -5.4060798645e+01
    2.7240737915e+02   -5.3924999237e+01
    2.7250738525e+02   -5.3789001465e+01
    2.7260739136e+02   -5.3652900696e+01
    2.7270739746e+02   -5.3516601562e+01
    2.7280740356e+02   -5.3380199432e+01
    2.7290740967e+02   -5.3243598938e+01
    2.7300741577e+02   -5.3106899261e+01
    2.7310742188e+02   -5.2970100403e+01
    2.7320742798e+02   -5.2833000183e+01
    2.7330743408e+02   -5.2695899963e+01
    2.7340744019e+02   -5.2558601379e+01
    2.7350741577e+02   -5.2421199799e+01
    2.7360745239e+02   -5.2283599854e+01
    2.7370745850e+02   -5.2145801544e+01
    2.7380746460e+02   -5.2007999420e+01
    2.7390747070e+02   -5.1869998932e+01
    2.7400747681e+02   -5.1731899261e+01
    2.7410748291e+02   -5.1593601227e+01
    2.7420748901e+02   -5.1455200195e+01
    2.7430749512e+02   -5.1316699982e+01
    2.7440750122e+02   -5.1178100586e+01
    2.7450750732e+02   -5.1039398193e+01
    2.7460751343e+02   -5.0900600433e+01
    2.7470751953e+02   -5.0761699677e+01
    2.7480752563e+02   -5.0622699738e+01
    2.7490753174e+02   -5.0483600616e+01
    2.7500753784e+02   -5.0344299316e+01
    2.7510754395e+02   -5.0205001831e+01
    2.7520755005e+02   -5.0065601349e+01
    2.7530755615e+02   -4.9926101685e+01
    2.7540756226e+02   -4.9786598206e+01
    2.7550756836e+02   -4.9646900177e+01
    2.7560757446e+02   -4.9507099152e+01
    2.7570758057e+02   -4.9367298126e+01
    2.7580758667e+02   -4.9227298737e+01
    2.7590759277e+02   -4.9087299347e+01
    2.7600759888e+02   -4.8947200775e+01
    2.7610760498e+02   -4.8806999207e+01
    2.7620761108e+02   -4.8666698456e+01
    2.7630761719e+02   -4.8526401520e+01
    2.7640762329e+02   -4.8386001587e+01
    2.7650762939e+02   -4.8245498657e+01
    2.7660763550e+02   -4.8104999542e+01
    2.7670764160e+02   -4.7964401245e+01
    2.7680764771e+02   -4.7823799133e+01
    2.7690765381e+02   -4.7683101654e+01
    2.7700765991e+02   -4.7542499542e+01
    2.7710766602e+02   -4.7401699066e+01
    2.7720767212e+02   -4.7260799408e+01
    2.7730767822e+02   -4.7119899750e+01
    2.7740768433e+02   -4.6978900909e+01
    2.7750769043e+02   -4.6837898254e+01
    2.7760769653e+02   -4.6696899414e+01
    2.7770770264e+02   -4.6555801392e+01
    2.7780770874e+02   -4.6414600372e+01
    2.7790771484e+02   -4.6273399353e+01
    2.7800772095e+02   -4.6132198334e+01
    2.7810772705e+02   -4.5990898132e+01
    2.7820773315e+02   -4.5849601746e+01
    2.7830770874e+02   -4.5708301544e+01
    2.7840774536e+02   -4.5566898346e+01
    2.7850775146e+02   -4.5425598145e+01
    2.7860775757e+02   -4.5284198761e+01
    2.7870776367e+02   -4.5142700195e+01
    2.7880776978e+02   -4.5001300812e+01
    2.7890774536e+02   -4.4859901428e+01
    2.7900778198e+02   -4.4718399048e+01
    2.7910775757e+02   -4.4576900482e+01
    2.7920779419e+02   -4.4435398102e+01
    2.7930780029e+02   -4.4293899536e+01
    2.7940780640e+02   -4.4152400970e+01
    2.7950781250e+02   -4.4010799408e+01
    2.7960781860e+02   -4.3869300842e+01
    2.7970782471e+02   -4.3727798462e+01
    2.7980783081e+02   -4.3586200714e+01
    2.7990783691e+02   -4.3444698334e+01
    2.8000784302e+02   -4.3303199768e+01
    2.8010784912e+02   -4.3161598206e+01
    2.8020785522e+02   -4.3020099640e+01
    2.8030786133e+02   -4.2878601074e+01
    2.8040786743e+02   -4.2737098694e+01
    2.8050787354e+02   -4.2595699310e+01
    2.8060787964e+02   -4.2454299927e+01
    2.8070788574e+02   -4.2312801361e+01
    2.8080789185e+02   -4.2171501160e+01
    2.8090789795e+02   -4.2030101776e+01
    2.8100790405e+02   -4.1888801575e+01
    2.8110791016e+02   -4.1747398376e+01
    2.8120791626e+02   -4.1606201172e+01
    2.8130792236e+02   -4.1465000153e+01
    2.8140792847e+02   -4.1323799133e+01
    2.8150793457e+02   -4.1182598114e+01
    2.8160794067e+02   -4.1041500092e+01
    2.8170794678e+02   -4.0900398254e+01
    2.8180795288e+02   -4.0759399414e+01
    2.8190795898e+02   -4.0618400574e+01
    2.8200796509e+02   -4.0477401733e+01
    2.8210797119e+02   -4.0336601257e+01
    2.8220794678e+02   -4.0195701599e+01
    2.8230798340e+02   -4.0054901123e+01
    2.8240798950e+02   -3.9914199829e+01
    2.8250799561e+02   -3.9773399353e+01
    2.8260800171e+02   -3.9632801056e+01
    2.8270800781e+02   -3.9492099762e+01
    2.8280801392e+02   -3.9351501465e+01
    2.8290802002e+02   -3.9210998535e+01
    2.8300802612e+02   -3.9070499420e+01
    2.8310803223e+02   -3.8930000305e+01
    2.8320803833e+02   -3.8789600372e+01
    2.8330804443e+02   -3.8649299622e+01
    2.8340805054e+02   -3.8508998871e+01
    2.8350805664e+02   -3.8368801117e+01
    2.8360806274e+02   -3.8228698730e+01
    2.8370806885e+02   -3.8088600159e+01
    2.8380807495e+02   -3.7948501587e+01
    2.8390808105e+02   -3.7808601379e+01
    2.8400808716e+02   -3.7668701172e+01
    2.8410809326e+02   -3.7528800964e+01
    2.8420809937e+02   -3.7388999939e+01
    2.8430810547e+02   -3.7249298096e+01
    2.8440811157e+02   -3.7109699249e+01
    2.8450811768e+02   -3.6970100403e+01
    2.8460812378e+02   -3.6830600739e+01
    2.8470812988e+02   -3.6691101074e+01
    2.8480813599e+02   -3.6551799774e+01
    2.8490814209e+02   -3.6412498474e+01
    2.8500814819e+02   -3.6273200989e+01
    2.8510815430e+02   -3.6134101868e+01
    2.8520816040e+02   -3.5994998932e+01
    2.8530816650e+02   -3.5855998993e+01
    2.8540817261e+02   -3.5717098236e+01
    2.8550817871e+02   -3.5578300476e+01
    2.8560818481e+02   -3.5439498901e+01
    2.8570819092e+02   -3.5300899506e+01
    2.8580819702e+02   -3.5162300110e+01
    2.8590820312e+02   -3.5023799896e+01
    2.8600820923e+02   -3.4885398865e+01
    2.8610821533e+02   -3.4747100830e+01
    2.8620822144e+02   -3.4608898163e+01
    2.8630822754e+02   -3.4470699310e+01
    2.8640823364e+02   -3.4332698822e+01
    2.8650823975e+02   -3.4194698334e+01
    2.8660824585e+02   -3.4056800842e+01
    2.8670825195e+02   -3.3919101715e+01
    2.8680825806e+02   -3.3781299591e+01
    2.8690826416e+02   -3.3643699646e+01
    2.8700827026e+02   -3.3506099701e+01
    2.8710827637e+02   -3.3368698120e+01
    2.8720828247e+02   -3.3231201172e+01
    2.8730828857e+02   -3.3093898773e+01
    2.8740829468e+02   -3.2956600189e+01
    2.8750830078e+02   -3.2819499969e+01
    2.8760830688e+02   -3.2682399750e+01
    2.8770831299e+02   -3.2545299530e+01
    2.8780831909e+02   -3.2408401489e+01
    2.8790832520e+02   -3.2271598816e+01
    2.8800833130e+02   -3.2134799957e+01
    2.8810833740e+02   -3.1998100281e+01
    2.8820834351e+02   -3.1861600876e+01
    2.8830834961e+02   -3.1725099564e+01
    2.8840835571e+02   -3.1588699341e+01
    2.8850836182e+02   -3.1452400208e+01
    2.8860836792e+02   -3.1316200256e+01
    2.8870837402e+02   -3.1180099487e+01
    2.8880838013e+02   -3.1044099808e+01
    2.8890838623e+02   -3.0908199310e+01
    2.8900839233e+02   -3.0772300720e+01
    2.8910839844e+02   -3.0636499405e+01
    2.8920840454e+02   -3.0500900269e+01
    2.8930841064e+02   -3.0365299225e+01
    2.8940841675e+02   -3.0229799271e+01
    2.8950842285e+02   -3.0094400406e+01
    2.8960839844e+02   -2.9959199905e+01
    2.8970843506e+02   -2.9823999405e+01
    2.8980844116e+02   -2.9688899994e+01
    2.8990844727e+02   -2.9553899765e+01
    2.9000845337e+02   -2.9419000626e+01
    2.9010845947e+02   -2.9284299850e+01
    2.9020843506e+02   -2.9149599075e+01
    2.9030847168e+02   -2.9015100479e+01
    2.9040847778e+02   -2.8880699158e+01
    2.9050848389e+02   -2.8746299744e+01
    2.9060848999e+02   -2.8612100601e+01
    2.9070849609e+02   -2.8478000641e+01
    2.9080850220e+02   -2.8343900681e+01
    2.9090850830e+02   -2.8210100174e+01
    2.9100851440e+02   -2.8076299667e+01
    2.9110852051e+02   -2.7942499161e+01
    2.9120852661e+02   -2.7808900833e+01
    2.9130853271e+02   -2.7675399780e+01
    2.9140853882e+02   -2.7541900635e+01
    2.9150854492e+02   -2.7408599854e+01
    2.9160855103e+02   -2.7275400162e+01
    2.9170855713e+02   -2.7142299652e+01
    2.9180856323e+02   -2.7009199142e+01
    2.9190856934e+02   -2.6876300812e+01
    2.9200857544e+02   -2.6743499756e+01
    2.9210858154e+02   -2.6610799789e+01
    2.9220858765e+02   -2.6478200912e+01
    2.9230859375e+02   -2.6345800400e+01
    2.9240859985e+02   -2.6213399887e+01
    2.9250860596e+02   -2.6081100464e+01
    2.9260861206e+02   -2.5948900223e+01
    2.9270861816e+02   -2.5816799164e+01
    2.9280862427e+02   -2.5684799194e+01
    2.9290863037e+02   -2.5552799225e+01
    2.9300863647e+02   -2.5420999527e+01
    2.9310864258e+02   -2.5289199829e+01
    2.9320864868e+02   -2.5157499313e+01
    2.9330865479e+02   -2.5025899887e+01
    2.9340866089e+02   -2.4894399643e+01
    2.9350866699e+02   -2.4763000488e+01
    2.9360867310e+02   -2.4631700516e+01
    2.9370867920e+02   -2.4500499725e+01
    2.9380868530e+02   -2.4369400024e+01
    2.9390869141e+02   -2.4238300323e+01
    2.9400869751e+02   -2.4107400894e+01
    2.9410870361e+02   -2.3976600647e+01
    2.9420870972e+02   -2.3845800400e+01
    2.9430871582e+02   -2.3715099335e+01
    2.9440872192e+02   -2.3584600449e+01
    2.9450872803e+02   -2.3454099655e+01
    2.9460873413e+02   -2.3323699951e+01
    2.9470874023e+02   -2.3193399429e+01
    2.9480874634e+02   -2.3063100815e+01
    2.9490875244e+02   -2.2933000565e+01
    2.9500875854e+02   -2.2802999496e+01
    2.9510876465e+02   -2.2673000336e+01
    2.9520877075e+02   -2.2543100357e+01
    2.9530877686e+02   -2.2413299561e+01
    2.9540878296e+02   -2.2283500671e+01
    2.9550878906e+02   -2.2153900146e+01
    2.9560879517e+02   -2.2024299622e+01
    2.9570880127e+02   -2.1894899368e+01
    2.9580880737e+02   -2.1765499115e+01
    2.9590881348e+02   -2.1636199951e+01
    2.9600881958e+02   -2.1506999969e+01
    2.9610882568e+02   -2.1377799988e+01
    2.9620883179e+02   -2.1248800278e+01
    2.9630883789e+02   -2.1119800568e+01
    2.9640884399e+02   -2.0990900040e+01
    2.9650885010e+02   -2.0862100601e+01
    2.9660885620e+02   -2.0733299255e+01
    2.9670886230e+02   -2.0604700089e+01
    2.9680886841e+02   -2.0476100922e+01
    2.9690887451e+02   -2.0347600937e+01
    2.9700888062e+02   -2.0219299316e+01
    2.9710888672e+02   -2.0090900421e+01
    2.9720889282e+02   -1.9962699890e+01
    2.9730889893e+02   -1.9834600449e+01
    2.9740890503e+02   -1.9706600189e+01
    2.9750891113e+02   -1.9578599930e+01
    2.9760888672e+02   -1.9450799942e+01
    2.9770892334e+02   -1.9322999954e+01
    2.9780892944e+02   -1.9195299149e+01
    2.9790890503e+02   -1.9067699432e+01
    2.9800894165e+02   -1.8940200806e+01
    2.9810894775e+02   -1.8812799454e+01
    2.9820895386e+02   -1.8685400009e+01
    2.9830895996e+02   -1.8558200836e+01
    2.9840893555e+02   -1.8431100845e+01
    2.9850897217e+02   -1.8304100037e+01
    2.9860897827e+02   -1.8177200317e+01
    2.9870898438e+02   -1.8050399780e+01
    2.9880899048e+02   -1.7923700333e+01
    2.9890899658e+02   -1.7797000885e+01
    2.9900900269e+02   -1.7670499802e+01
    2.9910900879e+02   -1.7544000626e+01
    2.9920901489e+02   -1.7417600632e+01
    2.9930902100e+02   -1.7291299820e+01
    2.9940902710e+02   -1.7165100098e+01
    2.9950903320e+02   -1.7038999557e+01
    2.9960903931e+02   -1.6912900925e+01
    2.9970904541e+02   -1.6786899567e+01
    2.9980905151e+02   -1.6660999298e+01
    2.9990905762e+02   -1.6535200119e+01
endcurve
