Curveplot
LS-DYNA keyword deck by LS-PrePost
Abscissa
Ordinate
XY data
CHOP_NASX_mo-1 #pts=3000
* Minval=     0.0000000000e+00 at time=         0.0000000000
* Maxval=     3.4118011475e+01 at time=       182.6019134521
    0.0000000000e+00    0.0000000000e+00
    9.9982611835e-02    1.5630299458e-03
    1.9998937845e-01    3.1265120488e-03
    2.9997533560e-01    4.6896249987e-03
    3.9998778701e-01    6.2531889416e-03
    4.9998745322e-01    7.8168222681e-03
    5.9997820854e-01    9.3800080940e-03
    6.9998013973e-01    1.0943409055e-02
    7.9997879267e-01    1.2507847510e-02
    8.9998644590e-01    1.4073111117e-02
    9.9999207258e-01    1.5636138618e-02
    1.0999804735e+00    1.7197696492e-02
    1.1999995708e+00    1.8758274615e-02
    1.2999824286e+00    2.0319318399e-02
    1.3999978304e+00    2.1881826222e-02
    1.4999972582e+00    2.3446291685e-02
    1.5999836922e+00    2.5013184175e-02
    1.6999758482e+00    2.6582235470e-02
    1.7999942303e+00    2.8154931962e-02
    1.8999974728e+00    2.9729092494e-02
    1.9999816418e+00    3.1304821372e-02
    2.0999867916e+00    3.2880280167e-02
    2.1999886036e+00    3.4456744790e-02
    2.2999877930e+00    3.6031641066e-02
    2.3999793530e+00    3.7605542690e-02
    2.4999806881e+00    3.9178758860e-02
    2.5999958515e+00    4.0751989931e-02
    2.6999797821e+00    4.2324081063e-02
    2.7999842167e+00    4.3893672526e-02
    2.8999984264e+00    4.5462172478e-02
    2.9999928474e+00    4.7028657049e-02
    3.0999886990e+00    4.8594806343e-02
    3.1999971867e+00    5.0157245249e-02
    3.2999744415e+00    5.1717378199e-02
    3.3999845982e+00    5.3275573999e-02
    3.4999895096e+00    5.4833222181e-02
    3.5999891758e+00    5.6389875710e-02
    3.6999917030e+00    5.7945508510e-02
    3.7999820709e+00    5.9501521289e-02
    3.8999779224e+00    6.1057079583e-02
    3.9999778271e+00    6.2613584101e-02
    4.0999832153e+00    6.4168944955e-02
    4.1999883652e+00    6.5726242959e-02
    4.2999901772e+00    6.7284092307e-02
    4.3999953270e+00    6.8841889501e-02
    4.4999747276e+00    7.0397883654e-02
    4.5999855995e+00    7.1954250336e-02
    4.6999740601e+00    7.3510766029e-02
    4.7999787331e+00    7.5064398348e-02
    4.8999800682e+00    7.6615907252e-02
    4.9999928474e+00    7.8164607286e-02
    5.0999736786e+00    7.9712890089e-02
    5.1999864578e+00    8.1260181963e-02
    5.2999849319e+00    8.2807078958e-02
    5.3999800682e+00    8.4351852536e-02
    5.4999814034e+00    8.5894718766e-02
    5.5999865532e+00    8.7435930967e-02
    5.6999816895e+00    8.8973209262e-02
    5.7999835014e+00    9.0510256588e-02
    5.8999786377e+00    9.2043302953e-02
    5.9999856949e+00    9.3574643135e-02
    6.0999760628e+00    9.5101431012e-02
    6.1999859810e+00    9.6626140177e-02
    6.2999730110e+00    9.8147921264e-02
    6.3999848366e+00    9.9669530988e-02
    6.4999895096e+00    1.0118776560e-01
    6.5999765396e+00    1.0270296037e-01
    6.6999945641e+00    1.0421885550e-01
    6.7999725342e+00    1.0573160648e-01
    6.8999905586e+00    1.0724454373e-01
    6.9999766350e+00    1.0875306278e-01
    7.0999908447e+00    1.1026034504e-01
    7.1999864578e+00    1.1176288873e-01
    7.2999901772e+00    1.1326298118e-01
    7.3999891281e+00    1.1475966871e-01
    7.4999928474e+00    1.1625345051e-01
    7.5999937057e+00    1.1774598807e-01
    7.6999754906e+00    1.1923368275e-01
    7.7999696732e+00    1.2071962655e-01
    7.8999733925e+00    1.2220254540e-01
    7.9999823570e+00    1.2368661910e-01
    8.0999841690e+00    1.2516425550e-01
    8.1999797821e+00    1.2664017081e-01
    8.2999763489e+00    1.2811318040e-01
    8.3999900818e+00    1.2958398461e-01
    8.4999818802e+00    1.3105292618e-01
    8.5999898911e+00    1.3252264261e-01
    8.6999826431e+00    1.3399207592e-01
    8.7999830246e+00    1.3545913994e-01
    8.8999948502e+00    1.3692612946e-01
    8.9999942780e+00    1.3839022815e-01
    9.0999965668e+00    1.3985386491e-01
    9.1999816895e+00    1.4131601155e-01
    9.2999858856e+00    1.4277891815e-01
    9.3999853134e+00    1.4423850179e-01
    9.4999780655e+00    1.4569664001e-01
    9.5999937057e+00    1.4715376496e-01
    9.6999883652e+00    1.4860665798e-01
    9.7999906540e+00    1.5005657077e-01
    9.8999910355e+00    1.5150389075e-01
    9.9999876022e+00    1.5294696391e-01
    1.0099982262e+01    1.5687529743e-01
    1.0199989319e+01    1.6080333292e-01
    1.0299994469e+01    1.6473071277e-01
    1.0399988174e+01    1.6865344346e-01
    1.0499996185e+01    1.7257311940e-01
    1.0599995613e+01    1.7649054527e-01
    1.0699992180e+01    1.8040393293e-01
    1.0800000191e+01    1.8431618810e-01
    1.0899995804e+01    1.8822906911e-01
    1.0999985695e+01    1.9213369489e-01
    1.1100003242e+01    1.9603526592e-01
    1.1199999809e+01    1.9993402064e-01
    1.1299988747e+01    2.0383092761e-01
    1.1399987221e+01    2.0772969723e-01
    1.1499982834e+01    2.1162898839e-01
    1.1600003242e+01    2.1553176641e-01
    1.1700003624e+01    2.1943460405e-01
    1.1800004959e+01    2.2334110737e-01
    1.1899992943e+01    2.2724725306e-01
    1.2000000954e+01    2.3115465045e-01
    1.2099992752e+01    2.3505741358e-01
    1.2200003624e+01    2.3895858228e-01
    1.2300004959e+01    2.4285443127e-01
    1.2399997711e+01    2.4674555659e-01
    1.2499990463e+01    2.5063386559e-01
    1.2599995613e+01    2.5451833010e-01
    1.2699999809e+01    2.5839701295e-01
    1.2799995422e+01    2.6226797700e-01
    1.2899995804e+01    2.6613712311e-01
    1.2999990463e+01    2.6999861002e-01
    1.3100006104e+01    2.7385559678e-01
    1.3200004578e+01    2.7770453691e-01
    1.3300004005e+01    2.8154698014e-01
    1.3399991035e+01    2.8538304567e-01
    1.3499997139e+01    2.8921428323e-01
    1.3600014687e+01    2.9304361343e-01
    1.3699992180e+01    2.9686644673e-01
    1.3799991608e+01    3.0068707466e-01
    1.3900001526e+01    3.0450347066e-01
    1.3999991417e+01    3.0831828713e-01
    1.4100013733e+01    3.1213107705e-01
    1.4199995995e+01    3.1593948603e-01
    1.4299995422e+01    3.1974652410e-01
    1.4400007248e+01    3.2354870439e-01
    1.4500001907e+01    3.2734510303e-01
    1.4599994659e+01    3.3113551140e-01
    1.4700014114e+01    3.3492299914e-01
    1.4799996376e+01    3.3869919181e-01
    1.4899997711e+01    3.4247019887e-01
    1.4999997139e+01    3.4623232484e-01
    1.5100004196e+01    3.4998908639e-01
    1.5200007439e+01    3.5373988748e-01
    1.5300016403e+01    3.5748568177e-01
    1.5400004387e+01    3.6122289300e-01
    1.5500002861e+01    3.6495497823e-01
    1.5600021362e+01    3.6868110299e-01
    1.5699999809e+01    3.7239950895e-01
    1.5800008774e+01    3.7611290812e-01
    1.5900000572e+01    3.7981709838e-01
    1.6000007629e+01    3.8351339102e-01
    1.6099998474e+01    3.8720038533e-01
    1.6200010300e+01    3.9088112116e-01
    1.6300018311e+01    3.9455682039e-01
    1.6400005341e+01    3.9822602272e-01
    1.6500007629e+01    4.0188899636e-01
    1.6600008011e+01    4.0554499626e-01
    1.6700021744e+01    4.0919589996e-01
    1.6800016403e+01    4.1284069419e-01
    1.6900024414e+01    4.1647800803e-01
    1.7000009537e+01    4.2010578513e-01
    1.7100006104e+01    4.2372649908e-01
    1.7200021744e+01    4.2733609676e-01
    1.7300024033e+01    4.3093779683e-01
    1.7400011063e+01    4.3453127146e-01
    1.7500028610e+01    4.3811631203e-01
    1.7600025177e+01    4.4169130921e-01
    1.7700023651e+01    4.4525811076e-01
    1.7800008774e+01    4.4881570339e-01
    1.7900011063e+01    4.5236870646e-01
    1.8000019073e+01    4.5591449738e-01
    1.8100013733e+01    4.5945197344e-01
    1.8200010300e+01    4.6298131347e-01
    1.8300008774e+01    4.6650600433e-01
    1.8400009155e+01    4.7002640367e-01
    1.8500017166e+01    4.7354069352e-01
    1.8600011826e+01    4.7704976797e-01
    1.8700017929e+01    4.8055416346e-01
    1.8800025940e+01    4.8405191302e-01
    1.8900026321e+01    4.8754391074e-01
    1.9000022888e+01    4.9103239179e-01
    1.9100019455e+01    4.9451598525e-01
    1.9200012207e+01    4.9799501896e-01
    1.9300035477e+01    5.0146824121e-01
    1.9400016785e+01    5.0493347645e-01
    1.9500034332e+01    5.0839257240e-01
    1.9600038528e+01    5.1184415817e-01
    1.9700035095e+01    5.1528757811e-01
    1.9800027847e+01    5.1872199774e-01
    1.9900022507e+01    5.2214813232e-01
    2.0000036240e+01    5.2556711435e-01
    2.0100036621e+01    5.3167021275e-01
    2.0200017929e+01    5.3776657581e-01
    2.0300018311e+01    5.4385721684e-01
    2.0400030136e+01    5.4994016886e-01
    2.0500038147e+01    5.5601644516e-01
    2.0600032806e+01    5.6208574772e-01
    2.0700014114e+01    5.6814861298e-01
    2.0800039291e+01    5.7420814037e-01
    2.0900030136e+01    5.8025890589e-01
    2.1000026703e+01    5.8629828691e-01
    2.1100042343e+01    5.9232896566e-01
    2.1200042725e+01    5.9834951162e-01
    2.1300025940e+01    6.0436558723e-01
    2.1400041580e+01    6.1037802696e-01
    2.1500026703e+01    6.1638563871e-01
    2.1600040436e+01    6.2239056826e-01
    2.1700025558e+01    6.2839007378e-01
    2.1800033569e+01    6.3438987732e-01
    2.1900030136e+01    6.4038479328e-01
    2.2000036240e+01    6.4637571573e-01
    2.2100032806e+01    6.5235507488e-01
    2.2200029373e+01    6.5832751989e-01
    2.2300027847e+01    6.6428673267e-01
    2.2400041580e+01    6.7023938894e-01
    2.2500047684e+01    6.7617917061e-01
    2.2600046158e+01    6.8210917711e-01
    2.2700035095e+01    6.8802392483e-01
    2.2800039291e+01    6.9392889738e-01
    2.2900045395e+01    6.9982397556e-01
    2.3000034332e+01    7.0570820570e-01
    2.3100030899e+01    7.1158277988e-01
    2.3200035095e+01    7.1744310856e-01
    2.3300041199e+01    7.2329258919e-01
    2.3400030136e+01    7.2912847996e-01
    2.3500028610e+01    7.3495614529e-01
    2.3600032806e+01    7.4076968431e-01
    2.3700038910e+01    7.4657332897e-01
    2.3800041199e+01    7.5236588717e-01
    2.3900028229e+01    7.5814831257e-01
    2.4000040054e+01    7.6392430067e-01
    2.4100051880e+01    7.6969093084e-01
    2.4200040817e+01    7.7544730902e-01
    2.4300050735e+01    7.8119522333e-01
    2.4400030136e+01    7.8692841530e-01
    2.4500043869e+01    7.9265117645e-01
    2.4600055695e+01    7.9836243391e-01
    2.4700054169e+01    8.0405759811e-01
    2.4800035477e+01    8.0973857641e-01
    2.4900039673e+01    8.1540524960e-01
    2.5000045776e+01    8.2105898857e-01
    2.5100034714e+01    8.2669961452e-01
    2.5200038910e+01    8.3232945204e-01
    2.5300041199e+01    8.3794540167e-01
    2.5400056839e+01    8.4355068207e-01
    2.5500036240e+01    8.4913998842e-01
    2.5600053787e+01    8.5471880436e-01
    2.5700044632e+01    8.6028450727e-01
    2.5800060272e+01    8.6583638191e-01
    2.5900041580e+01    8.7137210369e-01
    2.6000059128e+01    8.7689381838e-01
    2.6100048065e+01    8.8239711523e-01
    2.6200035095e+01    8.8788765669e-01
    2.6300058365e+01    8.9336842299e-01
    2.6400049210e+01    8.9883416891e-01
    2.6500062943e+01    9.0428692102e-01
    2.6600057602e+01    9.0972077847e-01
    2.6700044632e+01    9.1515696049e-01
    2.6800064087e+01    9.2056816816e-01
    2.6900058746e+01    9.2597806454e-01
    2.7000045776e+01    9.3136298656e-01
    2.7100059509e+01    9.3673098087e-01
    2.7200052261e+01    9.4209498167e-01
    2.7300050735e+01    9.4743394852e-01
    2.7400066376e+01    9.5276707411e-01
    2.7500049591e+01    9.5807504654e-01
    2.7600053787e+01    9.6336501837e-01
    2.7700063705e+01    9.6864998341e-01
    2.7800067902e+01    9.7391295433e-01
    2.7900051117e+01    9.7916203737e-01
    2.8000062943e+01    9.8440903425e-01
    2.8100057602e+01    9.8963201046e-01
    2.8200044632e+01    9.9484199286e-01
    2.8300067902e+01    1.0000479221e+00
    2.8400062561e+01    1.0052349567e+00
    2.8500049591e+01    1.0104209185e+00
    2.8600053787e+01    1.0155839920e+00
    2.8700052261e+01    1.0207350254e+00
    2.8800050735e+01    1.0258840322e+00
    2.8900072098e+01    1.0310109854e+00
    2.9000055313e+01    1.0361369848e+00
    2.9100069046e+01    1.0412430763e+00
    2.9200071335e+01    1.0463340282e+00
    2.9300071716e+01    1.0514260530e+00
    2.9400056839e+01    1.0564919710e+00
    2.9500068665e+01    1.0615550280e+00
    2.9600059509e+01    1.0665949583e+00
    2.9700065613e+01    1.0716190338e+00
    2.9800060272e+01    1.0766370296e+00
    2.9900056839e+01    1.0816290379e+00
    3.0000064850e+01    1.0866169930e+00
    3.0100061417e+01    1.0975710154e+00
    3.0200057983e+01    1.1085050106e+00
    3.0300077438e+01    1.1194329262e+00
    3.0400070190e+01    1.1303499937e+00
    3.0500070572e+01    1.1412500143e+00
    3.0600061417e+01    1.1521379948e+00
    3.0700071335e+01    1.1629999876e+00
    3.0800058365e+01    1.1738649607e+00
    3.0900074005e+01    1.1847119331e+00
    3.1000072479e+01    1.1955389977e+00
    3.1100072861e+01    1.2063440084e+00
    3.1200056076e+01    1.2171210051e+00
    3.1300062180e+01    1.2278989553e+00
    3.1400077820e+01    1.2386629581e+00
    3.1500062943e+01    1.2494249344e+00
    3.1600067139e+01    1.2601779699e+00
    3.1700059891e+01    1.2709209919e+00
    3.1800081253e+01    1.2816649675e+00
    3.1900064468e+01    1.2924050093e+00
    3.2000068665e+01    1.3031300306e+00
    3.2100074768e+01    1.3138389587e+00
    3.2200065613e+01    1.3245199919e+00
    3.2300067902e+01    1.3351889849e+00
    3.2400066376e+01    1.3458409309e+00
    3.2500049591e+01    1.3564620018e+00
    3.2600063324e+01    1.3670729399e+00
    3.2700054169e+01    1.3776580095e+00
    3.2800067902e+01    1.3882219791e+00
    3.2900054932e+01    1.3987629414e+00
    3.3000045776e+01    1.4092719555e+00
    3.3100055695e+01    1.4197670221e+00
    3.3200042725e+01    1.4302349091e+00
    3.3300052643e+01    1.4406789541e+00
    3.3400035858e+01    1.4510879517e+00
    3.3500045776e+01    1.4614859819e+00
    3.3600051880e+01    1.4718589783e+00
    3.3700054169e+01    1.4822139740e+00
    3.3800052643e+01    1.4925489426e+00
    3.3900035858e+01    1.5028569698e+00
    3.4000026703e+01    1.5131589174e+00
    3.4100025177e+01    1.5234450102e+00
    3.4200042725e+01    1.5337139368e+00
    3.4300037384e+01    1.5439559221e+00
    3.4400035858e+01    1.5541889668e+00
    3.4500022888e+01    1.5643990040e+00
    3.4600017548e+01    1.5745879412e+00
    3.4700019836e+01    1.5847409964e+00
    3.4800022125e+01    1.5948770046e+00
    3.4900016785e+01    1.6049859524e+00
    3.5000026703e+01    1.6150699854e+00
    3.5100013733e+01    1.6251199245e+00
    3.5200027466e+01    1.6351559162e+00
    3.5300014496e+01    1.6451679468e+00
    3.5400016785e+01    1.6551558971e+00
    3.5500019073e+01    1.6651179790e+00
    3.5600025177e+01    1.6750530005e+00
    3.5700000763e+01    1.6849548817e+00
    3.5799999237e+01    1.6948359013e+00
    3.5899997711e+01    1.7046890259e+00
    3.6000007629e+01    1.7145019770e+00
    3.6099998474e+01    1.7242970467e+00
    3.6200000763e+01    1.7340649366e+00
    3.6299995422e+01    1.7438080311e+00
    3.6400009155e+01    1.7535250187e+00
    3.6499992371e+01    1.7632060051e+00
    3.6600009918e+01    1.7728769779e+00
    3.6699996948e+01    1.7825241089e+00
    3.6799999237e+01    1.7921489477e+00
    3.6900001526e+01    1.8017450571e+00
    3.7000003815e+01    1.8113029003e+00
    3.7099990845e+01    1.8208401203e+00
    3.7199989319e+01    1.8303459883e+00
    3.7299987793e+01    1.8398211002e+00
    3.7399986267e+01    1.8492569923e+00
    3.7499988556e+01    1.8586720228e+00
    3.7599971771e+01    1.8680549860e+00
    3.7699981689e+01    1.8774080276e+00
    3.7799983978e+01    1.8867239952e+00
    3.7899967194e+01    1.8960270882e+00
    3.7999973297e+01    1.9052999020e+00
    3.8099964142e+01    1.9145480394e+00
    3.8199985504e+01    1.9237669706e+00
    3.8299980164e+01    1.9329550266e+00
    3.8399967194e+01    1.9421269894e+00
    3.8499958038e+01    1.9512780905e+00
    3.8599956512e+01    1.9603939056e+00
    3.8699954987e+01    1.9694970846e+00
    3.8799953461e+01    1.9785768986e+00
    3.8899951935e+01    1.9876360893e+00
    3.8999973297e+01    1.9966739416e+00
    3.9099952698e+01    2.0056781769e+00
    3.9199954987e+01    2.0146698952e+00
    3.9299949646e+01    2.0236339569e+00
    3.9399951935e+01    2.0325758457e+00
    3.9499950409e+01    2.0414791107e+00
    3.9599960327e+01    2.0503668785e+00
    3.9699939728e+01    2.0592200756e+00
    3.9799938202e+01    2.0680439472e+00
    3.9899955750e+01    2.0768339634e+00
    3.9999946594e+01    2.0855858326e+00
    4.0099952698e+01    2.1021127701e+00
    4.0199932098e+01    2.1185991764e+00
    4.0299934387e+01    2.1350610256e+00
    4.0399932861e+01    2.1514990330e+00
    4.0499946594e+01    2.1679170132e+00
    4.0599929810e+01    2.1842889786e+00
    4.0699935913e+01    2.2006468773e+00
    4.0799934387e+01    2.2169690132e+00
    4.0899940491e+01    2.2332739830e+00
    4.0999923706e+01    2.2495279312e+00
    4.1099941254e+01    2.2657549381e+00
    4.1199920654e+01    2.2819449902e+00
    4.1299938202e+01    2.2981169224e+00
    4.1399917603e+01    2.3142719269e+00
    4.1499916077e+01    2.3303930759e+00
    4.1599914551e+01    2.3465120792e+00
    4.1699909210e+01    2.3626029491e+00
    4.1799915314e+01    2.3786890507e+00
    4.1899906158e+01    2.3947429657e+00
    4.1999912262e+01    2.4107840061e+00
    4.2099914551e+01    2.4267888069e+00
    4.2199920654e+01    2.4427518845e+00
    4.2299915314e+01    2.4586861134e+00
    4.2399898529e+01    2.4745740891e+00
    4.2499912262e+01    2.4904360771e+00
    4.2599903107e+01    2.5062489510e+00
    4.2699897766e+01    2.5220298767e+00
    4.2799896240e+01    2.5377609730e+00
    4.2899894714e+01    2.5534658432e+00
    4.2999912262e+01    2.5691280365e+00
    4.3099899292e+01    2.5847411156e+00
    4.3199897766e+01    2.6003160477e+00
    4.3299884796e+01    2.6158390045e+00
    4.3399890900e+01    2.6313278675e+00
    4.3499885559e+01    2.6467678547e+00
    4.3599887848e+01    2.6621758938e+00
    4.3699882507e+01    2.6775400639e+00
    4.3799888611e+01    2.6928761005e+00
    4.3899887085e+01    2.7081799507e+00
    4.3999885559e+01    2.7234411240e+00
    4.4099876404e+01    2.7386789322e+00
    4.4199893951e+01    2.7538809776e+00
    4.4299877167e+01    2.7690408230e+00
    4.4399875641e+01    2.7841610909e+00
    4.4499866486e+01    2.7992491722e+00
    4.4599872589e+01    2.8142960072e+00
    4.4699871063e+01    2.8292860985e+00
    4.4799880981e+01    2.8442399502e+00
    4.4899871826e+01    2.8591318130e+00
    4.4999870300e+01    2.8739938736e+00
    4.5099857330e+01    2.8887991905e+00
    4.5199871063e+01    2.9035749435e+00
    4.5299873352e+01    2.9183039665e+00
    4.5399860382e+01    2.9329838753e+00
    4.5499858856e+01    2.9476280212e+00
    4.5599861145e+01    2.9622168541e+00
    4.5699859619e+01    2.9767749310e+00
    4.5799858093e+01    2.9912691116e+00
    4.5899864197e+01    3.0057280064e+00
    4.5999843597e+01    3.0201239586e+00
    4.6099842072e+01    3.0344870090e+00
    4.6199844360e+01    3.0487859249e+00
    4.6299846649e+01    3.0630609989e+00
    4.6399852753e+01    3.0772848129e+00
    4.6499851227e+01    3.0914580822e+00
    4.6599849701e+01    3.1055979729e+00
    4.6699836731e+01    3.1196889877e+00
    4.6799846649e+01    3.1337471008e+00
    4.6899833679e+01    3.1477448940e+00
    4.6999843597e+01    3.1617088318e+00
    4.7099842072e+01    3.1756138802e+00
    4.7199832916e+01    3.1894640923e+00
    4.7299846649e+01    3.2032630444e+00
    4.7399829865e+01    3.2170116901e+00
    4.7499835968e+01    3.2307069302e+00
    4.7599842072e+01    3.2443580627e+00
    4.7699832916e+01    3.2579460144e+00
    4.7799835205e+01    3.2714991570e+00
    4.7899829865e+01    3.2849979401e+00
    4.7999816895e+01    3.2984499931e+00
    4.8099815369e+01    3.3118667603e+00
    4.8199813843e+01    3.3252329826e+00
    4.8299823761e+01    3.3385500908e+00
    4.8399829865e+01    3.3518309593e+00
    4.8499805450e+01    3.3650701046e+00
    4.8599826813e+01    3.3782677650e+00
    4.8699821472e+01    3.3914330006e+00
    4.8799823761e+01    3.4045417309e+00
    4.8899803162e+01    3.4176139832e+00
    4.8999797821e+01    3.4306552410e+00
    4.9099803925e+01    3.4436540604e+00
    4.9199806213e+01    3.4566030502e+00
    4.9299800873e+01    3.4695158005e+00
    4.9399810791e+01    3.4823870659e+00
    4.9499797821e+01    3.4951987267e+00
    4.9599803925e+01    3.5079779625e+00
    4.9699794769e+01    3.5206892490e+00
    4.9799789429e+01    3.5333509445e+00
    4.9899795532e+01    3.5459642410e+00
    4.9999786377e+01    3.5585298538e+00
    5.0099792480e+01    3.5806303024e+00
    5.0199790955e+01    3.6027002335e+00
    5.0299793243e+01    3.6247301102e+00
    5.0399799347e+01    3.6467099190e+00
    5.0499774933e+01    3.6686401367e+00
    5.0599796295e+01    3.6905200481e+00
    5.0699790955e+01    3.7123599052e+00
    5.0799770355e+01    3.7341499329e+00
    5.0899768829e+01    3.7558898926e+00
    5.0999782562e+01    3.7775802612e+00
    5.1099773407e+01    3.7992100716e+00
    5.1199771881e+01    3.8207798004e+00
    5.1299785614e+01    3.8423099518e+00
    5.1399776459e+01    3.8638000488e+00
    5.1499778748e+01    3.8852400780e+00
    5.1599773407e+01    3.9066700935e+00
    5.1699775696e+01    3.9280397892e+00
    5.1799766541e+01    3.9493901730e+00
    5.1899757385e+01    3.9707002640e+00
    5.1999771118e+01    3.9919700623e+00
    5.2099765778e+01    4.0131797791e+00
    5.2199771881e+01    4.0343298912e+00
    5.2299755096e+01    4.0554199219e+00
    5.2399757385e+01    4.0764598846e+00
    5.2499767303e+01    4.0974397659e+00
    5.2599758148e+01    4.1183500290e+00
    5.2699756622e+01    4.1392002106e+00
    5.2799743652e+01    4.1599798203e+00
    5.2899761200e+01    4.1807098389e+00
    5.2999759674e+01    4.2013697624e+00
    5.3099735260e+01    4.2219700813e+00
    5.3199748993e+01    4.2425003052e+00
    5.3299732208e+01    4.2629499435e+00
    5.3399734497e+01    4.2833299637e+00
    5.3499744415e+01    4.3036599159e+00
    5.3599742889e+01    4.3239302635e+00
    5.3699737549e+01    4.3441300392e+00
    5.3799732208e+01    4.3642797470e+00
    5.3899723053e+01    4.3843698502e+00
    5.3999725342e+01    4.4044198990e+00
    5.4099731445e+01    4.4244003296e+00
    5.4199722290e+01    4.4443302155e+00
    5.4299716949e+01    4.4642000198e+00
    5.4399723053e+01    4.4840102196e+00
    5.4499732971e+01    4.5037603378e+00
    5.4599727631e+01    4.5234298706e+00
    5.4699710846e+01    4.5430297852e+00
    5.4799709320e+01    4.5625796318e+00
    5.4899730682e+01    4.5820403099e+00
    5.4999713898e+01    4.6014299393e+00
    5.5099712372e+01    4.6207599640e+00
    5.5199703217e+01    4.6400198936e+00
    5.5299701691e+01    4.6592202187e+00
    5.5399700165e+01    4.6783399582e+00
    5.5499717712e+01    4.6974000931e+00
    5.5599716187e+01    4.7164001465e+00
    5.5699703217e+01    4.7353200912e+00
    5.5799705505e+01    4.7541699409e+00
    5.5899692535e+01    4.7729501724e+00
    5.5999702454e+01    4.7916498184e+00
    5.6099708557e+01    4.8102898598e+00
    5.6199695587e+01    4.8288402557e+00
    5.6299709320e+01    4.8473300934e+00
    5.6399700165e+01    4.8657498360e+00
    5.6499694824e+01    4.8841099739e+00
    5.6599700928e+01    4.9024100304e+00
    5.6699691772e+01    4.9206399918e+00
    5.6799678802e+01    4.9387998581e+00
    5.6899688721e+01    4.9568901062e+00
    5.6999691010e+01    4.9749202728e+00
    5.7099685669e+01    4.9928503036e+00
    5.7199695587e+01    5.0107202530e+00
    5.7299682617e+01    5.0285100937e+00
    5.7399677277e+01    5.0462298393e+00
    5.7499664307e+01    5.0638599396e+00
    5.7599678040e+01    5.0814299583e+00
    5.7699684143e+01    5.0989198685e+00
    5.7799682617e+01    5.1163296700e+00
    5.7899665833e+01    5.1336803436e+00
    5.7999679565e+01    5.1509599686e+00
    5.8099678040e+01    5.1681799889e+00
    5.8199661255e+01    5.1853199005e+00
    5.8299678802e+01    5.2024002075e+00
    5.8399669647e+01    5.2193999290e+00
    5.8499664307e+01    5.2363600731e+00
    5.8599662781e+01    5.2532396317e+00
    5.8699665070e+01    5.2700695992e+00
    5.8799663544e+01    5.2868299484e+00
    5.8899669647e+01    5.3035202026e+00
    5.8999664307e+01    5.3201699257e+00
    5.9099655151e+01    5.3367395401e+00
    5.9199653625e+01    5.3532500267e+00
    5.9299659729e+01    5.3696999550e+00
    5.9399658203e+01    5.3860597610e+00
    5.9499656677e+01    5.4023694992e+00
    5.9599655151e+01    5.4186000824e+00
    5.9699642181e+01    5.4347500801e+00
    5.9799644470e+01    5.4508299828e+00
    5.9899650574e+01    5.4668397903e+00
    5.9999649048e+01    5.4827594757e+00
    6.0099651337e+01    5.5098099709e+00
    6.0199634552e+01    5.5368299484e+00
    6.0299648285e+01    5.5637798309e+00
    6.0399631500e+01    5.5906500816e+00
    6.0499641418e+01    5.6174697876e+00
    6.0599624634e+01    5.6441998482e+00
    6.0699642181e+01    5.6708698273e+00
    6.0799617767e+01    5.6974601746e+00
    6.0899639130e+01    5.7239999771e+00
    6.0999614716e+01    5.7504301071e+00
    6.1099628448e+01    5.7767801285e+00
    6.1199626923e+01    5.8030500412e+00
    6.1299621582e+01    5.8292598724e+00
    6.1399627686e+01    5.8554105759e+00
    6.1499622345e+01    5.8814902306e+00
    6.1599628448e+01    5.9075193405e+00
    6.1699611664e+01    5.9334993362e+00
    6.1799613953e+01    5.9594106674e+00
    6.1899608612e+01    5.9852705002e+00
    6.1999622345e+01    6.0110597610e+00
    6.2099601746e+01    6.0367593765e+00
    6.2199604034e+01    6.0623903275e+00
    6.2299602509e+01    6.0879397392e+00
    6.2399608612e+01    6.1133899689e+00
    6.2499614716e+01    6.1387600899e+00
    6.2599590302e+01    6.1640300751e+00
    6.2699611664e+01    6.1892194748e+00
    6.2799610138e+01    6.2143301964e+00
    6.2899585724e+01    6.2393293381e+00
    6.2999595642e+01    6.2642498016e+00
    6.3099601746e+01    6.2890801430e+00
    6.3199592590e+01    6.3138103485e+00
    6.3299602509e+01    6.3384299278e+00
    6.3399593353e+01    6.3629598618e+00
    6.3499584198e+01    6.3874096870e+00
    6.3599590302e+01    6.4117603302e+00
    6.3699596405e+01    6.4360394478e+00
    6.3799591064e+01    6.4602203369e+00
    6.3899589539e+01    6.4843301773e+00
    6.3999576569e+01    6.5083503723e+00
    6.4099578857e+01    6.5323004723e+00
    6.4199584961e+01    6.5561604500e+00
    6.4299583435e+01    6.5799498558e+00
    6.4399581909e+01    6.6036295891e+00
    6.4499565125e+01    6.6272306442e+00
    6.4599563599e+01    6.6507301331e+00
    6.4699577332e+01    6.6741399765e+00
    6.4799560547e+01    6.6974396706e+00
    6.4899559021e+01    6.7206401825e+00
    6.4999572754e+01    6.7437496185e+00
    6.5099555969e+01    6.7667503357e+00
    6.5199554443e+01    6.7896795273e+00
    6.5299568176e+01    6.8125000000e+00
    6.5399566650e+01    6.8352298737e+00
    6.5499557495e+01    6.8578696251e+00
    6.5599548340e+01    6.8804092407e+00
    6.5699554443e+01    6.9028596878e+00
    6.5799568176e+01    6.9252099991e+00
    6.5899551392e+01    6.9474196434e+00
    6.5999549866e+01    6.9696097374e+00
    6.6099555969e+01    6.9916105270e+00
    6.6199554443e+01    7.0136003494e+00
    6.6299560547e+01    7.0354003906e+00
    6.6399543762e+01    7.0571098328e+00
    6.6499534607e+01    7.0788202286e+00
    6.6599548340e+01    7.1003398895e+00
    6.6699539185e+01    7.1218795776e+00
    6.6799545288e+01    7.1432194710e+00
    6.6899536133e+01    7.1645603180e+00
    6.6999542236e+01    7.1857004166e+00
    6.7099533081e+01    7.2067298889e+00
    6.7199539185e+01    7.2277603149e+00
    6.7299522400e+01    7.2485799789e+00
    6.7399536133e+01    7.2693996429e+00
    6.7499534607e+01    7.2900094986e+00
    6.7599517822e+01    7.3106193542e+00
    6.7699531555e+01    7.3310203552e+00
    6.7799522400e+01    7.3513302803e+00
    6.7899528503e+01    7.3716402054e+00
    6.7999519348e+01    7.3917598724e+00
    6.8099510193e+01    7.4118700027e+00
    6.8199531555e+01    7.4317898750e+00
    6.8299514771e+01    7.4517197609e+00
    6.8399520874e+01    7.4714498520e+00
    6.8499504089e+01    7.4911003113e+00
    6.8599517822e+01    7.5107502937e+00
    6.8699508667e+01    7.5302200317e+00
    6.8799499512e+01    7.5496997833e+00
    6.8899520874e+01    7.5689897537e+00
    6.8999511719e+01    7.5882997513e+00
    6.9099494934e+01    7.6074094772e+00
    6.9199493408e+01    7.6264305115e+00
    6.9299514771e+01    7.6454505920e+00
    6.9399497986e+01    7.6642799377e+00
    6.9499496460e+01    7.6831102371e+00
    6.9599502563e+01    7.7017498016e+00
    6.9699493408e+01    7.7203698158e+00
    6.9799507141e+01    7.7387800217e+00
    6.9899482727e+01    7.7571897507e+00
    6.9999481201e+01    7.7754106522e+00
    7.0099487305e+01    7.8046197891e+00
    7.0199485779e+01    7.8337397575e+00
    7.0299484253e+01    7.8628606796e+00
    7.0399482727e+01    7.8917798996e+00
    7.0499473572e+01    7.9207100868e+00
    7.0599479675e+01    7.9494204521e+00
    7.0699470520e+01    7.9781503677e+00
    7.0799484253e+01    8.0066699982e+00
    7.0899482727e+01    8.0351896286e+00
    7.0999458313e+01    8.0635004044e+00
    7.1099487305e+01    8.0916900635e+00
    7.1199478149e+01    8.1198692322e+00
    7.1299468994e+01    8.1478700638e+00
    7.1399459839e+01    8.1758594513e+00
    7.1499473572e+01    8.2036695480e+00
    7.1599464417e+01    8.2314901352e+00
    7.1699455261e+01    8.2591304779e+00
    7.1799476624e+01    8.2867698669e+00
    7.1899467468e+01    8.3142404556e+00
    7.1999458313e+01    8.3416996002e+00
    7.2099456787e+01    8.3689498901e+00
    7.2199462891e+01    8.3960905075e+00
    7.2299468994e+01    8.4232101440e+00
    7.2399452209e+01    8.4501199722e+00
    7.2499450684e+01    8.4770107269e+00
    7.2599441528e+01    8.5036802292e+00
    7.2699447632e+01    8.5303297043e+00
    7.2799453735e+01    8.5567502975e+00
    7.2899452209e+01    8.5831604004e+00
    7.2999435425e+01    8.6093597412e+00
    7.3099441528e+01    8.6354198456e+00
    7.3199440002e+01    8.6614503860e+00
    7.3299438477e+01    8.6872596741e+00
    7.3399436951e+01    8.7130489349e+00
    7.3499435425e+01    8.7386102676e+00
    7.3599449158e+01    8.7641506195e+00
    7.3699432373e+01    8.7894897461e+00
    7.3799430847e+01    8.8148002625e+00
    7.3899444580e+01    8.8399105072e+00
    7.3999435425e+01    8.8649997711e+00
    7.4099426270e+01    8.8898906708e+00
    7.4199417114e+01    8.9146595001e+00
    7.4299415588e+01    8.9394197464e+00
    7.4399429321e+01    8.9639501572e+00
    7.4499412537e+01    8.9884500504e+00
    7.4599418640e+01    9.0127391815e+00
    7.4699409485e+01    9.0369892120e+00
    7.4799407959e+01    9.0610198975e+00
    7.4899406433e+01    9.0850000381e+00
    7.4999427795e+01    9.1087608337e+00
    7.5099411011e+01    9.1324996948e+00
    7.5199401855e+01    9.1560297012e+00
    7.5299400330e+01    9.1794204712e+00
    7.5399414062e+01    9.2027902603e+00
    7.5499404907e+01    9.2259397507e+00
    7.5599395752e+01    9.2490596771e+00
    7.5699401855e+01    9.2719602585e+00
    7.5799415588e+01    9.2948093414e+00
    7.5899391174e+01    9.3174495697e+00
    7.5999397278e+01    9.3400402069e+00
    7.6099411011e+01    9.3624095917e+00
    7.6199394226e+01    9.3847503662e+00
    7.6299400330e+01    9.4068603516e+00
    7.6399398804e+01    9.4289503098e+00
    7.6499389648e+01    9.4508304596e+00
    7.6599395752e+01    9.4725704193e+00
    7.6699394226e+01    9.4943103790e+00
    7.6799377441e+01    9.5158195496e+00
    7.6899398804e+01    9.5372896194e+00
    7.6999397278e+01    9.5585308075e+00
    7.7099380493e+01    9.5797405243e+00
    7.7199371338e+01    9.6007194519e+00
    7.7299369812e+01    9.6216602325e+00
    7.7399383545e+01    9.6423597336e+00
    7.7499389648e+01    9.6630296707e+00
    7.7599365234e+01    9.6834697723e+00
    7.7699386597e+01    9.7037696838e+00
    7.7799377441e+01    9.7240495682e+00
    7.7899368286e+01    9.7441101074e+00
    7.7999374390e+01    9.7641296387e+00
    7.8099357605e+01    9.7839298248e+00
    7.8199371338e+01    9.8036994934e+00
    7.8299369812e+01    9.8232498169e+00
    7.8399360657e+01    9.8427791595e+00
    7.8499351501e+01    9.8621006012e+00
    7.8599349976e+01    9.8812885284e+00
    7.8699348450e+01    9.9004707336e+00
    7.8799362183e+01    9.9194192886e+00
    7.8899360657e+01    9.9383592606e+00
    7.8999351501e+01    9.9570903778e+00
    7.9099342346e+01    9.9757900238e+00
    7.9199340820e+01    9.9942703247e+00
    7.9299346924e+01    1.0012720108e+01
    7.9399337769e+01    1.0030950546e+01
    7.9499336243e+01    1.0049150467e+01
    7.9599357605e+01    1.0067111015e+01
    7.9699348450e+01    1.0084939957e+01
    7.9799354553e+01    1.0102739334e+01
    7.9899337769e+01    1.0120300293e+01
    7.9999336243e+01    1.0137840271e+01
    8.0099342346e+01    1.0166839600e+01
    8.0199333191e+01    1.0195829391e+01
    8.0299346924e+01    1.0224680901e+01
    8.0399345398e+01    1.0253410339e+01
    8.0499320984e+01    1.0282009125e+01
    8.0599327087e+01    1.0310479164e+01
    8.0699333191e+01    1.0338809967e+01
    8.0799339294e+01    1.0367019653e+01
    8.0899322510e+01    1.0395099640e+01
    8.0999313354e+01    1.0423030853e+01
    8.1099311829e+01    1.0450819969e+01
    8.1199317932e+01    1.0478459358e+01
    8.1299331665e+01    1.0505990982e+01
    8.1399330139e+01    1.0533380508e+01
    8.1499305725e+01    1.0560669899e+01
    8.1599304199e+01    1.0587739944e+01
    8.1699302673e+01    1.0614789963e+01
    8.1799316406e+01    1.0641819954e+01
    8.1899307251e+01    1.0668540955e+01
    8.1999305725e+01    1.0695219994e+01
    8.2099304199e+01    1.0721769333e+01
    8.2199310303e+01    1.0748180389e+01
    8.2299293518e+01    1.0774430275e+01
    8.2399299622e+01    1.0800539017e+01
    8.2499298096e+01    1.0826511383e+01
    8.2599311829e+01    1.0852319717e+01
    8.2699287415e+01    1.0877989769e+01
    8.2799308777e+01    1.0903489113e+01
    8.2899291992e+01    1.0928850174e+01
    8.2999282837e+01    1.0954070091e+01
    8.3099288940e+01    1.0979119301e+01
    8.3199295044e+01    1.1004011154e+01
    8.3299293518e+01    1.1028750420e+01
    8.3399276733e+01    1.1053339958e+01
    8.3499290466e+01    1.1077769279e+01
    8.3599281311e+01    1.1102050781e+01
    8.3699279785e+01    1.1126190186e+01
    8.3799278259e+01    1.1150179863e+01
    8.3899284363e+01    1.1174030304e+01
    8.3999275208e+01    1.1197750092e+01
    8.4099273682e+01    1.1221329689e+01
    8.4199272156e+01    1.1244759560e+01
    8.4299278259e+01    1.1268060684e+01
    8.4399261475e+01    1.1291199684e+01
    8.4499267578e+01    1.1314188957e+01
    8.4599273682e+01    1.1337020874e+01
    8.4699272156e+01    1.1359700203e+01
    8.4799278259e+01    1.1382219315e+01
    8.4899253845e+01    1.1404479980e+01
    8.4999259949e+01    1.1426679611e+01
    8.5099266052e+01    1.1448730469e+01
    8.5199256897e+01    1.1470629692e+01
    8.5299270630e+01    1.1492369652e+01
    8.5399269104e+01    1.1513971329e+01
    8.5499252319e+01    1.1535420418e+01
    8.5599250793e+01    1.1556710243e+01
    8.5699249268e+01    1.1577849388e+01
    8.5799255371e+01    1.1598820686e+01
    8.5899238586e+01    1.1619640350e+01
    8.5999244690e+01    1.1640279770e+01
    8.6099243164e+01    1.1660770416e+01
    8.6199241638e+01    1.1681099892e+01
    8.6299240112e+01    1.1701290131e+01
    8.6399246216e+01    1.1721319199e+01
    8.6499229431e+01    1.1741210938e+01
    8.6599235535e+01    1.1760939598e+01
    8.6699234009e+01    1.1780519485e+01
    8.6799240112e+01    1.1799950600e+01
    8.6899230957e+01    1.1819230080e+01
    8.6999221802e+01    1.1838349342e+01
    8.7099235535e+01    1.1857289314e+01
    8.7199218750e+01    1.1876080513e+01
    8.7299232483e+01    1.1894700050e+01
    8.7399230957e+01    1.1913169861e+01
    8.7499229431e+01    1.1931460381e+01
    8.7599227905e+01    1.1949600220e+01
    8.7699226379e+01    1.1967569351e+01
    8.7799209595e+01    1.1985300064e+01
    8.7899208069e+01    1.2002999306e+01
    8.7999221802e+01    1.2020501137e+01
    8.8099220276e+01    1.2037799835e+01
    8.8199218750e+01    1.2054999352e+01
    8.8299217224e+01    1.2072098732e+01
    8.8399215698e+01    1.2089000702e+01
    8.8499221802e+01    1.2105799675e+01
    8.8599197388e+01    1.2122399330e+01
    8.8699211121e+01    1.2138900757e+01
    8.8799209595e+01    1.2155200005e+01
    8.8899192810e+01    1.2171399117e+01
    8.8999191284e+01    1.2187400818e+01
    8.9099205017e+01    1.2203300476e+01
    8.9199203491e+01    1.2218999863e+01
    8.9299186707e+01    1.2234599113e+01
    8.9399208069e+01    1.2250000954e+01
    8.9499198914e+01    1.2265299797e+01
    8.9599189758e+01    1.2280399323e+01
    8.9699203491e+01    1.2295400620e+01
    8.9799186707e+01    1.2310200691e+01
    8.9899177551e+01    1.2324799538e+01
    8.9999191284e+01    1.2339299202e+01
    9.0099174500e+01    1.2367999077e+01
    9.0199195862e+01    1.2396599770e+01
    9.0299186707e+01    1.2425300598e+01
    9.0399185181e+01    1.2453599930e+01
    9.0499168396e+01    1.2481800079e+01
    9.0599174500e+01    1.2509901047e+01
    9.0699172974e+01    1.2537799835e+01
    9.0799163818e+01    1.2565600395e+01
    9.0899177551e+01    1.2593198776e+01
    9.0999160767e+01    1.2620599747e+01
    9.1099166870e+01    1.2647799492e+01
    9.1199172974e+01    1.2674999237e+01
    9.1299156189e+01    1.2701900482e+01
    9.1399169922e+01    1.2728599548e+01
    9.1499153137e+01    1.2755299568e+01
    9.1599151611e+01    1.2781801224e+01
    9.1699157715e+01    1.2808099747e+01
    9.1799148560e+01    1.2834400177e+01
    9.1899162292e+01    1.2860499382e+01
    9.1999153137e+01    1.2886400223e+01
    9.2099151611e+01    1.2912199974e+01
    9.2199157715e+01    1.2937799454e+01
    9.2299156189e+01    1.2963200569e+01
    9.2399147034e+01    1.2988500595e+01
    9.2499137878e+01    1.3013600349e+01
    9.2599151611e+01    1.3038400650e+01
    9.2699134827e+01    1.3063199043e+01
    9.2799140930e+01    1.3087699890e+01
    9.2899131775e+01    1.3112099648e+01
    9.2999137878e+01    1.3136299133e+01
    9.3099143982e+01    1.3160300255e+01
    9.3199134827e+01    1.3184000015e+01
    9.3299140930e+01    1.3207699776e+01
    9.3399124146e+01    1.3231101036e+01
    9.3499130249e+01    1.3254300117e+01
    9.3599128723e+01    1.3277500153e+01
    9.3699134827e+01    1.3300299644e+01
    9.3799118042e+01    1.3323100090e+01
    9.3899124146e+01    1.3345700264e+01
    9.3999130249e+01    1.3368099213e+01
    9.4099128723e+01    1.3390300751e+01
    9.4199127197e+01    1.3412401199e+01
    9.4299110413e+01    1.3434300423e+01
    9.4399108887e+01    1.3455999374e+01
    9.4499114990e+01    1.3477599144e+01
    9.4599128723e+01    1.3498900414e+01
    9.4699104309e+01    1.3520099640e+01
    9.4799118042e+01    1.3541099548e+01
    9.4899108887e+01    1.3561901093e+01
    9.4999114990e+01    1.3582499504e+01
    9.5099113464e+01    1.3602999687e+01
    9.5199096680e+01    1.3623199463e+01
    9.5299102783e+01    1.3643300056e+01
    9.5399093628e+01    1.3663200378e+01
    9.5499107361e+01    1.3682899475e+01
    9.5599098206e+01    1.3702400208e+01
    9.5699089050e+01    1.3721800804e+01
    9.5799095154e+01    1.3740900040e+01
    9.5899093628e+01    1.3759901047e+01
    9.5999107361e+01    1.3778700829e+01
    9.6099082947e+01    1.3797300339e+01
    9.6199089050e+01    1.3815599442e+01
    9.6299095154e+01    1.3833899498e+01
    9.6399093628e+01    1.3851900101e+01
    9.6499084473e+01    1.3869699478e+01
    9.6599075317e+01    1.3887499809e+01
    9.6699073792e+01    1.3905000687e+01
    9.6799072266e+01    1.3922299385e+01
    9.6899093628e+01    1.3939499855e+01
    9.6999069214e+01    1.3956398964e+01
    9.7099067688e+01    1.3973099709e+01
    9.7199089050e+01    1.3989700317e+01
    9.7299064636e+01    1.4006099701e+01
    9.7399063110e+01    1.4022200584e+01
    9.7499084473e+01    1.4038200378e+01
    9.7599082947e+01    1.4053999901e+01
    9.7699073792e+01    1.4069600105e+01
    9.7799064636e+01    1.4084999084e+01
    9.7899055481e+01    1.4100199699e+01
    9.7999061584e+01    1.4115300179e+01
    9.8099067688e+01    1.4130199432e+01
    9.8199050903e+01    1.4144800186e+01
    9.8299064636e+01    1.4159400940e+01
    9.8399055481e+01    1.4173699379e+01
    9.8499061584e+01    1.4187800407e+01
    9.8599044800e+01    1.4201700211e+01
    9.8699050903e+01    1.4215600967e+01
    9.8799049377e+01    1.4229198456e+01
    9.8899047852e+01    1.4242799759e+01
    9.8999061584e+01    1.4256000519e+01
    9.9099052429e+01    1.4269100189e+01
    9.9199043274e+01    1.4282199860e+01
    9.9299041748e+01    1.4294900894e+01
    9.9399032593e+01    1.4307500839e+01
    9.9499038696e+01    1.4319900513e+01
    9.9599052429e+01    1.4332099915e+01
    9.9699028015e+01    1.4344100952e+01
    9.9799049377e+01    1.4356000900e+01
    9.9899040222e+01    1.4367599487e+01
    9.9999038696e+01    1.4378999710e+01
    1.0009902191e+02    1.4407798767e+01
    1.0019902039e+02    1.4436399460e+01
    1.0029901886e+02    1.4464899063e+01
    1.0039901733e+02    1.4493200302e+01
    1.0049903107e+02    1.4521398544e+01
    1.0059902191e+02    1.4549299240e+01
    1.0069904327e+02    1.4577098846e+01
    1.0079902649e+02    1.4604801178e+01
    1.0089900970e+02    1.4632198334e+01
    1.0099902344e+02    1.4659301758e+01
    1.0109900665e+02    1.4686298370e+01
    1.0119899750e+02    1.4713100433e+01
    1.0129901123e+02    1.4739799500e+01
    1.0139900970e+02    1.4766300201e+01
    1.0149902344e+02    1.4792499542e+01
    1.0159902191e+02    1.4818601608e+01
    1.0169901276e+02    1.4844697952e+01
    1.0179901123e+02    1.4870500565e+01
    1.0189900208e+02    1.4896198273e+01
    1.0199900818e+02    1.4921600342e+01
    1.0209899902e+02    1.4947002411e+01
    1.0219901276e+02    1.4972099304e+01
    1.0229898834e+02    1.4996898651e+01
    1.0239898682e+02    1.5021600723e+01
    1.0249900055e+02    1.5046201706e+01
    1.0259898376e+02    1.5070400238e+01
    1.0269898224e+02    1.5094501495e+01
    1.0279898071e+02    1.5118299484e+01
    1.0289897919e+02    1.5141899109e+01
    1.0299899292e+02    1.5165399551e+01
    1.0309899902e+02    1.5188600540e+01
    1.0319898987e+02    1.5211599350e+01
    1.0329898071e+02    1.5234302521e+01
    1.0339897919e+02    1.5256999969e+01
    1.0349897003e+02    1.5279300690e+01
    1.0359896851e+02    1.5301399231e+01
    1.0369898224e+02    1.5323301315e+01
    1.0379898071e+02    1.5345098495e+01
    1.0389897919e+02    1.5366701126e+01
    1.0399896240e+02    1.5387998581e+01
    1.0409896088e+02    1.5409200668e+01
    1.0419895935e+02    1.5430198669e+01
    1.0429895782e+02    1.5451000214e+01
    1.0439895630e+02    1.5471599579e+01
    1.0449897003e+02    1.5492000580e+01
    1.0459896088e+02    1.5512098312e+01
    1.0469895935e+02    1.5531999588e+01
    1.0479897308e+02    1.5551698685e+01
    1.0489894867e+02    1.5571201324e+01
    1.0499894714e+02    1.5590497971e+01
    1.0509896088e+02    1.5609600067e+01
    1.0519895172e+02    1.5628501892e+01
    1.0529895782e+02    1.5647100449e+01
    1.0539895630e+02    1.5665601730e+01
    1.0549893951e+02    1.5683799744e+01
    1.0559896088e+02    1.5701801300e+01
    1.0569892883e+02    1.5719600677e+01
    1.0579895782e+02    1.5737201691e+01
    1.0589894104e+02    1.5754499435e+01
    1.0599893188e+02    1.5771600723e+01
    1.0609895325e+02    1.5788499832e+01
    1.0619892883e+02    1.5805200577e+01
    1.0629894257e+02    1.5821699142e+01
    1.0639894867e+02    1.5837900162e+01
    1.0649893188e+02    1.5854000092e+01
    1.0659893799e+02    1.5869800568e+01
    1.0669892883e+02    1.5885498047e+01
    1.0679894257e+02    1.5900899887e+01
    1.0689894104e+02    1.5916099548e+01
    1.0699893188e+02    1.5931100845e+01
    1.0709893036e+02    1.5945898056e+01
    1.0719893646e+02    1.5960399628e+01
    1.0729891205e+02    1.5974798203e+01
    1.0739893341e+02    1.5988800049e+01
    1.0749890900e+02    1.6002698898e+01
    1.0759890747e+02    1.6016399384e+01
    1.0769892120e+02    1.6029697418e+01
    1.0779891205e+02    1.6042900085e+01
    1.0789891052e+02    1.6055898666e+01
    1.0799890900e+02    1.6068698883e+01
    1.0809889984e+02    1.6081201553e+01
    1.0819889832e+02    1.6093500137e+01
    1.0829891205e+02    1.6105598450e+01
    1.0839891052e+02    1.6117698669e+01
    1.0849890900e+02    1.6129402161e+01
    1.0859889221e+02    1.6140899658e+01
    1.0869889832e+02    1.6152200699e+01
    1.0879888916e+02    1.6163398743e+01
    1.0889890289e+02    1.6174400330e+01
    1.0899890900e+02    1.6185098648e+01
    1.0909889221e+02    1.6195600510e+01
    1.0919889832e+02    1.6205999374e+01
    1.0929889679e+02    1.6216199875e+01
    1.0939888763e+02    1.6226099014e+01
    1.0949887848e+02    1.6235801697e+01
    1.0959887695e+02    1.6245298386e+01
    1.0969888306e+02    1.6254600525e+01
    1.0979888916e+02    1.6263599396e+01
    1.0989888763e+02    1.6272399902e+01
    1.0999887085e+02    1.6281099319e+01
    1.1009887695e+02    1.6310598373e+01
    1.1019886780e+02    1.6340202332e+01
    1.1029888916e+02    1.6369600296e+01
    1.1039888763e+02    1.6398698807e+01
    1.1049887848e+02    1.6427701950e+01
    1.1059886169e+02    1.6456501007e+01
    1.1069888306e+02    1.6485101700e+01
    1.1079885864e+02    1.6513301849e+01
    1.1089885712e+02    1.6541500092e+01
    1.1099886322e+02    1.6569400787e+01
    1.1109886169e+02    1.6597000122e+01
    1.1119886017e+02    1.6624498367e+01
    1.1129885101e+02    1.6651700974e+01
    1.1139887238e+02    1.6678699493e+01
    1.1149886322e+02    1.6705598831e+01
    1.1159886932e+02    1.6732200623e+01
    1.1169886017e+02    1.6758699417e+01
    1.1179885864e+02    1.6784997940e+01
    1.1189884949e+02    1.6811201096e+01
    1.1199884796e+02    1.6837099075e+01
    1.1209884644e+02    1.6862798691e+01
    1.1219886017e+02    1.6888200760e+01
    1.1229885101e+02    1.6913499832e+01
    1.1239884186e+02    1.6938497543e+01
    1.1249884033e+02    1.6963300705e+01
    1.1259883881e+02    1.6987798691e+01
    1.1269883728e+02    1.7012098312e+01
    1.1279882812e+02    1.7036100388e+01
    1.1289884186e+02    1.7059898376e+01
    1.1299881744e+02    1.7083501816e+01
    1.1309882355e+02    1.7106800079e+01
    1.1319882965e+02    1.7129898071e+01
    1.1329884338e+02    1.7152700424e+01
    1.1339881897e+02    1.7175298691e+01
    1.1349881744e+02    1.7197498322e+01
    1.1359882355e+02    1.7219600677e+01
    1.1369882965e+02    1.7241399765e+01
    1.1379882812e+02    1.7263002396e+01
    1.1389881897e+02    1.7284400940e+01
    1.1399881744e+02    1.7305599213e+01
    1.1409882355e+02    1.7326501846e+01
    1.1419880676e+02    1.7347200394e+01
    1.1429879761e+02    1.7367698669e+01
    1.1439881897e+02    1.7388000488e+01
    1.1449880981e+02    1.7408000946e+01
    1.1459882355e+02    1.7427698135e+01
    1.1469882202e+02    1.7447200775e+01
    1.1479882050e+02    1.7466499329e+01
    1.1489881134e+02    1.7485498428e+01
    1.1499881744e+02    1.7504301071e+01
    1.1509880829e+02    1.7522699356e+01
    1.1519879913e+02    1.7541101456e+01
    1.1529879761e+02    1.7559099197e+01
    1.1539881134e+02    1.7576898575e+01
    1.1549880981e+02    1.7594400406e+01
    1.1559879303e+02    1.7611700058e+01
    1.1569879150e+02    1.7628698349e+01
    1.1579879761e+02    1.7645500183e+01
    1.1589878845e+02    1.7661998749e+01
    1.1599880219e+02    1.7678197861e+01
    1.1609879303e+02    1.7694200516e+01
    1.1619879913e+02    1.7709899902e+01
    1.1629878998e+02    1.7725399017e+01
    1.1639878082e+02    1.7740699768e+01
    1.1649878693e+02    1.7755699158e+01
    1.1659877777e+02    1.7770502090e+01
    1.1669879150e+02    1.7784999847e+01
    1.1679876709e+02    1.7799299240e+01
    1.1689878845e+02    1.7813402176e+01
    1.1699877930e+02    1.7827100754e+01
    1.1709877777e+02    1.7840698242e+01
    1.1719877625e+02    1.7854000092e+01
    1.1729876709e+02    1.7866899490e+01
    1.1739875793e+02    1.7879699707e+01
    1.1749877930e+02    1.7892200470e+01
    1.1759874725e+02    1.7904300690e+01
    1.1769875336e+02    1.7916297913e+01
    1.1779876709e+02    1.7928100586e+01
    1.1789875793e+02    1.7939498901e+01
    1.1799877167e+02    1.7950702667e+01
    1.1809874725e+02    1.7961700439e+01
    1.1819875336e+02    1.7972499847e+01
    1.1829875183e+02    1.7983001709e+01
    1.1839875793e+02    1.7993198395e+01
    1.1849874878e+02    1.8003299713e+01
    1.1859874725e+02    1.8013099670e+01
    1.1869873810e+02    1.8022701263e+01
    1.1879875183e+02    1.8031997681e+01
    1.1889875031e+02    1.8041099548e+01
    1.1899874878e+02    1.8049999237e+01
    1.1909873962e+02    1.8058696747e+01
    1.1919873047e+02    1.8067199707e+01
    1.1929873657e+02    1.8075401306e+01
    1.1939875031e+02    1.8083301544e+01
    1.1949874115e+02    1.8091197968e+01
    1.1959871674e+02    1.8098598480e+01
    1.1969873047e+02    1.8105800629e+01
    1.1979872131e+02    1.8112800598e+01
    1.1989871979e+02    1.8119499207e+01
    1.1999871826e+02    1.8126102448e+01
    1.2009871674e+02    1.8155498505e+01
    1.2019873047e+02    1.8185100555e+01
    1.2029872131e+02    1.8214500427e+01
    1.2039872742e+02    1.8243602753e+01
    1.2049871826e+02    1.8272399902e+01
    1.2059873199e+02    1.8300998688e+01
    1.2069873047e+02    1.8329399109e+01
    1.2079871368e+02    1.8357597351e+01
    1.2089869690e+02    1.8385498047e+01
    1.2099871826e+02    1.8413101196e+01
    1.2109870911e+02    1.8440498352e+01
    1.2119869995e+02    1.8467502594e+01
    1.2129869843e+02    1.8494400024e+01
    1.2139869690e+02    1.8521102905e+01
    1.2149871063e+02    1.8547603607e+01
    1.2159870148e+02    1.8573799133e+01
    1.2169869995e+02    1.8599800110e+01
    1.2179869080e+02    1.8625698090e+01
    1.2189869690e+02    1.8651298523e+01
    1.2199870300e+02    1.8676700592e+01
    1.2209870148e+02    1.8701801300e+01
    1.2219869232e+02    1.8726699829e+01
    1.2229869843e+02    1.8751300812e+01
    1.2239868927e+02    1.8775699615e+01
    1.2249868774e+02    1.8799697876e+01
    1.2259868622e+02    1.8823398590e+01
    1.2269866943e+02    1.8847000122e+01
    1.2279868317e+02    1.8870101929e+01
    1.2289866638e+02    1.8893100739e+01
    1.2299867249e+02    1.8915802002e+01
    1.2309868622e+02    1.8938201904e+01
    1.2319867706e+02    1.8960201263e+01
    1.2329866791e+02    1.8981998444e+01
    1.2339868164e+02    1.9003498077e+01
    1.2349867249e+02    1.9024799347e+01
    1.2359867859e+02    1.9045700073e+01
    1.2369866943e+02    1.9066398621e+01
    1.2379866791e+02    1.9086799622e+01
    1.2389865875e+02    1.9106998444e+01
    1.2399864960e+02    1.9126899719e+01
    1.2409866333e+02    1.9146499634e+01
    1.2419866180e+02    1.9166000366e+01
    1.2429865265e+02    1.9185100555e+01
    1.2439865875e+02    1.9203899384e+01
    1.2449864960e+02    1.9222499847e+01
    1.2459867096e+02    1.9240798950e+01
    1.2469864655e+02    1.9258899689e+01
    1.2479863739e+02    1.9276599884e+01
    1.2489865875e+02    1.9294002533e+01
    1.2499864960e+02    1.9311199188e+01
    1.2509866333e+02    1.9328102112e+01
    1.2519863892e+02    1.9344596863e+01
    1.2529866028e+02    1.9360897064e+01
    1.2539865112e+02    1.9376998901e+01
    1.2549864960e+02    1.9392700195e+01
    1.2559863281e+02    1.9408199310e+01
    1.2569863129e+02    1.9423400879e+01
    1.2579865265e+02    1.9438301086e+01
    1.2589862823e+02    1.9452899933e+01
    1.2599862671e+02    1.9467102051e+01
    1.2609864044e+02    1.9481101990e+01
    1.2619863892e+02    1.9494899750e+01
    1.2629862976e+02    1.9508296967e+01
    1.2639862823e+02    1.9521400452e+01
    1.2649864197e+02    1.9534297943e+01
    1.2659861755e+02    1.9547000885e+01
    1.2669863129e+02    1.9559398651e+01
    1.2679862976e+02    1.9571399689e+01
    1.2689861298e+02    1.9583301544e+01
    1.2699861908e+02    1.9594802856e+01
    1.2709860992e+02    1.9605998993e+01
    1.2719860840e+02    1.9616897583e+01
    1.2729860687e+02    1.9627498627e+01
    1.2739861298e+02    1.9637897491e+01
    1.2749859619e+02    1.9647800446e+01
    1.2759860992e+02    1.9657501221e+01
    1.2769862366e+02    1.9666900635e+01
    1.2779859924e+02    1.9676101685e+01
    1.2789859772e+02    1.9684898376e+01
    1.2799861145e+02    1.9693496704e+01
    1.2809858704e+02    1.9701896667e+01
    1.2819859314e+02    1.9710002899e+01
    1.2829861450e+02    1.9717800140e+01
    1.2839860535e+02    1.9725402832e+01
    1.2849859619e+02    1.9732501984e+01
    1.2859861755e+02    1.9739597321e+01
    1.2869862366e+02    1.9746299744e+01
    1.2879862976e+02    1.9752696991e+01
    1.2889865112e+02    1.9758899689e+01
    1.2899864197e+02    1.9764797211e+01
    1.2909866333e+02    1.9770603180e+01
    1.2919865417e+02    1.9775897980e+01
    1.2929866028e+02    1.9781101227e+01
    1.2939868164e+02    1.9785900116e+01
    1.2949867249e+02    1.9790504456e+01
    1.2959867859e+02    1.9794898987e+01
    1.2969868469e+02    1.9798904419e+01
    1.2979870605e+02    1.9802600861e+01
    1.2989871216e+02    1.9805995941e+01
    1.2999870300e+02    1.9809200287e+01
    1.3009870911e+02    1.9837497711e+01
    1.3019873047e+02    1.9865695953e+01
    1.3029872131e+02    1.9893695831e+01
    1.3039872742e+02    1.9921497345e+01
    1.3049873352e+02    1.9948997498e+01
    1.3059875488e+02    1.9976097107e+01
    1.3069874573e+02    2.0002998352e+01
    1.3079876709e+02    2.0029697418e+01
    1.3089877319e+02    2.0055999756e+01
    1.3099877930e+02    2.0082099915e+01
    1.3109878540e+02    2.0107799530e+01
    1.3119879150e+02    2.0133201599e+01
    1.3129878235e+02    2.0158401489e+01
    1.3139880371e+02    2.0183303833e+01
    1.3149879456e+02    2.0208003998e+01
    1.3159880066e+02    2.0232402802e+01
    1.3169882202e+02    2.0256595612e+01
    1.3179881287e+02    2.0280597687e+01
    1.3189883423e+02    2.0304397583e+01
    1.3199884033e+02    2.0327796936e+01
    1.3209883118e+02    2.0350997925e+01
    1.3219883728e+02    2.0373798370e+01
    1.3229884338e+02    2.0396499634e+01
    1.3239886475e+02    2.0418701172e+01
    1.3249885559e+02    2.0440601349e+01
    1.3259886169e+02    2.0462200165e+01
    1.3269888306e+02    2.0483600616e+01
    1.3279887390e+02    2.0504402161e+01
    1.3289888000e+02    2.0525199890e+01
    1.3299888611e+02    2.0545501709e+01
    1.3309889221e+02    2.0565502167e+01
    1.3319889832e+02    2.0585205078e+01
    1.3329890442e+02    2.0604496002e+01
    1.3339892578e+02    2.0623596191e+01
    1.3349891663e+02    2.0642295837e+01
    1.3359893799e+02    2.0660598755e+01
    1.3369894409e+02    2.0678699493e+01
    1.3379893494e+02    2.0696598053e+01
    1.3389895630e+02    2.0714099884e+01
    1.3399896240e+02    2.0731300354e+01
    1.3409895325e+02    2.0748199463e+01
    1.3419895935e+02    2.0764801025e+01
    1.3429896545e+02    2.0781200409e+01
    1.3439898682e+02    2.0797199249e+01
    1.3449896240e+02    2.0812900543e+01
    1.3459899902e+02    2.0828304291e+01
    1.3469898987e+02    2.0843303680e+01
    1.3479899597e+02    2.0858104706e+01
    1.3489901733e+02    2.0872402191e+01
    1.3499902344e+02    2.0886497498e+01
    1.3509901428e+02    2.0900196075e+01
    1.3519903564e+02    2.0913696289e+01
    1.3529902649e+02    2.0926795959e+01
    1.3539903259e+02    2.0939598083e+01
    1.3549905396e+02    2.0951999664e+01
    1.3559906006e+02    2.0964199066e+01
    1.3569905090e+02    2.0976001740e+01
    1.3579905701e+02    2.0987499237e+01
    1.3589906311e+02    2.0998699188e+01
    1.3599906921e+02    2.1009502411e+01
    1.3609909058e+02    2.1020099640e+01
    1.3619909668e+02    2.1030502319e+01
    1.3629908752e+02    2.1040603638e+01
    1.3639909363e+02    2.1050502777e+01
    1.3649911499e+02    2.1060302734e+01
    1.3659910583e+02    2.1069995880e+01
    1.3669911194e+02    2.1079696655e+01
    1.3679913330e+02    2.1089096069e+01
    1.3689912415e+02    2.1098499298e+01
    1.3699914551e+02    2.1107696533e+01
    1.3709913635e+02    2.1116897583e+01
    1.3719914246e+02    2.1125900269e+01
    1.3729914856e+02    2.1134700775e+01
    1.3739915466e+02    2.1143299103e+01
    1.3749917603e+02    2.1151599884e+01
    1.3759916687e+02    2.1159801483e+01
    1.3769917297e+02    2.1167800903e+01
    1.3779919434e+02    2.1175300598e+01
    1.3789918518e+02    2.1182701111e+01
    1.3799920654e+02    2.1189704895e+01
    1.3809919739e+02    2.1196502686e+01
    1.3819920349e+02    2.1203102112e+01
    1.3829922485e+02    2.1209197998e+01
    1.3839921570e+02    2.1215095520e+01
    1.3849922180e+02    2.1220798492e+01
    1.3859921265e+02    2.1226299286e+01
    1.3869923401e+02    2.1231399536e+01
    1.3879924011e+02    2.1236198425e+01
    1.3889926147e+02    2.1240898132e+01
    1.3899926758e+02    2.1245498657e+01
    1.3909925842e+02    2.1249900818e+01
    1.3919926453e+02    2.1254100800e+01
    1.3929928589e+02    2.1258102417e+01
    1.3939927673e+02    2.1262100220e+01
    1.3949928284e+02    2.1265903473e+01
    1.3959930420e+02    2.1269702911e+01
    1.3969929504e+02    2.1273200989e+01
    1.3979930115e+02    2.1276603699e+01
    1.3989930725e+02    2.1279895782e+01
    1.3999931335e+02    2.1282997131e+01
    1.4009930420e+02    2.1310802460e+01
    1.4019932556e+02    2.1338497162e+01
    1.4029933167e+02    2.1366199493e+01
    1.4039933777e+02    2.1393600464e+01
    1.4049935913e+02    2.1420902252e+01
    1.4059934998e+02    2.1447998047e+01
    1.4069935608e+02    2.1474700928e+01
    1.4079937744e+02    2.1501495361e+01
    1.4089935303e+02    2.1527900696e+01
    1.4099937439e+02    2.1554103851e+01
    1.4109938049e+02    2.1580097198e+01
    1.4119938660e+02    2.1606002808e+01
    1.4129939270e+02    2.1631706238e+01
    1.4139939880e+02    2.1657402039e+01
    1.4149940491e+02    2.1682998657e+01
    1.4159942627e+02    2.1708702087e+01
    1.4169941711e+02    2.1734298706e+01
    1.4179942322e+02    2.1759902954e+01
    1.4189944458e+02    2.1785697937e+01
    1.4199943542e+02    2.1811500549e+01
    1.4209945679e+02    2.1837303162e+01
    1.4219946289e+02    2.1863197327e+01
    1.4229945374e+02    2.1889099121e+01
    1.4239947510e+02    2.1914901733e+01
    1.4249948120e+02    2.1940795898e+01
    1.4259947205e+02    2.1966697693e+01
    1.4269949341e+02    2.1992401123e+01
    1.4279949951e+02    2.2018096924e+01
    1.4289949036e+02    2.2043601990e+01
    1.4299951172e+02    2.2069000244e+01
    1.4309950256e+02    2.2094100952e+01
    1.4319952393e+02    2.2119102478e+01
    1.4329953003e+02    2.2143699646e+01
    1.4339953613e+02    2.2168098450e+01
    1.4349954224e+02    2.2192100525e+01
    1.4359953308e+02    2.2215896606e+01
    1.4369955444e+02    2.2239402771e+01
    1.4379956055e+02    2.2262702942e+01
    1.4389956665e+02    2.2285697937e+01
    1.4399957275e+02    2.2308502197e+01
    1.4409956360e+02    2.2331199646e+01
    1.4419955444e+02    2.2353599548e+01
    1.4429959106e+02    2.2375999451e+01
    1.4439958191e+02    2.2398300171e+01
    1.4449960327e+02    2.2420394897e+01
    1.4459959412e+02    2.2442604065e+01
    1.4469960022e+02    2.2464805603e+01
    1.4479960632e+02    2.2486999512e+01
    1.4489961243e+02    2.2509201050e+01
    1.4499963379e+02    2.2531494141e+01
    1.4509962463e+02    2.2553901672e+01
    1.4519964600e+02    2.2576301575e+01
    1.4529963684e+02    2.2598800659e+01
    1.4539964294e+02    2.2621498108e+01
    1.4549966431e+02    2.2644104004e+01
    1.4559965515e+02    2.2666694641e+01
    1.4569967651e+02    2.2689399719e+01
    1.4579966736e+02    2.2712005615e+01
    1.4589967346e+02    2.2734497070e+01
    1.4599967957e+02    2.2757102966e+01
    1.4609970093e+02    2.2779396057e+01
    1.4619970703e+02    2.2801795959e+01
    1.4629969788e+02    2.2824005127e+01
    1.4639970398e+02    2.2846099854e+01
    1.4649971008e+02    2.2868103027e+01
    1.4659971619e+02    2.2890098572e+01
    1.4669973755e+02    2.2911994934e+01
    1.4679974365e+02    2.2933799744e+01
    1.4689973450e+02    2.2955604553e+01
    1.4699974060e+02    2.2977394104e+01
    1.4709974670e+02    2.2999099731e+01
    1.4719976807e+02    2.3020805359e+01
    1.4729977417e+02    2.3042495728e+01
    1.4739976501e+02    2.3064102173e+01
    1.4749977112e+02    2.3085693359e+01
    1.4759979248e+02    2.3107299805e+01
    1.4769978333e+02    2.3128898621e+01
    1.4779977417e+02    2.3150497437e+01
    1.4789981079e+02    2.3172195435e+01
    1.4799980164e+02    2.3193801880e+01
    1.4809982300e+02    2.3215393066e+01
    1.4819981384e+02    2.3236801147e+01
    1.4829983521e+02    2.3258201599e+01
    1.4839982605e+02    2.3279495239e+01
    1.4849984741e+02    2.3300796509e+01
    1.4859983826e+02    2.3321899414e+01
    1.4869984436e+02    2.3342697144e+01
    1.4879983521e+02    2.3363700867e+01
    1.4889987183e+02    2.3384605408e+01
    1.4899986267e+02    2.3405303955e+01
    1.4909986877e+02    2.3424995422e+01
    1.4919987488e+02    2.3445495605e+01
    1.4929989624e+02    2.3465896606e+01
    1.4939990234e+02    2.3486305237e+01
    1.4949989319e+02    2.3506706238e+01
    1.4959989929e+02    2.3527099609e+01
    1.4969990540e+02    2.3546401978e+01
    1.4979991150e+02    2.3566902161e+01
    1.4989991760e+02    2.3587303162e+01
    1.4999992371e+02    2.3608001709e+01
    1.5009992981e+02    2.3652694702e+01
    1.5019995117e+02    2.3697601318e+01
    1.5029995728e+02    2.3741600037e+01
    1.5039996338e+02    2.3786804199e+01
    1.5049995422e+02    2.3832099915e+01
    1.5059994507e+02    2.3877502441e+01
    1.5069996643e+02    2.3921997070e+01
    1.5079997253e+02    2.3967498779e+01
    1.5089999390e+02    2.4012992859e+01
    1.5099998474e+02    2.4058502197e+01
    1.5110000610e+02    2.4103904724e+01
    1.5119999695e+02    2.4148300171e+01
    1.5130001831e+02    2.4193603516e+01
    1.5140000916e+02    2.4238800049e+01
    1.5150003052e+02    2.4284004211e+01
    1.5160003662e+02    2.4328102112e+01
    1.5170002747e+02    2.4373100281e+01
    1.5180003357e+02    2.4418098450e+01
    1.5190003967e+02    2.4463104248e+01
    1.5200004578e+02    2.4507896423e+01
    1.5210006714e+02    2.4551597595e+01
    1.5220005798e+02    2.4596298218e+01
    1.5230007935e+02    2.4640800476e+01
    1.5240008545e+02    2.4685302734e+01
    1.5250009155e+02    2.4729698181e+01
    1.5260008240e+02    2.4773002625e+01
    1.5270008850e+02    2.4817199707e+01
    1.5280010986e+02    2.4861404419e+01
    1.5290011597e+02    2.4905494690e+01
    1.5300012207e+02    2.4948600769e+01
    1.5310011292e+02    2.4992500305e+01
    1.5320013428e+02    2.5036399841e+01
    1.5330014038e+02    2.5080093384e+01
    1.5340014648e+02    2.5123703003e+01
    1.5350013733e+02    2.5166198730e+01
    1.5360014343e+02    2.5209602356e+01
    1.5370014954e+02    2.5252799988e+01
    1.5380015564e+02    2.5295799255e+01
    1.5390017700e+02    2.5337806702e+01
    1.5400018311e+02    2.5380599976e+01
    1.5410017395e+02    2.5423202515e+01
    1.5420019531e+02    2.5465797424e+01
    1.5430018616e+02    2.5508300781e+01
    1.5440019226e+02    2.5549697876e+01
    1.5450018311e+02    2.5591903687e+01
    1.5460020447e+02    2.5634201050e+01
    1.5470021057e+02    2.5676399231e+01
    1.5480023193e+02    2.5718498230e+01
    1.5490022278e+02    2.5759498596e+01
    1.5500021362e+02    2.5801597595e+01
    1.5510025024e+02    2.5843696594e+01
    1.5520025635e+02    2.5885704041e+01
    1.5530024719e+02    2.5926795959e+01
    1.5540025330e+02    2.5968902588e+01
    1.5550027466e+02    2.6011001587e+01
    1.5560026550e+02    2.6053100586e+01
    1.5570027161e+02    2.6095100403e+01
    1.5580026245e+02    2.6136100769e+01
    1.5590028381e+02    2.6177894592e+01
    1.5600030518e+02    2.6219604492e+01
    1.5610031128e+02    2.6261199951e+01
    1.5620031738e+02    2.6301704407e+01
    1.5630030823e+02    2.6342994690e+01
    1.5640031433e+02    2.6384101868e+01
    1.5650033569e+02    2.6425003052e+01
    1.5660032654e+02    2.6465698242e+01
    1.5670034790e+02    2.6505104065e+01
    1.5680035400e+02    2.6545295715e+01
    1.5690036011e+02    2.6585403442e+01
    1.5700035095e+02    2.6625099182e+01
    1.5710037231e+02    2.6664604187e+01
    1.5720036316e+02    2.6702896118e+01
    1.5730036926e+02    2.6741905212e+01
    1.5740037537e+02    2.6780700684e+01
    1.5750038147e+02    2.6819297791e+01
    1.5760040283e+02    2.6857696533e+01
    1.5770039368e+02    2.6894897461e+01
    1.5780041504e+02    2.6932998657e+01
    1.5790040588e+02    2.6970901489e+01
    1.5800042725e+02    2.7008705139e+01
    1.5810040283e+02    2.7045501709e+01
    1.5820043945e+02    2.7083000183e+01
    1.5830044556e+02    2.7120498657e+01
    1.5840043640e+02    2.7157905579e+01
    1.5850044250e+02    2.7195198059e+01
    1.5860043335e+02    2.7231300354e+01
    1.5870045471e+02    2.7268295288e+01
    1.5880046082e+02    2.7305198669e+01
    1.5890046692e+02    2.7341896057e+01
    1.5900047302e+02    2.7377502441e+01
    1.5910047913e+02    2.7413993835e+01
    1.5920048523e+02    2.7450202942e+01
    1.5930050659e+02    2.7486404419e+01
    1.5940049744e+02    2.7522399902e+01
    1.5950050354e+02    2.7557106018e+01
    1.5960052490e+02    2.7592796326e+01
    1.5970051575e+02    2.7628204346e+01
    1.5980052185e+02    2.7663398743e+01
    1.5990054321e+02    2.7698402405e+01
    1.6000054932e+02    2.7732200623e+01
    1.6010055542e+02    2.7788894653e+01
    1.6020054626e+02    2.7845405579e+01
    1.6030056763e+02    2.7900703430e+01
    1.6040055847e+02    2.7956802368e+01
    1.6050056458e+02    2.8012702942e+01
    1.6060058594e+02    2.8068397522e+01
    1.6070057678e+02    2.8123001099e+01
    1.6080058289e+02    2.8178398132e+01
    1.6090060425e+02    2.8233497620e+01
    1.6100059509e+02    2.8287399292e+01
    1.6110060120e+02    2.8342102051e+01
    1.6120062256e+02    2.8396499634e+01
    1.6130061340e+02    2.8449798584e+01
    1.6140063477e+02    2.8503799438e+01
    1.6150064087e+02    2.8557601929e+01
    1.6160064697e+02    2.8610107422e+01
    1.6170062256e+02    2.8663497925e+01
    1.6180064392e+02    2.8716606140e+01
    1.6190065002e+02    2.8769393921e+01
    1.6200065613e+02    2.8820999146e+01
    1.6210067749e+02    2.8873001099e+01
    1.6220068359e+02    2.8924995422e+01
    1.6230067444e+02    2.8975990295e+01
    1.6240068054e+02    2.9027000427e+01
    1.6250068665e+02    2.9078002930e+01
    1.6260069275e+02    2.9128005981e+01
    1.6270071411e+02    2.9177993774e+01
    1.6280070496e+02    2.9229003906e+01
    1.6290071106e+02    2.9277000427e+01
    1.6300071716e+02    2.9326995850e+01
    1.6310073853e+02    2.9375999451e+01
    1.6320074463e+02    2.9424995422e+01
    1.6330073547e+02    2.9473007202e+01
    1.6340074158e+02    2.9520996094e+01
    1.6350074768e+02    2.9569007874e+01
    1.6360075378e+02    2.9615005493e+01
    1.6370075989e+02    2.9662994385e+01
    1.6380076599e+02    2.9709999084e+01
    1.6390078735e+02    2.9756004333e+01
    1.6400079346e+02    2.9801994324e+01
    1.6410078430e+02    2.9847999573e+01
    1.6420079041e+02    2.9892997742e+01
    1.6430079651e+02    2.9939002991e+01
    1.6440080261e+02    2.9984001160e+01
    1.6450080872e+02    3.0027999878e+01
    1.6460081482e+02    3.0073005676e+01
    1.6470082092e+02    3.0116996765e+01
    1.6480082703e+02    3.0161003113e+01
    1.6490083313e+02    3.0204002380e+01
    1.6500085449e+02    3.0246994019e+01
    1.6510086060e+02    3.0290000916e+01
    1.6520086670e+02    3.0332000732e+01
    1.6530085754e+02    3.0374008179e+01
    1.6540086365e+02    3.0415992737e+01
    1.6550088501e+02    3.0456993103e+01
    1.6560089111e+02    3.0498001099e+01
    1.6570089722e+02    3.0538993835e+01
    1.6580090332e+02    3.0577995300e+01
    1.6590089417e+02    3.0617996216e+01
    1.6600090027e+02    3.0658004761e+01
    1.6610090637e+02    3.0696998596e+01
    1.6620091248e+02    3.0735000610e+01
    1.6630093384e+02    3.0774002075e+01
    1.6640092468e+02    3.0811996460e+01
    1.6650094604e+02    3.0848991394e+01
    1.6660093689e+02    3.0886001587e+01
    1.6670094299e+02    3.0922996521e+01
    1.6680096436e+02    3.0959007263e+01
    1.6690095520e+02    3.0994995117e+01
    1.6700097656e+02    3.1031005859e+01
    1.6710098267e+02    3.1066001892e+01
    1.6720097351e+02    3.1100997925e+01
    1.6730097961e+02    3.1135002136e+01
    1.6740098572e+02    3.1169990540e+01
    1.6750099182e+02    3.1202995300e+01
    1.6760099792e+02    3.1236000061e+01
    1.6770100403e+02    3.1269004822e+01
    1.6780101013e+02    3.1301010132e+01
    1.6790103149e+02    3.1333000183e+01
    1.6800102234e+02    3.1365005493e+01
    1.6810102844e+02    3.1395004272e+01
    1.6820103455e+02    3.1425994873e+01
    1.6830105591e+02    3.1457000732e+01
    1.6840104675e+02    3.1486000061e+01
    1.6850105286e+02    3.1515991211e+01
    1.6860107422e+02    3.1545997620e+01
    1.6870106506e+02    3.1575004578e+01
    1.6880107117e+02    3.1603004456e+01
    1.6890109253e+02    3.1630996704e+01
    1.6900109863e+02    3.1659004211e+01
    1.6910107422e+02    3.1685005188e+01
    1.6920109558e+02    3.1712997437e+01
    1.6930110168e+02    3.1738998413e+01
    1.6940110779e+02    3.1764999390e+01
    1.6950111389e+02    3.1791007996e+01
    1.6960113525e+02    3.1816001892e+01
    1.6970114136e+02    3.1839996338e+01
    1.6980114746e+02    3.1865005493e+01
    1.6990113831e+02    3.1888992310e+01
    1.7000114441e+02    3.1913002014e+01
    1.7010115051e+02    3.1957000732e+01
    1.7020117188e+02    3.1999992371e+01
    1.7030117798e+02    3.2042007446e+01
    1.7040116882e+02    3.2083999634e+01
    1.7050117493e+02    3.2125991821e+01
    1.7060119629e+02    3.2167007446e+01
    1.7070118713e+02    3.2208000183e+01
    1.7080119324e+02    3.2249000549e+01
    1.7090119934e+02    3.2288993835e+01
    1.7100120544e+02    3.2328002930e+01
    1.7110121155e+02    3.2366996765e+01
    1.7120121765e+02    3.2405998230e+01
    1.7130122375e+02    3.2444007874e+01
    1.7140124512e+02    3.2482002258e+01
    1.7150123596e+02    3.2518997192e+01
    1.7160125732e+02    3.2555992126e+01
    1.7170126343e+02    3.2593002319e+01
    1.7180125427e+02    3.2628997803e+01
    1.7190124512e+02    3.2664993286e+01
    1.7200128174e+02    3.2700996399e+01
    1.7210128784e+02    3.2735992432e+01
    1.7220129395e+02    3.2770004272e+01
    1.7230128479e+02    3.2804000854e+01
    1.7240129089e+02    3.2837997437e+01
    1.7250129700e+02    3.2871009827e+01
    1.7260130310e+02    3.2903999329e+01
    1.7270130920e+02    3.2935997009e+01
    1.7280133057e+02    3.2967994690e+01
    1.7290133667e+02    3.2999000549e+01
    1.7300134277e+02    3.3029998779e+01
    1.7310134888e+02    3.3059997559e+01
    1.7320135498e+02    3.3089004517e+01
    1.7330134583e+02    3.3119003296e+01
    1.7340136719e+02    3.3146995544e+01
    1.7350134277e+02    3.3174995422e+01
    1.7360136414e+02    3.3203002930e+01
    1.7370137024e+02    3.3228996277e+01
    1.7380137634e+02    3.3255996704e+01
    1.7390138245e+02    3.3282005310e+01
    1.7400140381e+02    3.3306999207e+01
    1.7410140991e+02    3.3332000732e+01
    1.7420140076e+02    3.3355995178e+01
    1.7430140686e+02    3.3380004883e+01
    1.7440141296e+02    3.3402999878e+01
    1.7450140381e+02    3.3425994873e+01
    1.7460144043e+02    3.3449005127e+01
    1.7470144653e+02    3.3471000671e+01
    1.7480143738e+02    3.3493003845e+01
    1.7490144348e+02    3.3513999939e+01
    1.7500146484e+02    3.3534996033e+01
    1.7510145569e+02    3.3555007935e+01
    1.7520146179e+02    3.3574005127e+01
    1.7530148315e+02    3.3593002319e+01
    1.7540148926e+02    3.3611999512e+01
    1.7550148010e+02    3.3630004883e+01
    1.7560148621e+02    3.3647994995e+01
    1.7570150757e+02    3.3664993286e+01
    1.7580148315e+02    3.3682006836e+01
    1.7590151978e+02    3.3697998047e+01
    1.7600151062e+02    3.3713989258e+01
    1.7610153198e+02    3.3728988647e+01
    1.7620152283e+02    3.3744003296e+01
    1.7630151367e+02    3.3757995605e+01
    1.7640153503e+02    3.3771987915e+01
    1.7650154114e+02    3.3785003662e+01
    1.7660154724e+02    3.3796997070e+01
    1.7670155334e+02    3.3809997559e+01
    1.7680157471e+02    3.3821014404e+01
    1.7690158081e+02    3.3832000732e+01
    1.7700157166e+02    3.3843002319e+01
    1.7710159302e+02    3.3852996826e+01
    1.7720158386e+02    3.3863006592e+01
    1.7730160522e+02    3.3872985840e+01
    1.7740161133e+02    3.3880996704e+01
    1.7750160217e+02    3.3888992310e+01
    1.7760162354e+02    3.3896987915e+01
    1.7770162964e+02    3.3904006958e+01
    1.7780160522e+02    3.3910995483e+01
    1.7790162659e+02    3.3916992188e+01
    1.7800163269e+02    3.3923004150e+01
    1.7810163879e+02    3.3928009033e+01
    1.7820164490e+02    3.3932998657e+01
    1.7830163574e+02    3.3936996460e+01
    1.7840167236e+02    3.3941009521e+01
    1.7850167847e+02    3.3944000244e+01
    1.7860168457e+02    3.3946990967e+01
    1.7870167542e+02    3.3949005127e+01
    1.7880169678e+02    3.3951004028e+01
    1.7890170288e+02    3.3951995850e+01
    1.7900169373e+02    3.3952987671e+01
    1.7910169983e+02    3.3953002930e+01
    1.7920170593e+02    3.3953002930e+01
    1.7930172729e+02    3.3951995850e+01
    1.7940173340e+02    3.3951004028e+01
    1.7950172424e+02    3.3949005127e+01
    1.7960173035e+02    3.3946990967e+01
    1.7970173645e+02    3.3944000244e+01
    1.7980174255e+02    3.3941009521e+01
    1.7990176392e+02    3.3938003540e+01
    1.8000177002e+02    3.3934005737e+01
    1.8010176086e+02    3.3946990967e+01
    1.8020178223e+02    3.3959991455e+01
    1.8030177307e+02    3.3971008301e+01
    1.8040179443e+02    3.3982986450e+01
    1.8050178528e+02    3.3994003296e+01
    1.8060180664e+02    3.4005004883e+01
    1.8070181274e+02    3.4014999390e+01
    1.8080181885e+02    3.4024993896e+01
    1.8090180969e+02    3.4034011841e+01
    1.8100181580e+02    3.4042007446e+01
    1.8110182190e+02    3.4050994873e+01
    1.8120184326e+02    3.4058990479e+01
    1.8130183411e+02    3.4065994263e+01
    1.8140184021e+02    3.4073013306e+01
    1.8150184631e+02    3.4080001831e+01
    1.8160185242e+02    3.4085006714e+01
    1.8170187378e+02    3.4091003418e+01
    1.8180187988e+02    3.4095993042e+01
    1.8190188599e+02    3.4100997925e+01
    1.8200187683e+02    3.4104003906e+01
    1.8210188293e+02    3.4108001709e+01
    1.8220190430e+02    3.4111007690e+01
    1.8230191040e+02    3.4113998413e+01
    1.8240191650e+02    3.4114990234e+01
    1.8250190735e+02    3.4115997314e+01
    1.8260191345e+02    3.4118011475e+01
    1.8270193481e+02    3.4117996216e+01
    1.8280192566e+02    3.4117996216e+01
    1.8290191650e+02    3.4116989136e+01
    1.8300193787e+02    3.4116989136e+01
    1.8310194397e+02    3.4115005493e+01
    1.8320196533e+02    3.4113006592e+01
    1.8330195618e+02    3.4110992432e+01
    1.8340197754e+02    3.4108001709e+01
    1.8350198364e+02    3.4103988647e+01
    1.8360197449e+02    3.4100997925e+01
    1.8370199585e+02    3.4096008301e+01
    1.8380198669e+02    3.4089996338e+01
    1.8390199280e+02    3.4085006714e+01
    1.8400199890e+02    3.4078994751e+01
    1.8410200500e+02    3.4073989868e+01
    1.8420201111e+02    3.4066009521e+01
    1.8430201721e+02    3.4059997559e+01
    1.8440202332e+02    3.4052001953e+01
    1.8450202942e+02    3.4044006348e+01
    1.8460203552e+02    3.4034988403e+01
    1.8470204163e+02    3.4026992798e+01
    1.8480206299e+02    3.4018005371e+01
    1.8490205383e+02    3.4009002686e+01
    1.8500205994e+02    3.3998001099e+01
    1.8510206604e+02    3.3987014771e+01
    1.8520207214e+02    3.3976989746e+01
    1.8530209351e+02    3.3964996338e+01
    1.8540208435e+02    3.3954010010e+01
    1.8550209045e+02    3.3942001343e+01
    1.8560209656e+02    3.3929992676e+01
    1.8570210266e+02    3.3917007446e+01
    1.8580210876e+02    3.3903991699e+01
    1.8590213013e+02    3.3889999390e+01
    1.8600213623e+02    3.3876998901e+01
    1.8610212708e+02    3.3861999512e+01
    1.8620213318e+02    3.3847991943e+01
    1.8630213928e+02    3.3832000732e+01
    1.8640216064e+02    3.3816986084e+01
    1.8650216675e+02    3.3800003052e+01
    1.8660217285e+02    3.3782989502e+01
    1.8670216370e+02    3.3766998291e+01
    1.8680218506e+02    3.3749008179e+01
    1.8690219116e+02    3.3732009888e+01
    1.8700219727e+02    3.3712997437e+01
    1.8710220337e+02    3.3695007324e+01
    1.8720219421e+02    3.3675003052e+01
    1.8730220032e+02    3.3655990601e+01
    1.8740222168e+02    3.3636001587e+01
    1.8750221252e+02    3.3616012573e+01
    1.8760223389e+02    3.3595001221e+01
    1.8770223999e+02    3.3574005127e+01
    1.8780223083e+02    3.3552001953e+01
    1.8790223694e+02    3.3529998779e+01
    1.8800224304e+02    3.3508010864e+01
    1.8810226440e+02    3.3485000610e+01
    1.8820227051e+02    3.3462997437e+01
    1.8830227661e+02    3.3438995361e+01
    1.8840228271e+02    3.3416000366e+01
    1.8850227356e+02    3.3391998291e+01
    1.8860229492e+02    3.3368011475e+01
    1.8870230103e+02    3.3343002319e+01
    1.8880230713e+02    3.3319000244e+01
    1.8890228271e+02    3.3293991089e+01
    1.8900230408e+02    3.3268997192e+01
    1.8910231018e+02    3.3243011475e+01
    1.8920231628e+02    3.3216003418e+01
    1.8930233765e+02    3.3190994263e+01
    1.8940231323e+02    3.3163986206e+01
    1.8950234985e+02    3.3136993408e+01
    1.8960235596e+02    3.3110000610e+01
    1.8970236206e+02    3.3083007812e+01
    1.8980235291e+02    3.3054000854e+01
    1.8990235901e+02    3.3026992798e+01
    1.9000238037e+02    3.2998992920e+01
    1.9010238647e+02    3.2985000610e+01
    1.9020239258e+02    3.2970001221e+01
    1.9030238342e+02    3.2955001831e+01
    1.9040240479e+02    3.2940002441e+01
    1.9050239563e+02    3.2925003052e+01
    1.9060241699e+02    3.2909011841e+01
    1.9070242310e+02    3.2894012451e+01
    1.9080241394e+02    3.2878005981e+01
    1.9090243530e+02    3.2860992432e+01
    1.9100244141e+02    3.2843994141e+01
    1.9110244751e+02    3.2826995850e+01
    1.9120242310e+02    3.2809997559e+01
    1.9130244446e+02    3.2791992188e+01
    1.9140245056e+02    3.2774993896e+01
    1.9150245667e+02    3.2756011963e+01
    1.9160246277e+02    3.2737991333e+01
    1.9170248413e+02    3.2719009399e+01
    1.9180247498e+02    3.2699996948e+01
    1.9190249634e+02    3.2680999756e+01
    1.9200250244e+02    3.2662002563e+01
    1.9210249329e+02    3.2643997192e+01
    1.9220251465e+02    3.2623992920e+01
    1.9230250549e+02    3.2604003906e+01
    1.9240252686e+02    3.2583999634e+01
    1.9250253296e+02    3.2564010620e+01
    1.9260253906e+02    3.2542999268e+01
    1.9270252991e+02    3.2521987915e+01
    1.9280255127e+02    3.2501998901e+01
    1.9290255737e+02    3.2481002808e+01
    1.9300256348e+02    3.2458999634e+01
    1.9310255432e+02    3.2438003540e+01
    1.9320257568e+02    3.2416000366e+01
    1.9330258179e+02    3.2394012451e+01
    1.9340257263e+02    3.2371002197e+01
    1.9350256348e+02    3.2350006104e+01
    1.9360260010e+02    3.2327011108e+01
    1.9370260620e+02    3.2304000854e+01
    1.9380259705e+02    3.2280990601e+01
    1.9390260315e+02    3.2257995605e+01
    1.9400260925e+02    3.2233993530e+01
    1.9410261536e+02    3.2210998535e+01
    1.9420263672e+02    3.2188003540e+01
    1.9430262756e+02    3.2164001465e+01
    1.9440263367e+02    3.2139999390e+01
[...]
    2.5130612183e+02    3.0052001953e+01
    2.5140611267e+02    3.0019012451e+01
    2.5150611877e+02    2.9985992432e+01
    2.5160612488e+02    2.9953002930e+01
    2.5170613098e+02    2.9919006348e+01
    2.5180613708e+02    2.9885986328e+01
    2.5190614319e+02    2.9854003906e+01
    2.5200613403e+02    2.9821014404e+01
    2.5210615540e+02    2.9787994385e+01
    2.5220617676e+02    2.9755004883e+01
    2.5230616760e+02    2.9722015381e+01
    2.5240617371e+02    2.9687988281e+01
    2.5250619507e+02    2.9654998779e+01
    2.5260618591e+02    2.9622009277e+01
    2.5270619202e+02    2.9589996338e+01
    2.5280618286e+02    2.9557006836e+01
    2.5290620422e+02    2.9523986816e+01
    2.5300622559e+02    2.9489990234e+01
    2.5310623169e+02    2.9457000732e+01
    2.5320623779e+02    2.9423980713e+01
    2.5330622864e+02    2.9390991211e+01
    2.5340625000e+02    2.9359008789e+01
    2.5350625610e+02    2.9325988770e+01
    2.5360624695e+02    2.9292999268e+01
    2.5370625305e+02    2.9259002686e+01
    2.5380625916e+02    2.9226989746e+01
    2.5390626526e+02    2.9194000244e+01
    2.5400625610e+02    2.9161987305e+01
    2.5410627747e+02    2.9128997803e+01
    2.5420629883e+02    2.9096984863e+01
    2.5430628967e+02    2.9063995361e+01
    2.5440629578e+02    2.9031982422e+01
    2.5450630188e+02    2.8998992920e+01
    2.5460632324e+02    2.8966979980e+01
    2.5470632935e+02    2.8934997559e+01
    2.5480632019e+02    2.8903991699e+01
    2.5490632629e+02    2.8871978760e+01
    2.5500633240e+02    2.8838989258e+01
    2.5510632324e+02    2.8807983398e+01
    2.5520634460e+02    2.8776000977e+01
    2.5530635071e+02    2.8744995117e+01
    2.5540635681e+02    2.8712982178e+01
    2.5550637817e+02    2.8681976318e+01
    2.5560636902e+02    2.8650024414e+01
    2.5570637512e+02    2.8619018555e+01
    2.5580639648e+02    2.8587982178e+01
    2.5590640259e+02    2.8556976318e+01
    2.5600637817e+02    2.8526000977e+01
    2.5610638428e+02    2.8496002197e+01
    2.5620639038e+02    2.8464019775e+01
    2.5630639648e+02    2.8434020996e+01
    2.5640640259e+02    2.8403015137e+01
    2.5650640869e+02    2.8373016357e+01
    2.5660641479e+02    2.8342010498e+01
    2.5670642090e+02    2.8312011719e+01
    2.5680642700e+02    2.8281982422e+01
    2.5690643311e+02    2.8251007080e+01
    2.5700643921e+02    2.8221008301e+01
    2.5710644531e+02    2.8192016602e+01
    2.5720645142e+02    2.8162017822e+01
    2.5730645752e+02    2.8132019043e+01
    2.5740646362e+02    2.8103027344e+01
    2.5750646973e+02    2.8072021484e+01
    2.5760647583e+02    2.8042999268e+01
    2.5770648193e+02    2.8014007568e+01
    2.5780648804e+02    2.7985015869e+01
    2.5790649414e+02    2.7956024170e+01
    2.5800650024e+02    2.7927001953e+01
    2.5810650635e+02    2.7898010254e+01
    2.5820651245e+02    2.7868011475e+01
    2.5830651855e+02    2.7839019775e+01
    2.5840652466e+02    2.7811004639e+01
    2.5850653076e+02    2.7782012939e+01
    2.5860653687e+02    2.7753997803e+01
    2.5870654297e+02    2.7726013184e+01
    2.5880654907e+02    2.7697998047e+01
    2.5890655518e+02    2.7669006348e+01
    2.5900656128e+02    2.7640991211e+01
    2.5910656738e+02    2.7613006592e+01
    2.5920657349e+02    2.7584991455e+01
    2.5930657959e+02    2.7557006836e+01
    2.5940658569e+02    2.7529998779e+01
    2.5950659180e+02    2.7501007080e+01
    2.5960659790e+02    2.7473999023e+01
    2.5970660400e+02    2.7446990967e+01
    2.5980661011e+02    2.7419006348e+01
    2.5990661621e+02    2.7391998291e+01
    2.6000662231e+02    2.7364990234e+01
    2.6010662842e+02    2.7338012695e+01
    2.6020663452e+02    2.7313018799e+01
    2.6030664062e+02    2.7286010742e+01
    2.6040664673e+02    2.7259979248e+01
    2.6050665283e+02    2.7234985352e+01
    2.6060665894e+02    2.7208007812e+01
    2.6070666504e+02    2.7183013916e+01
    2.6080667114e+02    2.7157012939e+01
    2.6090667725e+02    2.7131011963e+01
    2.6100668335e+02    2.7104980469e+01
    2.6110668945e+02    2.7079986572e+01
    2.6120669556e+02    2.7054992676e+01
    2.6130670166e+02    2.7029998779e+01
    2.6140667725e+02    2.7005004883e+01
    2.6150671387e+02    2.6980010986e+01
    2.6160671997e+02    2.6954986572e+01
    2.6170672607e+02    2.6929992676e+01
    2.6180673218e+02    2.6904998779e+01
    2.6190670776e+02    2.6880004883e+01
    2.6200674438e+02    2.6856018066e+01
    2.6210675049e+02    2.6830993652e+01
    2.6220675659e+02    2.6807006836e+01
    2.6230676270e+02    2.6782989502e+01
    2.6240676880e+02    2.6757995605e+01
    2.6250677490e+02    2.6734008789e+01
    2.6260678101e+02    2.6709991455e+01
    2.6270678711e+02    2.6686004639e+01
    2.6280679321e+02    2.6662017822e+01
    2.6290679932e+02    2.6638000488e+01
    2.6300677490e+02    2.6614990234e+01
    2.6310681152e+02    2.6591003418e+01
    2.6320678711e+02    2.6567993164e+01
    2.6330682373e+02    2.6544006348e+01
    2.6340679932e+02    2.6520996094e+01
    2.6350680542e+02    2.6497009277e+01
    2.6360684204e+02    2.6473999023e+01
    2.6370684814e+02    2.6450988770e+01
    2.6380685425e+02    2.6428009033e+01
    2.6390686035e+02    2.6406005859e+01
    2.6400683594e+02    2.6382019043e+01
    2.6410687256e+02    2.6360015869e+01
    2.6420687866e+02    2.6337005615e+01
    2.6430688477e+02    2.6315002441e+01
    2.6440689087e+02    2.6291992188e+01
    2.6450689697e+02    2.6269989014e+01
    2.6460690308e+02    2.6247009277e+01
    2.6470690918e+02    2.6225006104e+01
    2.6480691528e+02    2.6203979492e+01
    2.6490692139e+02    2.6180999756e+01
    2.6500692749e+02    2.6158996582e+01
    2.6510693359e+02    2.6136993408e+01
    2.6520693970e+02    2.6115997314e+01
    2.6530694580e+02    2.6093994141e+01
    2.6540695190e+02    2.6072021484e+01
    2.6550695801e+02    2.6050994873e+01
    2.6560696411e+02    2.6028991699e+01
    2.6570697021e+02    2.6007995605e+01
    2.6580697632e+02    2.5986999512e+01
    2.6590698242e+02    2.5966003418e+01
    2.6600698853e+02    2.5944000244e+01
    2.6610699463e+02    2.5924011230e+01
    2.6620700073e+02    2.5902008057e+01
    2.6630697632e+02    2.5881988525e+01
    2.6640701294e+02    2.5861999512e+01
    2.6650701904e+02    2.5839996338e+01
    2.6660702515e+02    2.5820007324e+01
    2.6670703125e+02    2.5799011230e+01
    2.6680703735e+02    2.5778991699e+01
    2.6690704346e+02    2.5757995605e+01
    2.6700704956e+02    2.5738006592e+01
    2.6710705566e+02    2.5717010498e+01
    2.6720706177e+02    2.5697998047e+01
    2.6730706787e+02    2.5678009033e+01
    2.6740707397e+02    2.5658020020e+01
    2.6750708008e+02    2.5638000488e+01
    2.6760708618e+02    2.5617980957e+01
    2.6770709229e+02    2.5597991943e+01
    2.6780709839e+02    2.5578002930e+01
    2.6790710449e+02    2.5559020996e+01
    2.6800711060e+02    2.5540008545e+01
    2.6810711670e+02    2.5518981934e+01
    2.6820712280e+02    2.5500000000e+01
    2.6830712891e+02    2.5479980469e+01
    2.6840713501e+02    2.5460998535e+01
    2.6850714111e+02    2.5442016602e+01
    2.6860714722e+02    2.5423004150e+01
    2.6870715332e+02    2.5403015137e+01
    2.6880715942e+02    2.5384002686e+01
    2.6890716553e+02    2.5365997314e+01
    2.6900717163e+02    2.5346008301e+01
    2.6910717773e+02    2.5326995850e+01
    2.6920718384e+02    2.5308013916e+01
    2.6930718994e+02    2.5289001465e+01
    2.6940719604e+02    2.5270019531e+01
    2.6950720215e+02    2.5250976562e+01
    2.6960720825e+02    2.5233001709e+01
    2.6970721436e+02    2.5213012695e+01
    2.6980722046e+02    2.5195007324e+01
    2.6990722656e+02    2.5175018311e+01
    2.7000723267e+02    2.5156982422e+01
    2.7010723877e+02    2.5136016846e+01
    2.7020724487e+02    2.5113983154e+01
    2.7030725098e+02    2.5092987061e+01
    2.7040722656e+02    2.5072021484e+01
    2.7050726318e+02    2.5050994873e+01
    2.7060726929e+02    2.5029998779e+01
    2.7070727539e+02    2.5009002686e+01
    2.7080728149e+02    2.4987976074e+01
    2.7090728760e+02    2.4967010498e+01
    2.7100729370e+02    2.4946014404e+01
    2.7110729980e+02    2.4924011230e+01
    2.7120730591e+02    2.4902984619e+01
    2.7130731201e+02    2.4880981445e+01
    2.7140731812e+02    2.4859008789e+01
    2.7150732422e+02    2.4837005615e+01
    2.7160733032e+02    2.4815979004e+01
    2.7170733643e+02    2.4793975830e+01
    2.7180734253e+02    2.4772003174e+01
    2.7190734863e+02    2.4750000000e+01
    2.7200735474e+02    2.4727996826e+01
    2.7210736084e+02    2.4705993652e+01
    2.7220736694e+02    2.4683013916e+01
    2.7230737305e+02    2.4660003662e+01
    2.7240737915e+02    2.4638000488e+01
    2.7250738525e+02    2.4614990234e+01
    2.7260739136e+02    2.4591979980e+01
    2.7270739746e+02    2.4567016602e+01
    2.7280740356e+02    2.4544006348e+01
    2.7290740967e+02    2.4519989014e+01
    2.7300741577e+02    2.4496978760e+01
    2.7310742188e+02    2.4473022461e+01
    2.7320742798e+02    2.4449005127e+01
    2.7330743408e+02    2.4424987793e+01
    2.7340744019e+02    2.4399993896e+01
    2.7350741577e+02    2.4375976562e+01
    2.7360745239e+02    2.4351013184e+01
    2.7370745850e+02    2.4325988770e+01
    2.7380746460e+02    2.4300994873e+01
    2.7390747070e+02    2.4275024414e+01
    2.7400747681e+02    2.4250000000e+01
    2.7410748291e+02    2.4223999023e+01
    2.7420748901e+02    2.4197998047e+01
    2.7430749512e+02    2.4171997070e+01
    2.7440750122e+02    2.4146026611e+01
    2.7450750732e+02    2.4119995117e+01
    2.7460751343e+02    2.4092987061e+01
    2.7470751953e+02    2.4066986084e+01
    2.7480752563e+02    2.4039001465e+01
    2.7490753174e+02    2.4012023926e+01
    2.7500753784e+02    2.3985015869e+01
    2.7510754395e+02    2.3955993652e+01
    2.7520755005e+02    2.3927978516e+01
    2.7530755615e+02    2.3900024414e+01
    2.7540756226e+02    2.3872009277e+01
    2.7550756836e+02    2.3842987061e+01
    2.7560757446e+02    2.3813995361e+01
    2.7570758057e+02    2.3785003662e+01
    2.7580758667e+02    2.3756011963e+01
    2.7590759277e+02    2.3726013184e+01
    2.7600759888e+02    2.3696990967e+01
    2.7610760498e+02    2.3666992188e+01
    2.7620761108e+02    2.3636016846e+01
    2.7630761719e+02    2.3606018066e+01
    2.7640762329e+02    2.3574005127e+01
    2.7650762939e+02    2.3542999268e+01
    2.7660763550e+02    2.3512023926e+01
    2.7670764160e+02    2.3481018066e+01
    2.7680764771e+02    2.3449005127e+01
    2.7690765381e+02    2.3416992188e+01
    2.7700765991e+02    2.3384979248e+01
    2.7710766602e+02    2.3352020264e+01
    2.7720767212e+02    2.3320007324e+01
    2.7730767822e+02    2.3286987305e+01
    2.7740768433e+02    2.3253997803e+01
    2.7750769043e+02    2.3219970703e+01
    2.7760769653e+02    2.3186004639e+01
    2.7770770264e+02    2.3152008057e+01
    2.7780770874e+02    2.3117004395e+01
    2.7790771484e+02    2.3083007812e+01
    2.7800772095e+02    2.3048004150e+01
    2.7810772705e+02    2.3013000488e+01
    2.7820773315e+02    2.2977996826e+01
    2.7830770874e+02    2.2941986084e+01
    2.7840774536e+02    2.2906005859e+01
    2.7850775146e+02    2.2869995117e+01
    2.7860775757e+02    2.2834014893e+01
    2.7870776367e+02    2.2796997070e+01
    2.7880776978e+02    2.2760009766e+01
    2.7890774536e+02    2.2722015381e+01
    2.7900778198e+02    2.2684997559e+01
    2.7910775757e+02    2.2647003174e+01
    2.7920779419e+02    2.2608978271e+01
    2.7930780029e+02    2.2571014404e+01
    2.7940780640e+02    2.2532012939e+01
    2.7950781250e+02    2.2493011475e+01
    2.7960781860e+02    2.2453979492e+01
    2.7970782471e+02    2.2415008545e+01
    2.7980783081e+02    2.2375000000e+01
    2.7990783691e+02    2.2334991455e+01
    2.8000784302e+02    2.2293975830e+01
    2.8010784912e+02    2.2250000000e+01
    2.8020785522e+02    2.2204986572e+01
    2.8030786133e+02    2.2160003662e+01
    2.8040786743e+02    2.2115020752e+01
    2.8050787354e+02    2.2070007324e+01
    2.8060787964e+02    2.2024017334e+01
    2.8070788574e+02    2.1977996826e+01
    2.8080789185e+02    2.1932006836e+01
    2.8090789795e+02    2.1885009766e+01
    2.8100790405e+02    2.1838012695e+01
    2.8110791016e+02    2.1791015625e+01
    2.8120791626e+02    2.1743011475e+01
    2.8130792236e+02    2.1695007324e+01
    2.8140792847e+02    2.1648010254e+01
    2.8150793457e+02    2.1598999023e+01
    2.8160794067e+02    2.1549987793e+01
    2.8170794678e+02    2.1500976562e+01
    2.8180795288e+02    2.1450988770e+01
    2.8190795898e+02    2.1401000977e+01
    2.8200796509e+02    2.1351989746e+01
    2.8210797119e+02    2.1301025391e+01
    2.8220794678e+02    2.1250000000e+01
    2.8230798340e+02    2.1200012207e+01
    2.8240798950e+02    2.1148010254e+01
    2.8250799561e+02    2.1096008301e+01
    2.8260800171e+02    2.1044006348e+01
    2.8270800781e+02    2.0993011475e+01
    2.8280801392e+02    2.0940002441e+01
    2.8290802002e+02    2.0885986328e+01
    2.8300802612e+02    2.0833984375e+01
    2.8310803223e+02    2.0779998779e+01
    2.8320803833e+02    2.0725982666e+01
    2.8330804443e+02    2.0671997070e+01
    2.8340805054e+02    2.0617980957e+01
    2.8350805664e+02    2.0562011719e+01
    2.8360806274e+02    2.0507995605e+01
    2.8370806885e+02    2.0452026367e+01
    2.8380807495e+02    2.0395996094e+01
    2.8390808105e+02    2.0341003418e+01
    2.8400808716e+02    2.0283996582e+01
    2.8410809326e+02    2.0226989746e+01
    2.8420809937e+02    2.0170013428e+01
    2.8430810547e+02    2.0113006592e+01
    2.8440811157e+02    2.0054992676e+01
    2.8450811768e+02    1.9997009277e+01
    2.8460812378e+02    1.9938995361e+01
    2.8470812988e+02    1.9880004883e+01
    2.8480813599e+02    1.9819976807e+01
    2.8490814209e+02    1.9761993408e+01
    2.8500814819e+02    1.9701995850e+01
    2.8510815430e+02    1.9641021729e+01
    2.8520816040e+02    1.9582000732e+01
    2.8530816650e+02    1.9520996094e+01
    2.8540817261e+02    1.9459014893e+01
    2.8550817871e+02    1.9399017334e+01
    2.8560818481e+02    1.9337005615e+01
    2.8570819092e+02    1.9273986816e+01
    2.8580819702e+02    1.9213012695e+01
    2.8590820312e+02    1.9149993896e+01
    2.8600820923e+02    1.9087005615e+01
    2.8610821533e+02    1.9023986816e+01
    2.8620822144e+02    1.8959991455e+01
    2.8630822754e+02    1.8895996094e+01
    2.8640823364e+02    1.8832000732e+01
    2.8650823975e+02    1.8767974854e+01
    2.8660824585e+02    1.8701995850e+01
    2.8670825195e+02    1.8637023926e+01
    2.8680825806e+02    1.8572021484e+01
    2.8690826416e+02    1.8506011963e+01
    2.8700827026e+02    1.8438995361e+01
    2.8710827637e+02    1.8374023438e+01
    2.8720828247e+02    1.8305969238e+01
    2.8730828857e+02    1.8239013672e+01
    2.8740829468e+02    1.8171997070e+01
    2.8750830078e+02    1.8104034424e+01
    2.8760830688e+02    1.8036010742e+01
    2.8770831299e+02    1.7967987061e+01
    2.8780831909e+02    1.7899017334e+01
    2.8790832520e+02    1.7829986572e+01
    2.8800833130e+02    1.7760986328e+01
    2.8810833740e+02    1.7691009521e+01
    2.8820834351e+02    1.7620971680e+01
    2.8830834961e+02    1.7550994873e+01
    2.8840835571e+02    1.7480010986e+01
    2.8850836182e+02    1.7408966064e+01
    2.8860836792e+02    1.7337982178e+01
    2.8870837402e+02    1.7266998291e+01
    2.8880838013e+02    1.7193969727e+01
    2.8890838623e+02    1.7122009277e+01
    2.8900839233e+02    1.7050018311e+01
    2.8910839844e+02    1.6977020264e+01
    2.8920840454e+02    1.6902984619e+01
    2.8930841064e+02    1.6830993652e+01
    2.8940841675e+02    1.6757019043e+01
    2.8950842285e+02    1.6681976318e+01
    2.8960839844e+02    1.6608001709e+01
    2.8970843506e+02    1.6533020020e+01
    2.8980844116e+02    1.6457977295e+01
    2.8990844727e+02    1.6382995605e+01
    2.9000845337e+02    1.6307006836e+01
    2.9010845947e+02    1.6225982666e+01
    2.9020843506e+02    1.6144989014e+01
    2.9030847168e+02    1.6063995361e+01
    2.9040847778e+02    1.5981018066e+01
    2.9050848389e+02    1.5898986816e+01
    2.9060848999e+02    1.5816986084e+01
    2.9070849609e+02    1.5734008789e+01
    2.9080850220e+02    1.5650024414e+01
    2.9090850830e+02    1.5568023682e+01
    2.9100851440e+02    1.5483978271e+01
    2.9110852051e+02    1.5398986816e+01
    2.9120852661e+02    1.5316009521e+01
    2.9130853271e+02    1.5231018066e+01
    2.9140853882e+02    1.5144989014e+01
    2.9150854492e+02    1.5060974121e+01
    2.9160855103e+02    1.4975006104e+01
    2.9170855713e+02    1.4889007568e+01
    2.9180856323e+02    1.4803039551e+01
    2.9190856934e+02    1.4716003418e+01
    2.9200857544e+02    1.4628967285e+01
    2.9210858154e+02    1.4542968750e+01
    2.9220858765e+02    1.4455017090e+01
    2.9230859375e+02    1.4368041992e+01
    2.9240859985e+02    1.4279968262e+01
    2.9250860596e+02    1.4190979004e+01
    2.9260861206e+02    1.4102966309e+01
    2.9270861816e+02    1.4014038086e+01
    2.9280862427e+02    1.3923950195e+01
    2.9290863037e+02    1.3834960938e+01
    2.9300863647e+02    1.3744995117e+01
    2.9310864258e+02    1.3655029297e+01
    2.9320864868e+02    1.3565002441e+01
    2.9330865479e+02    1.3473999023e+01
    2.9340866089e+02    1.3382995605e+01
    2.9350866699e+02    1.3292968750e+01
    2.9360867310e+02    1.3200988770e+01
    2.9370867920e+02    1.3108947754e+01
    2.9380868530e+02    1.3018005371e+01
    2.9390869141e+02    1.2926025391e+01
    2.9400869751e+02    1.2833007812e+01
    2.9410870361e+02    1.2741027832e+01
    2.9420870972e+02    1.2647949219e+01
    2.9430871582e+02    1.2554992676e+01
    2.9440872192e+02    1.2461975098e+01
    2.9450872803e+02    1.2369018555e+01
    2.9460873413e+02    1.2274963379e+01
    2.9470874023e+02    1.2182006836e+01
    2.9480874634e+02    1.2088012695e+01
    2.9490875244e+02    1.1994995117e+01
    2.9500875854e+02    1.1900024414e+01
    2.9510876465e+02    1.1805969238e+01
    2.9520877075e+02    1.1711975098e+01
    2.9530877686e+02    1.1617004395e+01
    2.9540878296e+02    1.1523010254e+01
    2.9550878906e+02    1.1429016113e+01
    2.9560879517e+02    1.1333984375e+01
    2.9570880127e+02    1.1239013672e+01
    2.9580880737e+02    1.1143981934e+01
    2.9590881348e+02    1.1049011230e+01
    2.9600881958e+02    1.0953002930e+01
    2.9610882568e+02    1.0858947754e+01
    2.9620883179e+02    1.0763000488e+01
    2.9630883789e+02    1.0666992188e+01
    2.9640884399e+02    1.0572021484e+01
    2.9650885010e+02    1.0475952148e+01
    2.9660885620e+02    1.0380004883e+01
    2.9670886230e+02    1.0284973145e+01
    2.9680886841e+02    1.0189025879e+01
    2.9690887451e+02    1.0091979980e+01
    2.9700888062e+02    9.9969482422e+00
    2.9710888672e+02    9.9000244141e+00
    2.9720889282e+02    9.8030395508e+00
    2.9730889893e+02    9.7070312500e+00
    2.9740890503e+02    9.6099853516e+00
    2.9750891113e+02    9.5130004883e+00
    2.9760888672e+02    9.4169921875e+00
    2.9770892334e+02    9.3190307617e+00
    2.9780892944e+02    9.2230224609e+00
    2.9790890503e+02    9.1259765625e+00
    2.9800894165e+02    9.0280151367e+00
    2.9810894775e+02    8.9309692383e+00
    2.9820895386e+02    8.8330078125e+00
    2.9830895996e+02    8.7349853516e+00
    2.9840893555e+02    8.6380004883e+00
    2.9850897217e+02    8.5399780273e+00
    2.9860897827e+02    8.4420166016e+00
    2.9870898438e+02    8.3439941406e+00
    2.9880899048e+02    8.2459716797e+00
    2.9890899658e+02    8.1469726562e+00
    2.9900900269e+02    8.0490112305e+00
    2.9910900879e+02    7.9500122070e+00
    2.9920901489e+02    7.8509521484e+00
    2.9930902100e+02    7.7529907227e+00
    2.9940902710e+02    7.6539916992e+00
    2.9950903320e+02    7.5549926758e+00
    2.9960903931e+02    7.4570312500e+00
    2.9970904541e+02    7.3569946289e+00
    2.9980905151e+02    7.2579956055e+00
    2.9990905762e+02    7.1589965820e+00
endcurve
