Curveplot
LS-DYNA keyword deck by LS-PrePost
Abscissa
Ordinate
XY data
CHOP_EAMX_mo-1 #pts=3000
* Minval=     0.0000000000e+00 at time=         0.0000000000
* Maxval=     5.0214019775e+01 at time=       225.8045501709
    0.0000000000e+00    0.0000000000e+00
    9.9982611835e-02    1.5630299458e-03
    1.9998937845e-01    3.1264808495e-03
    2.9997533560e-01    4.6895858832e-03
    3.9998778701e-01    6.2531405129e-03
    4.9998745322e-01    7.8167924657e-03
    5.9997820854e-01    9.3799568713e-03
    6.9998013973e-01    1.0943325236e-02
    7.9997879267e-01    1.2507820502e-02
    8.9998644590e-01    1.4073194936e-02
    9.9999207258e-01    1.5636129305e-02
    1.0999804735e+00    1.7197486013e-02
    1.1999995708e+00    1.8757741898e-02
    1.2999824286e+00    2.0318547264e-02
    1.3999978304e+00    2.1880900487e-02
    1.4999972582e+00    2.3445419967e-02
    1.5999836922e+00    2.5012619793e-02
    1.6999758482e+00    2.6582146063e-02
    1.7999942303e+00    2.8155589476e-02
    1.8999974728e+00    2.9730597511e-02
    1.9999816418e+00    3.1307294965e-02
    2.0999867916e+00    3.2883662730e-02
    2.1999886036e+00    3.4461122006e-02
    2.2999877930e+00    3.6036860198e-02
    2.3999793530e+00    3.7611555308e-02
    2.4999806881e+00    3.9185546339e-02
    2.5999958515e+00    4.0759559721e-02
    2.6999797821e+00    4.2332381010e-02
    2.7999842167e+00    4.3902520090e-02
    2.8999984264e+00    4.5471530408e-02
    2.9999928474e+00    4.7038421035e-02
    3.0999886990e+00    4.8605002463e-02
    3.1999971867e+00    5.0167627633e-02
    3.2999744415e+00    5.1727868617e-02
    3.3999845982e+00    5.3286023438e-02
    3.4999895096e+00    5.4843649268e-02
    3.5999891758e+00    5.6400220841e-02
    3.6999917030e+00    5.7955682278e-02
    3.7999820709e+00    5.9511601925e-02
    3.8999779224e+00    6.1067018658e-02
    3.9999778271e+00    6.2623463571e-02
    4.0999832153e+00    6.4178742468e-02
    4.1999883652e+00    6.5736196935e-02
    4.2999901772e+00    6.7294307053e-02
    4.3999953270e+00    6.8852379918e-02
    4.4999747276e+00    7.0408582687e-02
    4.5999855995e+00    7.1965180337e-02
    4.6999740601e+00    7.3521949351e-02
    4.7999787331e+00    7.5075604022e-02
    4.8999800682e+00    7.6627023518e-02
    4.9999928474e+00    7.8175455332e-02
    5.0999736786e+00    7.9723544419e-02
    5.1999864578e+00    8.1270650029e-02
    5.2999849319e+00    8.2817398012e-02
    5.3999800682e+00    8.4361940622e-02
    5.4999814034e+00    8.5904479027e-02
    5.5999865532e+00    8.7445266545e-02
    5.6999816895e+00    8.8981844485e-02
    5.7999835014e+00    9.0518243611e-02
    5.8999786377e+00    9.2050410807e-02
    5.9999856949e+00    9.3580842018e-02
    6.0999760628e+00    9.5106430352e-02
    6.1999859810e+00    9.6629820764e-02
    6.2999730110e+00    9.8150148988e-02
    6.3999848366e+00    9.9670298398e-02
    6.4999895096e+00    1.0118687898e-01
    6.5999765396e+00    1.0270024091e-01
    6.6999945641e+00    1.0421435535e-01
    6.7999725342e+00    1.0572524369e-01
    6.8999905586e+00    1.0723635554e-01
    6.9999766350e+00    1.0874286294e-01
    7.0999908447e+00    1.1024810374e-01
    7.1999864578e+00    1.1174830049e-01
    7.2999901772e+00    1.1324581504e-01
    7.3999891281e+00    1.1473982781e-01
    7.4999928474e+00    1.1623074859e-01
    7.5999937057e+00    1.1772039533e-01
    7.6999754906e+00    1.1920496821e-01
    7.7999696732e+00    1.2068773806e-01
    7.8999733925e+00    1.2216731906e-01
    7.9999823570e+00    1.2364818156e-01
    8.0999841690e+00    1.2512220442e-01
    8.1999797821e+00    1.2659442425e-01
    8.2999763489e+00    1.2806345522e-01
    8.3999900818e+00    1.2953026593e-01
    8.4999818802e+00    1.3099510968e-01
    8.5999898911e+00    1.3246078789e-01
    8.6999826431e+00    1.3392627239e-01
    8.7999830246e+00    1.3538925350e-01
    8.8999948502e+00    1.3685216010e-01
    8.9999942780e+00    1.3831211627e-01
    9.0999965668e+00    1.3977159560e-01
    9.1999816895e+00    1.4122958481e-01
    9.2999858856e+00    1.4268837869e-01
    9.3999853134e+00    1.4414376020e-01
    9.4999780655e+00    1.4559766650e-01
    9.5999937057e+00    1.4705047011e-01
    9.6999883652e+00    1.4849887788e-01
    9.7999906540e+00    1.4994411170e-01
    9.8999910355e+00    1.5138646960e-01
    9.9999876022e+00    1.5282441676e-01
    1.0099982262e+01    1.5674738586e-01
    1.0199989319e+01    1.6067014635e-01
    1.0299994469e+01    1.6459222138e-01
    1.0399988174e+01    1.6850939393e-01
    1.0499996185e+01    1.7242334783e-01
    1.0599995613e+01    1.7633481324e-01
    1.0699992180e+01    1.8024204671e-01
    1.0800000191e+01    1.8414817750e-01
    1.0899995804e+01    1.8805496395e-01
    1.0999985695e+01    1.9195303321e-01
    1.1100003242e+01    1.9584769011e-01
    1.1199999809e+01    1.9973941147e-01
    1.1299988747e+01    2.0362943411e-01
    1.1399987221e+01    2.0752139390e-01
    1.1499982834e+01    2.1141412854e-01
    1.1600003242e+01    2.1531064808e-01
    1.1700003624e+01    2.1920739114e-01
    1.1800004959e+01    2.2310808301e-01
    1.1899992943e+01    2.2700862586e-01
    1.2000000954e+01    2.3091037571e-01
    1.2099992752e+01    2.3480728269e-01
    1.2200003624e+01    2.3870241642e-01
    1.2300004959e+01    2.4259193242e-01
    1.2399997711e+01    2.4647639692e-01
    1.2499990463e+01    2.5035795569e-01
    1.2599995613e+01    2.5423538685e-01
    1.2699999809e+01    2.5810679793e-01
    1.2799995422e+01    2.6197001338e-01
    1.2899995804e+01    2.6583138108e-01
    1.2999990463e+01    2.6968470216e-01
    1.3100006104e+01    2.7353322506e-01
    1.3200004578e+01    2.7737331390e-01
    1.3300004005e+01    2.8120660782e-01
    1.3399991035e+01    2.8503313661e-01
    1.3499997139e+01    2.8885456920e-01
    1.3600014687e+01    2.9267394543e-01
    1.3699992180e+01    2.9648649693e-01
    1.3799991608e+01    3.0029672384e-01
    1.3900001526e+01    3.0410242081e-01
    1.3999991417e+01    3.0790659785e-01
    1.4100013733e+01    3.1170868874e-01
    1.4199995995e+01    3.1550639868e-01
    1.4299995422e+01    3.1930240989e-01
    1.4400007248e+01    3.2309341431e-01
    1.4500001907e+01    3.2687839866e-01
    1.4599994659e+01    3.3065700531e-01
    1.4700014114e+01    3.3443251252e-01
    1.4799996376e+01    3.3819609880e-01
    1.4899997711e+01    3.4195411205e-01
    1.4999997139e+01    3.4570282698e-01
    1.5100004196e+01    3.4944590926e-01
    1.5200007439e+01    3.5318258405e-01
    1.5300016403e+01    3.5691410303e-01
    1.5400004387e+01    3.6063668132e-01
    1.5500002861e+01    3.6435389519e-01
    1.5600021362e+01    3.6806452274e-01
    1.5699999809e+01    3.7176722288e-01
    1.5800008774e+01    3.7546449900e-01
    1.5900000572e+01    3.7915208936e-01
    1.6000007629e+01    3.8283139467e-01
    1.6099998474e+01    3.8650059700e-01
    1.6200010300e+01    3.9016321301e-01
    1.6300018311e+01    3.9382052422e-01
    1.6400005341e+01    3.9747101068e-01
    1.6500007629e+01    4.0111491084e-01
    1.6600008011e+01    4.0475139022e-01
    1.6700021744e+01    4.0838247538e-01
    1.6800016403e+01    4.1200721264e-01
    1.6900024414e+01    4.1562399268e-01
    1.7000009537e+01    4.1923090816e-01
    1.7100006104e+01    4.2283010483e-01
    1.7200021744e+01    4.2641749978e-01
    1.7300024033e+01    4.2999631166e-01
    1.7400011063e+01    4.3356660008e-01
    1.7500028610e+01    4.3712782860e-01
    1.7600025177e+01    4.4067829847e-01
    1.7700023651e+01    4.4422021508e-01
    1.7800008774e+01    4.4775229692e-01
    1.7900011063e+01    4.5127961040e-01
    1.8000019073e+01    4.5479920506e-01
    1.8100013733e+01    4.5831009746e-01
    1.8200010300e+01    4.6181210876e-01
    1.8300008774e+01    4.6530932188e-01
    1.8400009155e+01    4.6880179644e-01
    1.8500017166e+01    4.7228789330e-01
    1.8600011826e+01    4.7576847672e-01
    1.8700017929e+01    4.7924396396e-01
    1.8800025940e+01    4.8271241784e-01
    1.8900026321e+01    4.8617470264e-01
    1.9000022888e+01    4.8963329196e-01
    1.9100019455e+01    4.9308678508e-01
    1.9200012207e+01    4.9653542042e-01
    1.9300035477e+01    4.9997782707e-01
    1.9400016785e+01    5.0341188908e-01
    1.9500034332e+01    5.0683927536e-01
    1.9600038528e+01    5.1025879383e-01
    1.9700035095e+01    5.1366937160e-01
    1.9800027847e+01    5.1707053185e-01
    1.9900022507e+01    5.2046281099e-01
    2.0000036240e+01    5.2384722233e-01
    2.0100036621e+01    5.2991533279e-01
    2.0200017929e+01    5.3597629070e-01
    2.0300018311e+01    5.4203099012e-01
    2.0400030136e+01    5.4807770252e-01
    2.0500038147e+01    5.5411702394e-01
    2.0600032806e+01    5.6014919281e-01
    2.0700014114e+01    5.6617426872e-01
    2.0800039291e+01    5.7219594717e-01
    2.0900030136e+01    5.7820820808e-01
    2.1000026703e+01    5.8420830965e-01
    2.1100042343e+01    5.9019881487e-01
    2.1200042725e+01    5.9617853165e-01
    2.1300025940e+01    6.0215359926e-01
    2.1400041580e+01    6.0812479258e-01
    2.1500026703e+01    6.1409109831e-01
    2.1600040436e+01    6.2005436420e-01
    2.1700025558e+01    6.2601220608e-01
    2.1800033569e+01    6.3197016716e-01
    2.1900030136e+01    6.3792300224e-01
    2.2000036240e+01    6.4387142658e-01
    2.2100032806e+01    6.4980739355e-01
    2.2200029373e+01    6.5573602915e-01
    2.2300027847e+01    6.6165030003e-01
    2.2400041580e+01    6.6755759716e-01
    2.2500047684e+01    6.7345118523e-01
    2.2600046158e+01    6.7933428288e-01
    2.2700035095e+01    6.8520098925e-01
    2.2800039291e+01    6.9105750322e-01
    2.2900045395e+01    6.9690328836e-01
    2.3000034332e+01    7.0273751020e-01
    2.3100030899e+01    7.0856159925e-01
    2.3200035095e+01    7.1437031031e-01
    2.3300041199e+01    7.2016745806e-01
    2.3400030136e+01    7.2595018148e-01
    2.3500028610e+01    7.3172402382e-01
    2.3600032806e+01    7.3748266697e-01
    2.3700038910e+01    7.4323064089e-01
    2.3800041199e+01    7.4896669388e-01
    2.3900028229e+01    7.5469201803e-01
    2.4000040054e+01    7.6041030884e-01
    2.4100051880e+01    7.6611870527e-01
    2.4200040817e+01    7.7181631327e-01
    2.4300050735e+01    7.7750462294e-01
    2.4400030136e+01    7.8317749500e-01
    2.4500043869e+01    7.8883886337e-01
    2.4600055695e+01    7.9448801279e-01
    2.4700054169e+01    8.0012005568e-01
    2.4800035477e+01    8.0573678017e-01
    2.4900039673e+01    8.1133812666e-01
    2.5000045776e+01    8.1692570448e-01
    2.5100034714e+01    8.2249921560e-01
    2.5200038910e+01    8.2806122303e-01
    2.5300041199e+01    8.3360826969e-01
    2.5400056839e+01    8.3914387226e-01
    2.5500036240e+01    8.4466266632e-01
    2.5600053787e+01    8.5017001629e-01
    2.5700044632e+01    8.5566329956e-01
    2.5800060272e+01    8.6114192009e-01
    2.5900041580e+01    8.6660313606e-01
    2.6000059128e+01    8.7204909325e-01
    2.6100048065e+01    8.7747550011e-01
    2.6200035095e+01    8.8288819790e-01
    2.6300058365e+01    8.8829022646e-01
    2.6400049210e+01    8.9367628098e-01
    2.6500062943e+01    8.9904803038e-01
    2.6600057602e+01    9.0440094471e-01
    2.6700044632e+01    9.0975499153e-01
    2.6800064087e+01    9.1508203745e-01
    2.6900058746e+01    9.2040801048e-01
    2.7000045776e+01    9.2570799589e-01
    2.7100059509e+01    9.3098896742e-01
    2.7200052261e+01    9.3626594543e-01
    2.7300050735e+01    9.4151592255e-01
    2.7400066376e+01    9.4675904512e-01
    2.7500049591e+01    9.5197504759e-01
    2.7600053787e+01    9.5717400312e-01
    2.7700063705e+01    9.6236598492e-01
    2.7800067902e+01    9.6753299236e-01
    2.7900051117e+01    9.7268706560e-01
    2.8000062943e+01    9.7783803940e-01
    2.8100057602e+01    9.8296403885e-01
    2.8200044632e+01    9.8807501793e-01
    2.8300067902e+01    9.9318200350e-01
    2.8400062561e+01    9.9826896191e-01
    2.8500049591e+01    1.0033528805e+00
    2.8600053787e+01    1.0084149837e+00
    2.8700052261e+01    1.0134630203e+00
    2.8800050735e+01    1.0185070038e+00
    2.8900072098e+01    1.0235289335e+00
    2.9000055313e+01    1.0285499096e+00
    2.9100069046e+01    1.0335500240e+00
    2.9200071335e+01    1.0385329723e+00
    2.9300071716e+01    1.0435160398e+00
    2.9400056839e+01    1.0484730005e+00
    2.9500068665e+01    1.0534260273e+00
    2.9600059509e+01    1.0583539009e+00
    2.9700065613e+01    1.0632650852e+00
    2.9800060272e+01    1.0681689978e+00
    2.9900056839e+01    1.0730450153e+00
    3.0000064850e+01    1.0779169798e+00
    3.0100061417e+01    1.0887539387e+00
    3.0200057983e+01    1.0995689631e+00
    3.0300077438e+01    1.1103769541e+00
    3.0400070190e+01    1.1211739779e+00
    3.0500070572e+01    1.1319520473e+00
    3.0600061417e+01    1.1427170038e+00
    3.0700071335e+01    1.1534550190e+00
    3.0800058365e+01    1.1641949415e+00
    3.0900074005e+01    1.1749160290e+00
    3.1000072479e+01    1.1856149435e+00
    3.1100072861e+01    1.1962909698e+00
    3.1200056076e+01    1.2069369555e+00
    3.1300062180e+01    1.2175829411e+00
    3.1400077820e+01    1.2282149792e+00
    3.1500062943e+01    1.2388440371e+00
    3.1600067139e+01    1.2494629622e+00
    3.1700059891e+01    1.2600729465e+00
    3.1800081253e+01    1.2706829309e+00
    3.1900064468e+01    1.2812889814e+00
    3.2000068665e+01    1.2918789387e+00
    3.2100074768e+01    1.3024510145e+00
    3.2200065613e+01    1.3129940033e+00
    3.2300067902e+01    1.3235230446e+00
    3.2400066376e+01    1.3340330124e+00
    3.2500049591e+01    1.3445119858e+00
    3.2600063324e+01    1.3549790382e+00
    3.2700054169e+01    1.3654170036e+00
    3.2800067902e+01    1.3758339882e+00
    3.2900054932e+01    1.3862259388e+00
    3.3000045776e+01    1.3965840340e+00
    3.3100055695e+01    1.4069269896e+00
    3.3200042725e+01    1.4172409773e+00
    3.3300052643e+01    1.4275289774e+00
    3.3400035858e+01    1.4377799034e+00
    3.3500045776e+01    1.4480190277e+00
    3.3600051880e+01    1.4582309723e+00
    3.3700054169e+01    1.4684230089e+00
    3.3800052643e+01    1.4785939455e+00
    3.3900035858e+01    1.4887369871e+00
    3.4000026703e+01    1.4988719225e+00
    3.4100025177e+01    1.5089910030e+00
    3.4200042725e+01    1.5190910101e+00
    3.4300037384e+01    1.5291630030e+00
    3.4400035858e+01    1.5392249823e+00
    3.4500022888e+01    1.5492630005e+00
    3.4600017548e+01    1.5592780113e+00
    3.4700019836e+01    1.5692539215e+00
    3.4800022125e+01    1.5792119503e+00
    3.4900016785e+01    1.5891419649e+00
    3.5000026703e+01    1.5990428925e+00
    3.5100013733e+01    1.6089099646e+00
    3.5200027466e+01    1.6187609434e+00
    3.5300014496e+01    1.6285870075e+00
    3.5400016785e+01    1.6383869648e+00
    3.5500019073e+01    1.6481590271e+00
    3.5600025177e+01    1.6579020023e+00
    3.5700000763e+01    1.6676099300e+00
    3.5799999237e+01    1.6772949696e+00
    3.5899997711e+01    1.6869499683e+00
    3.6000007629e+01    1.6965630054e+00
    3.6099998474e+01    1.7061570883e+00
    3.6200000763e+01    1.7157208920e+00
    3.6299995422e+01    1.7252590656e+00
    3.6400009155e+01    1.7347679138e+00
    3.6499992371e+01    1.7442409992e+00
    3.6600009918e+01    1.7537009716e+00
    3.6699996948e+01    1.7631360292e+00
    3.6799999237e+01    1.7725479603e+00
    3.6900001526e+01    1.7819280624e+00
    3.7000003815e+01    1.7912689447e+00
    3.7099990845e+01    1.8005861044e+00
    3.7199989319e+01    1.8098700047e+00
    3.7299987793e+01    1.8191220760e+00
    3.7399986267e+01    1.8283309937e+00
    3.7499988556e+01    1.8375180960e+00
    3.7599971771e+01    1.8466709852e+00
    3.7699981689e+01    1.8557920456e+00
    3.7799983978e+01    1.8648729324e+00
    3.7899967194e+01    1.8739399910e+00
    3.7999973297e+01    1.8829759359e+00
    3.8099964142e+01    1.8919841051e+00
    3.8199985504e+01    1.9009609222e+00
    3.8299980164e+01    1.9099060297e+00
    3.8399967194e+01    1.9188328981e+00
    3.8499958038e+01    1.9277369976e+00
    3.8599956512e+01    1.9366049767e+00
    3.8699954987e+01    1.9454580545e+00
    3.8799953461e+01    1.9542869329e+00
    3.8899951935e+01    1.9630920887e+00
    3.8999973297e+01    1.9718759060e+00
    3.9099952698e+01    1.9806240797e+00
    3.9199954987e+01    1.9893589020e+00
    3.9299949646e+01    1.9980630875e+00
    3.9399951935e+01    2.0067439079e+00
    3.9499950409e+01    2.0153839588e+00
    3.9599960327e+01    2.0240068436e+00
    3.9699939728e+01    2.0325930119e+00
    3.9799938202e+01    2.0411479473e+00
    3.9899955750e+01    2.0496659279e+00
    3.9999946594e+01    2.0581450462e+00
    4.0099952698e+01    2.0743958950e+00
    4.0199932098e+01    2.0906050205e+00
    4.0299934387e+01    2.1067881584e+00
    4.0399932861e+01    2.1229450703e+00
    4.0499946594e+01    2.1390790939e+00
    4.0599929810e+01    2.1551659107e+00
    4.0699935913e+01    2.1712369919e+00
    4.0799934387e+01    2.1872692108e+00
    4.0899940491e+01    2.2032840252e+00
    4.0999923706e+01    2.2192449570e+00
    4.1099941254e+01    2.2351751328e+00
    4.1199920654e+01    2.2510659695e+00
    4.1299938202e+01    2.2669389248e+00
    4.1399917603e+01    2.2827918530e+00
    4.1499916077e+01    2.2986111641e+00
    4.1599914551e+01    2.3144271374e+00
    4.1699909210e+01    2.3302130699e+00
    4.1799915314e+01    2.3459959030e+00
    4.1899906158e+01    2.3617429733e+00
    4.1999912262e+01    2.3774750233e+00
    4.2099914551e+01    2.3931698799e+00
    4.2199920654e+01    2.4088199139e+00
    4.2299915314e+01    2.4244389534e+00
    4.2399898529e+01    2.4400081635e+00
    4.2499912262e+01    2.4555490017e+00
    4.2599903107e+01    2.4710390568e+00
    4.2699897766e+01    2.4864950180e+00
    4.2799896240e+01    2.5018978119e+00
    4.2899894714e+01    2.5172708035e+00
    4.2999912262e+01    2.5326001644e+00
    4.3099899292e+01    2.5478780270e+00
    4.3199897766e+01    2.5631129742e+00
    4.3299884796e+01    2.5782949924e+00
    4.3399890900e+01    2.5934400558e+00
    4.3499885559e+01    2.6085329056e+00
    4.3599887848e+01    2.6235909462e+00
    4.3699882507e+01    2.6386020184e+00
    4.3799888611e+01    2.6535840034e+00
    4.3899887085e+01    2.6685309410e+00
    4.3999885559e+01    2.6834330559e+00
    4.4099876404e+01    2.6983098984e+00
    4.4199893951e+01    2.7131500244e+00
    4.4299877167e+01    2.7279448509e+00
    4.4399875641e+01    2.7426981926e+00
    4.4499866486e+01    2.7574150562e+00
    4.4599872589e+01    2.7720899582e+00
    4.4699871063e+01    2.7867040634e+00
    4.4799880981e+01    2.8012778759e+00
    4.4899871826e+01    2.8157877922e+00
    4.4999870300e+01    2.8302648067e+00
    4.5099857330e+01    2.8446822166e+00
    4.5199871063e+01    2.8590679169e+00
    4.5299873352e+01    2.8734030724e+00
    4.5399860382e+01    2.8876879215e+00
    4.5499858856e+01    2.9019339085e+00
    4.5599861145e+01    2.9161219597e+00
    4.5699859619e+01    2.9302759171e+00
    4.5799858093e+01    2.9443621635e+00
    4.5899864197e+01    2.9584109783e+00
    4.5999843597e+01    2.9723939896e+00
    4.6099842072e+01    2.9863400459e+00
    4.6199844360e+01    3.0002188683e+00
    4.6299846649e+01    3.0140719414e+00
    4.6399852753e+01    3.0278699398e+00
    4.6499851227e+01    3.0416159630e+00
    4.6599849701e+01    3.0553250313e+00
    4.6699836731e+01    3.0689840317e+00
    4.6799846649e+01    3.0826058388e+00
    4.6899833679e+01    3.0961658955e+00
    4.6999843597e+01    3.1096878052e+00
    4.7099842072e+01    3.1231479645e+00
    4.7199832916e+01    3.1365499496e+00
    4.7299846649e+01    3.1498970985e+00
    4.7399829865e+01    3.1631908417e+00
    4.7499835968e+01    3.1764278412e+00
    4.7599842072e+01    3.1896171570e+00
    4.7699832916e+01    3.2027409077e+00
    4.7799835205e+01    3.2158260345e+00
    4.7899829865e+01    3.2288558483e+00
    4.7999816895e+01    3.2418341637e+00
    4.8099815369e+01    3.2547757626e+00
    4.8199813843e+01    3.2676620483e+00
    4.8299823761e+01    3.2804970741e+00
    4.8399829865e+01    3.2932939529e+00
    4.8499805450e+01    3.3060460091e+00
    4.8599826813e+01    3.3187537193e+00
    4.8699821472e+01    3.3314280510e+00
    4.8799823761e+01    3.3440408707e+00
    4.8899803162e+01    3.3566160202e+00
    4.8999797821e+01    3.3691573143e+00
    4.9099803925e+01    3.3816528320e+00
    4.9199806213e+01    3.3941001892e+00
    4.9299800873e+01    3.4064998627e+00
    4.9399810791e+01    3.4188599586e+00
    4.9499797821e+01    3.4311597347e+00
    4.9599803925e+01    3.4434299469e+00
    4.9699794769e+01    3.4556202888e+00
    4.9799789429e+01    3.4677598476e+00
    4.9899795532e+01    3.4798402786e+00
    4.9999786377e+01    3.4918799400e+00
    5.0099792480e+01    3.5134401321e+00
    5.0199790955e+01    3.5349900723e+00
    5.0299793243e+01    3.5564799309e+00
    5.0399799347e+01    3.5779099464e+00
    5.0499774933e+01    3.5993003845e+00
    5.0599796295e+01    3.6206302643e+00
    5.0699790955e+01    3.6419200897e+00
    5.0799770355e+01    3.6631598473e+00
    5.0899768829e+01    3.6843497753e+00
    5.0999782562e+01    3.7054700851e+00
    5.1099773407e+01    3.7265400887e+00
    5.1199771881e+01    3.7475399971e+00
    5.1299785614e+01    3.7684998512e+00
    5.1399776459e+01    3.7894201279e+00
    5.1499778748e+01    3.8102900982e+00
    5.1599773407e+01    3.8311400414e+00
    5.1699775696e+01    3.8519396782e+00
    5.1799766541e+01    3.8727102280e+00
    5.1899757385e+01    3.8934302330e+00
    5.1999771118e+01    3.9141199589e+00
    5.2099765778e+01    3.9347400665e+00
    5.2199771881e+01    3.9552998543e+00
    5.2299755096e+01    3.9757900238e+00
    5.2399757385e+01    3.9962301254e+00
    5.2499767303e+01    4.0166101456e+00
    5.2599758148e+01    4.0369195938e+00
    5.2699756622e+01    4.0571603775e+00
    5.2799743652e+01    4.0773301125e+00
    5.2899761200e+01    4.0974302292e+00
    5.2999759674e+01    4.1174798012e+00
    5.3099735260e+01    4.1374502182e+00
    5.3199748993e+01    4.1573500633e+00
    5.3299732208e+01    4.1771697998e+00
    5.3399734497e+01    4.1969099045e+00
    5.3499744415e+01    4.2165999413e+00
    5.3599742889e+01    4.2362298965e+00
    5.3699737549e+01    4.2557802200e+00
    5.3799732208e+01    4.2752799988e+00
    5.3899723053e+01    4.2947196960e+00
    5.3999725342e+01    4.3141002655e+00
    5.4099731445e+01    4.3334197998e+00
    5.4199722290e+01    4.3526897430e+00
    5.4299716949e+01    4.3718900681e+00
    5.4399723053e+01    4.3910303116e+00
    5.4499732971e+01    4.4100999832e+00
    5.4599727631e+01    4.4291000366e+00
    5.4699710846e+01    4.4480199814e+00
    5.4799709320e+01    4.4668798447e+00
    5.4899730682e+01    4.4856500626e+00
    5.4999713898e+01    4.5043401718e+00
    5.5099712372e+01    4.5229701996e+00
    5.5199703217e+01    4.5415296555e+00
    5.5299701691e+01    4.5600204468e+00
    5.5399700165e+01    4.5784301758e+00
    5.5499717712e+01    4.5967798233e+00
    5.5599716187e+01    4.6150598526e+00
    5.5699703217e+01    4.6332602501e+00
    5.5799705505e+01    4.6513900757e+00
    5.5899692535e+01    4.6694297791e+00
    5.5999702454e+01    4.6873998642e+00
    5.6099708557e+01    4.7052998543e+00
    5.6199695587e+01    4.7231001854e+00
    5.6299709320e+01    4.7408499718e+00
    5.6399700165e+01    4.7585201263e+00
    5.6499694824e+01    4.7761297226e+00
    5.6599700928e+01    4.7936601639e+00
    5.6699691772e+01    4.8111300468e+00
    5.6799678802e+01    4.8285298347e+00
    5.6899688721e+01    4.8458499908e+00
    5.6999691010e+01    4.8631000519e+00
    5.7099685669e+01    4.8802599907e+00
    5.7199695587e+01    4.8973498344e+00
    5.7299682617e+01    4.9143500328e+00
    5.7399677277e+01    4.9312796593e+00
    5.7499664307e+01    4.9481201172e+00
    5.7599678040e+01    4.9648799896e+00
    5.7699684143e+01    4.9815697670e+00
    5.7799682617e+01    4.9981799126e+00
    5.7899665833e+01    5.0147199631e+00
    5.7999679565e+01    5.0311799049e+00
    5.8099678040e+01    5.0475797653e+00
    5.8199661255e+01    5.0638999939e+00
    5.8299678802e+01    5.0801501274e+00
    5.8399669647e+01    5.0963301659e+00
    5.8499664307e+01    5.1124496460e+00
    5.8599662781e+01    5.1284899712e+00
    5.8699665070e+01    5.1444797516e+00
    5.8799663544e+01    5.1604003906e+00
    5.8899669647e+01    5.1762499809e+00
    5.8999664307e+01    5.1920399666e+00
    5.9099655151e+01    5.2077598572e+00
    5.9199653625e+01    5.2234201431e+00
    5.9299659729e+01    5.2390003204e+00
    5.9399658203e+01    5.2545099258e+00
    5.9499656677e+01    5.2699499130e+00
    5.9599655151e+01    5.2853102684e+00
    5.9699642181e+01    5.3005800247e+00
    5.9799644470e+01    5.3157796860e+00
    5.9899650574e+01    5.3309001923e+00
    5.9999649048e+01    5.3459396362e+00
    6.0099651337e+01    5.3720998764e+00
    6.0199634552e+01    5.3982200623e+00
    6.0299648285e+01    5.4242801666e+00
    6.0399631500e+01    5.4502401352e+00
    6.0499641418e+01    5.4761500359e+00
    6.0599624634e+01    5.5019798279e+00
    6.0699642181e+01    5.5277299881e+00
    6.0799617767e+01    5.5534000397e+00
    6.0899639130e+01    5.5790200233e+00
    6.0999614716e+01    5.6045198441e+00
    6.1099628448e+01    5.6299505234e+00
    6.1199626923e+01    5.6552801132e+00
    6.1299621582e+01    5.6805500984e+00
    6.1399627686e+01    5.7057604790e+00
    6.1499622345e+01    5.7309002876e+00
    6.1599628448e+01    5.7559795380e+00
    6.1699611664e+01    5.7810096741e+00
    6.1799613953e+01    5.8059701920e+00
    6.1899608612e+01    5.8308701515e+00
    6.1999622345e+01    5.8557100296e+00
    6.2099601746e+01    5.8804492950e+00
    6.2199604034e+01    5.9051103592e+00
    6.2299602509e+01    5.9296898842e+00
    6.2399608612e+01    5.9541597366e+00
    6.2499614716e+01    5.9785599709e+00
    6.2599590302e+01    6.0028505325e+00
    6.2699611664e+01    6.0270500183e+00
    6.2799610138e+01    6.0511598587e+00
    6.2899585724e+01    6.0751695633e+00
    6.2999595642e+01    6.0990896225e+00
    6.3099601746e+01    6.1229200363e+00
    6.3199592590e+01    6.1466302872e+00
    6.3299602509e+01    6.1702399254e+00
    6.3399593353e+01    6.1937499046e+00
    6.3499584198e+01    6.2171697617e+00
    6.3599590302e+01    6.2405004501e+00
    6.3699596405e+01    6.2637495995e+00
    6.3799591064e+01    6.2868900299e+00
    6.3899589539e+01    6.3099603653e+00
    6.3999576569e+01    6.3329401016e+00
    6.4099578857e+01    6.3558502197e+00
    6.4199584961e+01    6.3786506653e+00
    6.4299583435e+01    6.4013900757e+00
    6.4399581909e+01    6.4240198135e+00
    6.4499565125e+01    6.4465503693e+00
    6.4599563599e+01    6.4689803123e+00
    6.4699577332e+01    6.4913196564e+00
    6.4799560547e+01    6.5135498047e+00
    6.4899559021e+01    6.5356607437e+00
    6.4999572754e+01    6.5576896667e+00
    6.5099555969e+01    6.5796003342e+00
    6.5199554443e+01    6.6014394760e+00
    6.5299568176e+01    6.6231698990e+00
    6.5399566650e+01    6.6448001862e+00
    6.5499557495e+01    6.6663293839e+00
    6.5599548340e+01    6.6877593994e+00
    6.5699554443e+01    6.7090997696e+00
    6.5799568176e+01    6.7303304672e+00
    6.5899551392e+01    6.7514200211e+00
    6.5999549866e+01    6.7724895477e+00
    6.6099555969e+01    6.7933502197e+00
    6.6199554443e+01    6.8142004013e+00
    6.6299560547e+01    6.8348703384e+00
    6.6399543762e+01    6.8554296494e+00
    6.6499534607e+01    6.8759999275e+00
    6.6599548340e+01    6.8963699341e+00
    6.6699539185e+01    6.9167594910e+00
    6.6799545288e+01    6.9369392395e+00
    6.6899536133e+01    6.9571204185e+00
    6.6999542236e+01    6.9770903587e+00
    6.7099533081e+01    6.9969501495e+00
    6.7199539185e+01    7.0168104172e+00
    6.7299522400e+01    7.0364499092e+00
    6.7399536133e+01    7.0560898781e+00
    6.7499534607e+01    7.0755095482e+00
    6.7599517822e+01    7.0949296951e+00
    6.7699531555e+01    7.1141304970e+00
    6.7799522400e+01    7.1332502365e+00
    6.7899528503e+01    7.1523599625e+00
    6.7999519348e+01    7.1712698936e+00
    6.8099510193e+01    7.1901798248e+00
    6.8199531555e+01    7.2088794708e+00
    6.8299514771e+01    7.2275896072e+00
    6.8399520874e+01    7.2460994720e+00
    6.8499504089e+01    7.2645301819e+00
    6.8599517822e+01    7.2829504013e+00
    6.8699508667e+01    7.3011999130e+00
    6.8799499512e+01    7.3194398880e+00
    6.8899520874e+01    7.3374996185e+00
    6.8999511719e+01    7.3555698395e+00
    6.9099494934e+01    7.3734397888e+00
    6.9199493408e+01    7.3912200928e+00
    6.9299514771e+01    7.4089903831e+00
    6.9399497986e+01    7.4265704155e+00
    6.9499496460e+01    7.4441499710e+00
    6.9599502563e+01    7.4615201950e+00
    6.9699493408e+01    7.4788799286e+00
    6.9799507141e+01    7.4960298538e+00
    6.9899482727e+01    7.5131697655e+00
    6.9999481201e+01    7.5301203728e+00
    7.0099487305e+01    7.5580501556e+00
    7.0199485779e+01    7.5858898163e+00
    7.0299484253e+01    7.6137304306e+00
    7.0399482727e+01    7.6413702965e+00
    7.0499473572e+01    7.6690096855e+00
    7.0599479675e+01    7.6964402199e+00
    7.0699470520e+01    7.7238602638e+00
    7.0799484253e+01    7.7510900497e+00
    7.0899482727e+01    7.7783198357e+00
    7.0999458313e+01    7.8053202629e+00
    7.1099487305e+01    7.8322000504e+00
    7.1199478149e+01    7.8590698242e+00
    7.1299468994e+01    7.8857502937e+00
    7.1399459839e+01    7.9124298096e+00
    7.1499473572e+01    7.9389195442e+00
    7.1599464417e+01    7.9654302597e+00
    7.1699455261e+01    7.9917397499e+00
    7.1799476624e+01    8.0180702209e+00
    7.1899467468e+01    8.0442104340e+00
    7.1999458313e+01    8.0703401566e+00
    7.2099456787e+01    8.0962600708e+00
    7.2199462891e+01    8.1220703125e+00
    7.2299468994e+01    8.1478500366e+00
    7.2399452209e+01    8.1734199524e+00
    7.2499450684e+01    8.1989603043e+00
    7.2599441528e+01    8.2242898941e+00
    7.2699447632e+01    8.2495803833e+00
    7.2799453735e+01    8.2746601105e+00
    7.2899452209e+01    8.2997102737e+00
    7.2999435425e+01    8.3245391846e+00
    7.3099441528e+01    8.3492403030e+00
    7.3199440002e+01    8.3739109039e+00
    7.3299438477e+01    8.3983497620e+00
    7.3399436951e+01    8.4227600098e+00
    7.3499435425e+01    8.4469604492e+00
    7.3599449158e+01    8.4711093903e+00
    7.3699432373e+01    8.4950695038e+00
    7.3799430847e+01    8.5190010071e+00
    7.3899444580e+01    8.5427198410e+00
    7.3999435425e+01    8.5664291382e+00
    7.4099426270e+01    8.5899200439e+00
    7.4199417114e+01    8.6133098602e+00
    7.4299415588e+01    8.6366691589e+00
    7.4399429321e+01    8.6598005295e+00
    7.4499412537e+01    8.6829099655e+00
    7.4599418640e+01    8.7057895660e+00
    7.4699409485e+01    8.7286396027e+00
    7.4799407959e+01    8.7512607574e+00
    7.4899406433e+01    8.7738304138e+00
    7.4999427795e+01    8.7961807251e+00
    7.5099411011e+01    8.8185100555e+00
    7.5199401855e+01    8.8406105042e+00
    7.5299400330e+01    8.8625802994e+00
    7.5399414062e+01    8.8845300674e+00
    7.5499404907e+01    8.9062500000e+00
    7.5599395752e+01    8.9279499054e+00
    7.5699401855e+01    8.9494209290e+00
    7.5799415588e+01    8.9708499908e+00
    7.5899391174e+01    8.9920597076e+00
    7.5999397278e+01    9.0132198334e+00
    7.6099411011e+01    9.0341501236e+00
    7.6199394226e+01    9.0550403595e+00
    7.6299400330e+01    9.0757198334e+00
    7.6399398804e+01    9.0963706970e+00
    7.6499389648e+01    9.1168003082e+00
    7.6599395752e+01    9.1371002197e+00
    7.6699394226e+01    9.1573905945e+00
    7.6799377441e+01    9.1774501801e+00
    7.6899398804e+01    9.1974697113e+00
    7.6999397278e+01    9.2172698975e+00
    7.7099380493e+01    9.2370204926e+00
    7.7199371338e+01    9.2565498352e+00
    7.7299369812e+01    9.2760295868e+00
    7.7399383545e+01    9.2952804565e+00
    7.7499389648e+01    9.3144798279e+00
    7.7599365234e+01    9.3334703445e+00
    7.7699386597e+01    9.3522996902e+00
    7.7799377441e+01    9.3711194992e+00
    7.7899368286e+01    9.3897209167e+00
    7.7999374390e+01    9.4082698822e+00
    7.8099357605e+01    9.4266195297e+00
    7.8199371338e+01    9.4449100494e+00
    7.8299369812e+01    9.4629993439e+00
    7.8399360657e+01    9.4810695648e+00
    7.8499351501e+01    9.4989204407e+00
    7.8599349976e+01    9.5166397095e+00
    7.8699348450e+01    9.5343513489e+00
    7.8799362183e+01    9.5518293381e+00
    7.8899360657e+01    9.5693092346e+00
    7.8999351501e+01    9.5865592957e+00
    7.9099342346e+01    9.6037998199e+00
    7.9199340820e+01    9.6208095551e+00
    7.9299346924e+01    9.6377897263e+00
    7.9399337769e+01    9.6545505524e+00
    7.9499336243e+01    9.6712799072e+00
    7.9599357605e+01    9.6877708435e+00
    7.9699348450e+01    9.7041301727e+00
    7.9799354553e+01    9.7204589844e+00
    7.9899337769e+01    9.7365493774e+00
    7.9999336243e+01    9.7526197433e+00
    8.0099342346e+01    9.7801494598e+00
    8.0199333191e+01    9.8076686859e+00
    8.0299346924e+01    9.8350505829e+00
    8.0399345398e+01    9.8623104095e+00
    8.0499320984e+01    9.8894500732e+00
    8.0599327087e+01    9.9164390564e+00
    8.0699333191e+01    9.9433097839e+00
    8.0799339294e+01    9.9700498581e+00
    8.0899322510e+01    9.9966697693e+00
    8.0999313354e+01    1.0023130417e+01
    8.1099311829e+01    1.0049449921e+01
    8.1199317932e+01    1.0075619698e+01
    8.1299331665e+01    1.0101680756e+01
    8.1399330139e+01    1.0127620697e+01
    8.1499305725e+01    1.0153440475e+01
    8.1599304199e+01    1.0179050446e+01
    8.1699302673e+01    1.0204639435e+01
    8.1799316406e+01    1.0230220795e+01
    8.1899307251e+01    1.0255479813e+01
    8.1999305725e+01    1.0280710220e+01
    8.2099304199e+01    1.0305799484e+01
    8.2199310303e+01    1.0330760956e+01
    8.2299293518e+01    1.0355560303e+01
    8.2399299622e+01    1.0380219460e+01
    8.2499298096e+01    1.0404730797e+01
    8.2599311829e+01    1.0429100037e+01
    8.2699287415e+01    1.0453319550e+01
    8.2799308777e+01    1.0477378845e+01
    8.2899291992e+01    1.0501300812e+01
    8.2999282837e+01    1.0525070190e+01
    8.3099288940e+01    1.0548679352e+01
    8.3199295044e+01    1.0572131157e+01
    8.3299293518e+01    1.0595430374e+01
    8.3399276733e+01    1.0618589401e+01
    8.3499290466e+01    1.0641578674e+01
    8.3599281311e+01    1.0664430618e+01
    8.3699279785e+01    1.0687139511e+01
    8.3799278259e+01    1.0709699631e+01
    8.3899284363e+01    1.0732131004e+01
    8.3999275208e+01    1.0754420280e+01
    8.4099273682e+01    1.0776579857e+01
    8.4199272156e+01    1.0798599243e+01
    8.4299278259e+01    1.0820470810e+01
    8.4399261475e+01    1.0842209816e+01
    8.4499267578e+01    1.0863779068e+01
    8.4599273682e+01    1.0885210991e+01
    8.4699272156e+01    1.0906479836e+01
    8.4799278259e+01    1.0927589417e+01
    8.4899253845e+01    1.0948459625e+01
    8.4999259949e+01    1.0969259262e+01
    8.5099266052e+01    1.0989911079e+01
    8.5199256897e+01    1.1010430336e+01
    8.5299270630e+01    1.1030779839e+01
    8.5399269104e+01    1.1051000595e+01
    8.5499252319e+01    1.1071070671e+01
    8.5599250793e+01    1.1090979576e+01
    8.5699249268e+01    1.1110739708e+01
    8.5799255371e+01    1.1130340576e+01
    8.5899238586e+01    1.1149800301e+01
    8.5999244690e+01    1.1169079781e+01
    8.6099243164e+01    1.1188210487e+01
    8.6199241638e+01    1.1207190514e+01
    8.6299240112e+01    1.1226019859e+01
    8.6399246216e+01    1.1244699478e+01
    8.6499229431e+01    1.1263250351e+01
    8.6599235535e+01    1.1281640053e+01
    8.6699234009e+01    1.1299889565e+01
    8.6799240112e+01    1.1317991257e+01
    8.6899230957e+01    1.1335900307e+01
    8.6999221802e+01    1.1353699684e+01
    8.7099235535e+01    1.1371398926e+01
    8.7199218750e+01    1.1388800621e+01
    8.7299232483e+01    1.1406200409e+01
    8.7399230957e+01    1.1423299789e+01
    8.7499229431e+01    1.1440300941e+01
    8.7599227905e+01    1.1457200050e+01
    8.7699226379e+01    1.1473899841e+01
    8.7799209595e+01    1.1490300179e+01
    8.7899208069e+01    1.1506699562e+01
    8.7999221802e+01    1.1522900581e+01
    8.8099220276e+01    1.1539000511e+01
    8.8199218750e+01    1.1554999352e+01
    8.8299217224e+01    1.1570798874e+01
    8.8399215698e+01    1.1586400032e+01
    8.8499221802e+01    1.1602000237e+01
    8.8599197388e+01    1.1617399216e+01
    8.8699211121e+01    1.1632600784e+01
    8.8799209595e+01    1.1647700310e+01
    8.8899192810e+01    1.1662699699e+01
    8.8999191284e+01    1.1677500725e+01
    8.9099205017e+01    1.1692200661e+01
    8.9199203491e+01    1.1706699371e+01
    8.9299186707e+01    1.1721098900e+01
    8.9399208069e+01    1.1735301018e+01
    8.9499198914e+01    1.1749500275e+01
    8.9599189758e+01    1.1763399124e+01
    8.9699203491e+01    1.1777200699e+01
    8.9799186707e+01    1.1790800095e+01
    8.9899177551e+01    1.1804299355e+01
    8.9999191284e+01    1.1817599297e+01
    9.0099174500e+01    1.1845199585e+01
    9.0199195862e+01    1.1872699738e+01
    9.0299186707e+01    1.1900199890e+01
    9.0399185181e+01    1.1927499771e+01
    9.0499168396e+01    1.1954600334e+01
    9.0599174500e+01    1.1981600761e+01
    9.0699172974e+01    1.2008399963e+01
    9.0799163818e+01    1.2035100937e+01
    9.0899177551e+01    1.2061698914e+01
    9.0999160767e+01    1.2088000298e+01
    9.1099166870e+01    1.2114099503e+01
    9.1199172974e+01    1.2140199661e+01
    9.1299156189e+01    1.2166100502e+01
    9.1399169922e+01    1.2191799164e+01
    9.1499153137e+01    1.2217499733e+01
    9.1599151611e+01    1.2243000984e+01
    9.1699157715e+01    1.2268300056e+01
    9.1799148560e+01    1.2293600082e+01
    9.1899162292e+01    1.2318698883e+01
    9.1999153137e+01    1.2343700409e+01
    9.2099151611e+01    1.2368500710e+01
    9.2199157715e+01    1.2393099785e+01
    9.2299156189e+01    1.2417600632e+01
    9.2399147034e+01    1.2442000389e+01
    9.2499137878e+01    1.2466099739e+01
    9.2599151611e+01    1.2490100861e+01
    9.2699134827e+01    1.2513998985e+01
    9.2799140930e+01    1.2537600517e+01
    9.2899131775e+01    1.2560998917e+01
    9.2999137878e+01    1.2584399223e+01
    9.3099143982e+01    1.2607500076e+01
    9.3199134827e+01    1.2630399704e+01
    9.3299140930e+01    1.2653200150e+01
    9.3399124146e+01    1.2675801277e+01
    9.3499130249e+01    1.2698200226e+01
    9.3599128723e+01    1.2720499992e+01
    9.3699134827e+01    1.2742599487e+01
    9.3799118042e+01    1.2764500618e+01
    9.3899124146e+01    1.2786400795e+01
    9.3999130249e+01    1.2807999611e+01
    9.4099128723e+01    1.2829401016e+01
    9.4199127197e+01    1.2850800514e+01
    9.4299110413e+01    1.2871999741e+01
    9.4399108887e+01    1.2892899513e+01
    9.4499114990e+01    1.2913799286e+01
    9.4599128723e+01    1.2934500694e+01
    9.4699104309e+01    1.2954899788e+01
    9.4799118042e+01    1.2975299835e+01
    9.4899108887e+01    1.2995400429e+01
    9.4999114990e+01    1.3015399933e+01
    9.5099113464e+01    1.3035200119e+01
    9.5199096680e+01    1.3054799080e+01
    9.5299102783e+01    1.3074299812e+01
    9.5399093628e+01    1.3093700409e+01
    9.5499107361e+01    1.3112699509e+01
    9.5599098206e+01    1.3131700516e+01
    9.5699089050e+01    1.3150500298e+01
    9.5799095154e+01    1.3169099808e+01
    9.5899093628e+01    1.3187500954e+01
    9.5999107361e+01    1.3205801010e+01
    9.6099082947e+01    1.3223899841e+01
    9.6199089050e+01    1.3241799355e+01
    9.6299095154e+01    1.3259599686e+01
    9.6399093628e+01    1.3277100563e+01
    9.6499084473e+01    1.3294499397e+01
    9.6599075317e+01    1.3311800003e+01
    9.6699073792e+01    1.3328900337e+01
    9.6799072266e+01    1.3345799446e+01
    9.6899093628e+01    1.3362600327e+01
    9.6999069214e+01    1.3379199028e+01
    9.7099067688e+01    1.3395500183e+01
    9.7199089050e+01    1.3411800385e+01
    9.7299064636e+01    1.3427799225e+01
    9.7399063110e+01    1.3443700790e+01
    9.7499084473e+01    1.3459401131e+01
    9.7599082947e+01    1.3474900246e+01
    9.7699073792e+01    1.3490300179e+01
    9.7799064636e+01    1.3505399704e+01
    9.7899055481e+01    1.3520401001e+01
    9.7999061584e+01    1.3535200119e+01
    9.8099067688e+01    1.3549900055e+01
    9.8199050903e+01    1.3564300537e+01
    9.8299064636e+01    1.3578701019e+01
    9.8399055481e+01    1.3592899323e+01
    9.8499061584e+01    1.3606901169e+01
    9.8599044800e+01    1.3620700836e+01
    9.8699050903e+01    1.3634500504e+01
    9.8799049377e+01    1.3647998810e+01
    9.8899047852e+01    1.3661499023e+01
    9.8999061584e+01    1.3674699783e+01
    9.9099052429e+01    1.3687799454e+01
    9.9199043274e+01    1.3700799942e+01
    9.9299041748e+01    1.3713600159e+01
    9.9399032593e+01    1.3726200104e+01
    9.9499038696e+01    1.3738700867e+01
    9.9599052429e+01    1.3750898361e+01
    9.9699028015e+01    1.3763000488e+01
    9.9799049377e+01    1.3774999619e+01
    9.9899040222e+01    1.3786699295e+01
    9.9999038696e+01    1.3798299789e+01
    1.0009902191e+02    1.3827199936e+01
    1.0019902039e+02    1.3855998993e+01
    1.0029901886e+02    1.3884700775e+01
    1.0039901733e+02    1.3913200378e+01
    1.0049903107e+02    1.3941699982e+01
    1.0059902191e+02    1.3969799042e+01
    1.0069904327e+02    1.3997798920e+01
    1.0079902649e+02    1.4025800705e+01
    1.0089900970e+02    1.4053499222e+01
    1.0099902344e+02    1.4081001282e+01
    1.0109900665e+02    1.4108398438e+01
    1.0119899750e+02    1.4135601044e+01
    1.0129901123e+02    1.4162698746e+01
    1.0139900970e+02    1.4189500809e+01
    1.0149902344e+02    1.4216197968e+01
    1.0159902191e+02    1.4242801666e+01
    1.0169901276e+02    1.4269397736e+01
    1.0179901123e+02    1.4295700073e+01
    1.0189900208e+02    1.4321798325e+01
    1.0199900818e+02    1.4347801208e+01
    1.0209899902e+02    1.4373802185e+01
    1.0219901276e+02    1.4399400711e+01
    1.0229898834e+02    1.4424898148e+01
    1.0239898682e+02    1.4450201035e+01
    1.0249900055e+02    1.4475400925e+01
    1.0259898376e+02    1.4500400543e+01
    1.0269898224e+02    1.4525102615e+01
    1.0279898071e+02    1.4549699783e+01
    1.0289897919e+02    1.4573997498e+01
    1.0299899292e+02    1.4598299026e+01
    1.0309899902e+02    1.4622301102e+01
    1.0319898987e+02    1.4646099091e+01
    1.0329898071e+02    1.4669702530e+01
    1.0339897919e+02    1.4693199158e+01
    1.0349897003e+02    1.4716402054e+01
    1.0359896851e+02    1.4739398956e+01
    1.0369898224e+02    1.4762201309e+01
    1.0379898071e+02    1.4784997940e+01
    1.0389897919e+02    1.4807500839e+01
    1.0399896240e+02    1.4829898834e+01
    1.0409896088e+02    1.4852100372e+01
    1.0419895935e+02    1.4874198914e+01
    1.0429895782e+02    1.4896100998e+01
    1.0439895630e+02    1.4917697906e+01
    1.0449897003e+02    1.4939300537e+01
    1.0459896088e+02    1.4960597992e+01
    1.0469895935e+02    1.4981700897e+01
    1.0479897308e+02    1.5002597809e+01
    1.0489894867e+02    1.5023300171e+01
    1.0499894714e+02    1.5043798447e+01
    1.0509896088e+02    1.5064300537e+01
    1.0519895172e+02    1.5084402084e+01
    1.0529895782e+02    1.5104400635e+01
    1.0539895630e+02    1.5124301910e+01
    1.0549893951e+02    1.5143899918e+01
    1.0559896088e+02    1.5163301468e+01
    1.0569892883e+02    1.5182498932e+01
    1.0579895782e+02    1.5201601028e+01
    1.0589894104e+02    1.5220499039e+01
    1.0599893188e+02    1.5239101410e+01
    1.0609895325e+02    1.5257499695e+01
    1.0619892883e+02    1.5275800705e+01
    1.0629894257e+02    1.5293998718e+01
    1.0639894867e+02    1.5311800003e+01
    1.0649893188e+02    1.5329599380e+01
    1.0659893799e+02    1.5347101212e+01
    1.0669892883e+02    1.5364498138e+01
    1.0679894257e+02    1.5381700516e+01
    1.0689894104e+02    1.5398698807e+01
    1.0699893188e+02    1.5415500641e+01
    1.0709893036e+02    1.5432197571e+01
    1.0719893646e+02    1.5448600769e+01
    1.0729891205e+02    1.5464797974e+01
    1.0739893341e+02    1.5480800629e+01
    1.0749890900e+02    1.5496599197e+01
    1.0759890747e+02    1.5512300491e+01
    1.0769892120e+02    1.5527698517e+01
    1.0779891205e+02    1.5542900085e+01
    1.0789891052e+02    1.5557998657e+01
    1.0799890900e+02    1.5572999954e+01
    1.0809889984e+02    1.5587602615e+01
    1.0819889832e+02    1.5602100372e+01
    1.0829891205e+02    1.5616498947e+01
    1.0839891052e+02    1.5630699158e+01
    1.0849890900e+02    1.5644701004e+01
    1.0859889221e+02    1.5658599854e+01
    1.0869889832e+02    1.5672201157e+01
    1.0879888916e+02    1.5685798645e+01
    1.0889890289e+02    1.5699100494e+01
    1.0899890900e+02    1.5712299347e+01
    1.0909889221e+02    1.5725301743e+01
    1.0919889832e+02    1.5738298416e+01
    1.0929889679e+02    1.5750900269e+01
    1.0939888763e+02    1.5763399124e+01
    1.0949887848e+02    1.5775701523e+01
    1.0959887695e+02    1.5787799835e+01
    1.0969888306e+02    1.5799800873e+01
    1.0979888916e+02    1.5811597824e+01
    1.0989888763e+02    1.5823101044e+01
    1.0999887085e+02    1.5834499359e+01
    1.1009887695e+02    1.5866899490e+01
    1.1019886780e+02    1.5899301529e+01
    1.1029888916e+02    1.5931600571e+01
    1.1039888763e+02    1.5963699341e+01
    1.1049887848e+02    1.5995601654e+01
    1.1059886169e+02    1.6027299881e+01
    1.1069888306e+02    1.6058902740e+01
    1.1079885864e+02    1.6090301514e+01
    1.1089885712e+02    1.6121599197e+01
    1.1099886322e+02    1.6152601242e+01
    1.1109886169e+02    1.6183401108e+01
    1.1119886017e+02    1.6213998795e+01
    1.1129885101e+02    1.6244501114e+01
    1.1139887238e+02    1.6274700165e+01
    1.1149886322e+02    1.6304899216e+01
    1.1159886932e+02    1.6334901810e+01
    1.1169886017e+02    1.6364799500e+01
    1.1179885864e+02    1.6394498825e+01
    1.1189884949e+02    1.6424100876e+01
    1.1199884796e+02    1.6453500748e+01
    1.1209884644e+02    1.6482698441e+01
    1.1219886017e+02    1.6511701584e+01
    1.1229885101e+02    1.6540599823e+01
    1.1239884186e+02    1.6569198608e+01
    1.1249884033e+02    1.6597700119e+01
    1.1259883881e+02    1.6625999451e+01
    1.1269883728e+02    1.6653997421e+01
    1.1279882812e+02    1.6681800842e+01
    1.1289884186e+02    1.6709499359e+01
    1.1299881744e+02    1.6736902237e+01
    1.1309882355e+02    1.6764101028e+01
    1.1319882965e+02    1.6791198730e+01
    1.1329884338e+02    1.6818000793e+01
    1.1339881897e+02    1.6844598770e+01
    1.1349881744e+02    1.6870897293e+01
    1.1359882355e+02    1.6897100449e+01
    1.1369882965e+02    1.6923099518e+01
    1.1379882812e+02    1.6948902130e+01
    1.1389881897e+02    1.6974500656e+01
    1.1399881744e+02    1.7000000000e+01
    1.1409882355e+02    1.7025201797e+01
    1.1419880676e+02    1.7050300598e+01
    1.1429879761e+02    1.7075199127e+01
    1.1439881897e+02    1.7099901199e+01
    1.1449880981e+02    1.7124399185e+01
    1.1459882355e+02    1.7148698807e+01
    1.1469882202e+02    1.7172700882e+01
    1.1479882050e+02    1.7196599960e+01
    1.1489881134e+02    1.7220298767e+01
    1.1499881744e+02    1.7243801117e+01
    1.1509880829e+02    1.7267000198e+01
    1.1519879913e+02    1.7290102005e+01
    1.1529879761e+02    1.7312999725e+01
    1.1539881134e+02    1.7335597992e+01
    1.1549880981e+02    1.7358001709e+01
    1.1559879303e+02    1.7380300522e+01
    1.1569879150e+02    1.7402297974e+01
    1.1579879761e+02    1.7424100876e+01
    1.1589878845e+02    1.7445699692e+01
    1.1599880219e+02    1.7467098236e+01
    1.1609879303e+02    1.7488300323e+01
    1.1619879913e+02    1.7509300232e+01
    1.1629878998e+02    1.7530097961e+01
    1.1639878082e+02    1.7550600052e+01
    1.1649878693e+02    1.7570999146e+01
    1.1659877777e+02    1.7591201782e+01
    1.1669879150e+02    1.7611200333e+01
    1.1679876709e+02    1.7630998611e+01
    1.1689878845e+02    1.7650602341e+01
    1.1699877930e+02    1.7670000076e+01
    1.1709877777e+02    1.7689199448e+01
    1.1719877625e+02    1.7708200455e+01
    1.1729876709e+02    1.7726900101e+01
    1.1739875793e+02    1.7745399475e+01
    1.1749877930e+02    1.7763799667e+01
    1.1759874725e+02    1.7781799316e+01
    1.1769875336e+02    1.7799697876e+01
    1.1779876709e+02    1.7817501068e+01
    1.1789875793e+02    1.7834999084e+01
    1.1799877167e+02    1.7852302551e+01
    1.1809874725e+02    1.7869400024e+01
    1.1819875336e+02    1.7886299133e+01
    1.1829875183e+02    1.7902999878e+01
    1.1839875793e+02    1.7919601440e+01
    1.1849874878e+02    1.7935997009e+01
    1.1859874725e+02    1.7952102661e+01
    1.1869873810e+02    1.7968200684e+01
    1.1879875183e+02    1.7983997345e+01
    1.1889875031e+02    1.7999599457e+01
    1.1899874878e+02    1.8015098572e+01
    1.1909873962e+02    1.8030399323e+01
    1.1919873047e+02    1.8045600891e+01
    1.1929873657e+02    1.8060501099e+01
    1.1939875031e+02    1.8075202942e+01
    1.1949874115e+02    1.8089900970e+01
    1.1959871674e+02    1.8104198456e+01
    1.1969873047e+02    1.8118400574e+01
    1.1979872131e+02    1.8132301331e+01
    1.1989871979e+02    1.8146099091e+01
    1.1999871826e+02    1.8159702301e+01
    1.2009871674e+02    1.8196300507e+01
    1.2019873047e+02    1.8233100891e+01
    1.2029872131e+02    1.8269699097e+01
    1.2039872742e+02    1.8306102753e+01
    1.2049871826e+02    1.8342296600e+01
    1.2059873199e+02    1.8378299713e+01
    1.2069873047e+02    1.8414199829e+01
    1.2079871368e+02    1.8449897766e+01
    1.2089869690e+02    1.8485298157e+01
    1.2099871826e+02    1.8520599365e+01
    1.2109870911e+02    1.8555599213e+01
    1.2119869995e+02    1.8590400696e+01
    1.2129869843e+02    1.8625102997e+01
    1.2139869690e+02    1.8659603119e+01
    1.2149871063e+02    1.8694000244e+01
    1.2159870148e+02    1.8728199005e+01
    1.2169869995e+02    1.8762199402e+01
    1.2179869080e+02    1.8796100616e+01
    1.2189869690e+02    1.8829799652e+01
    1.2199870300e+02    1.8863399506e+01
    1.2209870148e+02    1.8896701813e+01
    1.2219869232e+02    1.8929801941e+01
    1.2229869843e+02    1.8962802887e+01
    1.2239868927e+02    1.8995502472e+01
    1.2249868774e+02    1.9027999878e+01
    1.2259868622e+02    1.9060298920e+01
    1.2269866943e+02    1.9092399597e+01
    1.2279868317e+02    1.9124099731e+01
    1.2289866638e+02    1.9155799866e+01
    1.2299867249e+02    1.9187198639e+01
    1.2309868622e+02    1.9218399048e+01
    1.2319867706e+02    1.9249301910e+01
    1.2329866791e+02    1.9279998779e+01
    1.2339868164e+02    1.9310497284e+01
    1.2349867249e+02    1.9340797424e+01
    1.2359867859e+02    1.9370899200e+01
    1.2369866943e+02    1.9400699615e+01
    1.2379866791e+02    1.9430301666e+01
    1.2389865875e+02    1.9459800720e+01
    1.2399864960e+02    1.9489002228e+01
    1.2409866333e+02    1.9518100739e+01
    1.2419866180e+02    1.9546901703e+01
    1.2429865265e+02    1.9575603485e+01
    1.2439865875e+02    1.9604000092e+01
    1.2449864960e+02    1.9632198334e+01
    1.2459867096e+02    1.9660198212e+01
    1.2469864655e+02    1.9688098907e+01
    1.2479863739e+02    1.9715599060e+01
    1.2489865875e+02    1.9742900848e+01
    1.2499864960e+02    1.9770000458e+01
    1.2509866333e+02    1.9796901703e+01
    1.2519863892e+02    1.9823497772e+01
    1.2529866028e+02    1.9849998474e+01
    1.2539865112e+02    1.9876197815e+01
    1.2549864960e+02    1.9902297974e+01
    1.2559863281e+02    1.9928001404e+01
    1.2569863129e+02    1.9953601837e+01
    1.2579865265e+02    1.9979000092e+01
    1.2589862823e+02    2.0004199982e+01
    1.2599862671e+02    2.0029003143e+01
    1.2609864044e+02    2.0053600311e+01
    1.2619863892e+02    2.0078098297e+01
    1.2629862976e+02    2.0102298737e+01
    1.2639862823e+02    2.0126300812e+01
    1.2649864197e+02    2.0150100708e+01
    1.2659861755e+02    2.0173801422e+01
    1.2669863129e+02    2.0197200775e+01
    1.2679862976e+02    2.0220302582e+01
    1.2689861298e+02    2.0243400574e+01
    1.2699861908e+02    2.0266101837e+01
    1.2709860992e+02    2.0288597107e+01
    1.2719860840e+02    2.0310897827e+01
    1.2729860687e+02    2.0333000183e+01
    1.2739861298e+02    2.0354801178e+01
    1.2749859619e+02    2.0376399994e+01
    1.2759860992e+02    2.0397701263e+01
    1.2769862366e+02    2.0418899536e+01
    1.2779859924e+02    2.0439800262e+01
    1.2789859772e+02    2.0460498810e+01
    1.2799861145e+02    2.0480998993e+01
    1.2809858704e+02    2.0501399994e+01
    1.2819859314e+02    2.0521602631e+01
    1.2829861450e+02    2.0541500092e+01
    1.2839860535e+02    2.0561203003e+01
    1.2849859619e+02    2.0580699921e+01
    1.2859861755e+02    2.0600097656e+01
    1.2869862366e+02    2.0619201660e+01
    1.2879862976e+02    2.0638095856e+01
    1.2889865112e+02    2.0656902313e+01
    1.2899864197e+02    2.0675399780e+01
    1.2909866333e+02    2.0693801880e+01
    1.2919865417e+02    2.0711898804e+01
    1.2929866028e+02    2.0729904175e+01
    1.2939868164e+02    2.0747600555e+01
    1.2949867249e+02    2.0765201569e+01
    1.2959867859e+02    2.0782600403e+01
    1.2969868469e+02    2.0799701691e+01
    1.2979870605e+02    2.0816600800e+01
    1.2989871216e+02    2.0833297729e+01
    1.2999870300e+02    2.0849800110e+01
    1.3009870911e+02    2.0891494751e+01
    1.3019873047e+02    2.0933197021e+01
    1.3029872131e+02    2.0974697113e+01
    1.3039872742e+02    2.1016197205e+01
    1.3049873352e+02    2.1057296753e+01
    1.3059875488e+02    2.1098197937e+01
    1.3069874573e+02    2.1138999939e+01
    1.3079876709e+02    2.1179599762e+01
    1.3089877319e+02    2.1219898224e+01
    1.3099877930e+02    2.1260002136e+01
    1.3109878540e+02    2.1299900055e+01
    1.3119879150e+02    2.1339603424e+01
    1.3129878235e+02    2.1379001617e+01
    1.3139880371e+02    2.1418403625e+01
    1.3149879456e+02    2.1457504272e+01
    1.3159880066e+02    2.1496501923e+01
    1.3169882202e+02    2.1535198212e+01
    1.3179881287e+02    2.1573795319e+01
    1.3189883423e+02    2.1612396240e+01
    1.3199884033e+02    2.1650596619e+01
    1.3209883118e+02    2.1688598633e+01
    1.3219883728e+02    2.1726398468e+01
    1.3229884338e+02    2.1764099121e+01
    1.3239886475e+02    2.1801399231e+01
    1.3249885559e+02    2.1838600159e+01
    1.3259886169e+02    2.1875499725e+01
    1.3269888306e+02    2.1912200928e+01
    1.3279887390e+02    2.1948501587e+01
    1.3289888000e+02    2.1984802246e+01
    1.3299888611e+02    2.2020702362e+01
    1.3309889221e+02    2.2056404114e+01
    1.3319889832e+02    2.2091804504e+01
    1.3329890442e+02    2.2126995087e+01
    1.3339892578e+02    2.2161994934e+01
    1.3349891663e+02    2.2196697235e+01
    1.3359893799e+02    2.2231098175e+01
    1.3369894409e+02    2.2265399933e+01
    1.3379893494e+02    2.2299499512e+01
    1.3389895630e+02    2.2333297729e+01
    1.3399896240e+02    2.2366897583e+01
    1.3409895325e+02    2.2400299072e+01
    1.3419895935e+02    2.2433502197e+01
    1.3429896545e+02    2.2466499329e+01
    1.3439898682e+02    2.2499202728e+01
    1.3449896240e+02    2.2531803131e+01
    1.3459899902e+02    2.2564002991e+01
    1.3469898987e+02    2.2596004486e+01
    1.3479899597e+02    2.2627902985e+01
    1.3489901733e+02    2.2659404755e+01
    1.3499902344e+02    2.2690597534e+01
    1.3509901428e+02    2.2721698761e+01
    1.3519903564e+02    2.2752597809e+01
    1.3529902649e+02    2.2783096313e+01
    1.3539903259e+02    2.2813499451e+01
    1.3549905396e+02    2.2843597412e+01
    1.3559906006e+02    2.2873497009e+01
    1.3569905090e+02    2.2903099060e+01
    1.3579905701e+02    2.2932498932e+01
    1.3589906311e+02    2.2961700439e+01
    1.3599906921e+02    2.2990600586e+01
    1.3609909058e+02    2.3019302368e+01
    1.3619909668e+02    2.3047801971e+01
    1.3629908752e+02    2.3076202393e+01
    1.3639909363e+02    2.3104404449e+01
    1.3649911499e+02    2.3132503510e+01
    1.3659910583e+02    2.3160594940e+01
    1.3669911194e+02    2.3188697815e+01
    1.3679913330e+02    2.3216495514e+01
    1.3689912415e+02    2.3244297028e+01
    1.3699914551e+02    2.3271999359e+01
    1.3709913635e+02    2.3299598694e+01
    1.3719914246e+02    2.3327198029e+01
    1.3729914856e+02    2.3354598999e+01
    1.3739915466e+02    2.3381801605e+01
    1.3749917603e+02    2.3408901215e+01
    1.3759916687e+02    2.3435802460e+01
    1.3769917297e+02    2.3462600708e+01
    1.3779919434e+02    2.3489002228e+01
    1.3789918518e+02    2.3515403748e+01
    1.3799920654e+02    2.3541404724e+01
    1.3809919739e+02    2.3567401886e+01
    1.3819920349e+02    2.3593105316e+01
    1.3829922485e+02    2.3618495941e+01
    1.3839921570e+02    2.3643798828e+01
    1.3849922180e+02    2.3668899536e+01
    1.3859921265e+02    2.3693798065e+01
    1.3869923401e+02    2.3718498230e+01
    1.3879924011e+02    2.3743000031e+01
    1.3889926147e+02    2.3767299652e+01
    1.3899926758e+02    2.3791599274e+01
    1.3909925842e+02    2.3815700531e+01
    1.3919926453e+02    2.3839599609e+01
    1.3929928589e+02    2.3863399506e+01
    1.3939927673e+02    2.3887100220e+01
    1.3949928284e+02    2.3910701752e+01
    1.3959930420e+02    2.3934303284e+01
    1.3969929504e+02    2.3957702637e+01
    1.3979930115e+02    2.3981002808e+01
    1.3989930725e+02    2.4004096985e+01
    1.3999931335e+02    2.4027198792e+01
    1.4009930420e+02    2.4074901581e+01
    1.4019932556e+02    2.4122596741e+01
    1.4029933167e+02    2.4170200348e+01
    1.4039933777e+02    2.4217700958e+01
    1.4049935913e+02    2.4265102386e+01
    1.4059934998e+02    2.4312198639e+01
    1.4069935608e+02    2.4359203339e+01
    1.4079937744e+02    2.4406097412e+01
    1.4089935303e+02    2.4452899933e+01
    1.4099937439e+02    2.4499301910e+01
    1.4109938049e+02    2.4545696259e+01
    1.4119938660e+02    2.4591899872e+01
    1.4129939270e+02    2.4638103485e+01
    1.4139939880e+02    2.4684196472e+01
    1.4149940491e+02    2.4730201721e+01
    1.4159942627e+02    2.4776302338e+01
    1.4169941711e+02    2.4822196960e+01
    1.4179942322e+02    2.4868301392e+01
    1.4189944458e+02    2.4914394379e+01
    1.4199943542e+02    2.4960498810e+01
    1.4209945679e+02    2.5006504059e+01
    1.4219946289e+02    2.5052696228e+01
    1.4229945374e+02    2.5098701477e+01
    1.4239947510e+02    2.5144702911e+01
    1.4249948120e+02    2.5190795898e+01
    1.4259947205e+02    2.5236801147e+01
    1.4269949341e+02    2.5282604218e+01
    1.4279949951e+02    2.5328395844e+01
    1.4289949036e+02    2.5374099731e+01
    1.4299951172e+02    2.5419605255e+01
    1.4309950256e+02    2.5464897156e+01
    1.4319952393e+02    2.5510002136e+01
    1.4329953003e+02    2.5554893494e+01
    1.4339953613e+02    2.5599601746e+01
    1.4349954224e+02    2.5644004822e+01
    1.4359953308e+02    2.5688194275e+01
    1.4369955444e+02    2.5732101440e+01
    1.4379956055e+02    2.5775901794e+01
    1.4389956665e+02    2.5819496155e+01
    1.4399957275e+02    2.5862899780e+01
    1.4409956360e+02    2.5906105042e+01
    1.4419955444e+02    2.5949195862e+01
    1.4429959106e+02    2.5992202759e+01
    1.4439958191e+02    2.6035102844e+01
    1.4449960327e+02    2.6077796936e+01
    1.4459959412e+02    2.6120597839e+01
    1.4469960022e+02    2.6163406372e+01
    1.4479960632e+02    2.6206001282e+01
    1.4489961243e+02    2.6248703003e+01
    1.4499963379e+02    2.6291397095e+01
    1.4509962463e+02    2.6334098816e+01
    1.4519964600e+02    2.6376800537e+01
    1.4529963684e+02    2.6419494629e+01
    1.4539964294e+02    2.6462303162e+01
    1.4549966431e+02    2.6505104065e+01
    1.4559965515e+02    2.6547798157e+01
    1.4569967651e+02    2.6590499878e+01
    1.4579966736e+02    2.6633201599e+01
    1.4589967346e+02    2.6675697327e+01
    1.4599967957e+02    2.6718299866e+01
    1.4609970093e+02    2.6760597229e+01
    1.4619970703e+02    2.6803001404e+01
    1.4629969788e+02    2.6845298767e+01
    1.4639970398e+02    2.6887397766e+01
    1.4649971008e+02    2.6929397583e+01
    1.4659971619e+02    2.6971504211e+01
    1.4669973755e+02    2.7013397217e+01
    1.4679974365e+02    2.7055198669e+01
    1.4689973450e+02    2.7097000122e+01
    1.4699974060e+02    2.7138793945e+01
    1.4709974670e+02    2.7180397034e+01
    1.4719976807e+02    2.7222099304e+01
    1.4729977417e+02    2.7263595581e+01
    1.4739976501e+02    2.7305000305e+01
    1.4749977112e+02    2.7346397400e+01
    1.4759979248e+02    2.7387802124e+01
    1.4769978333e+02    2.7429100037e+01
    1.4779977417e+02    2.7470397949e+01
    1.4789981079e+02    2.7511695862e+01
    1.4799980164e+02    2.7552803040e+01
    1.4809982300e+02    2.7593994141e+01
    1.4819981384e+02    2.7635002136e+01
    1.4829983521e+02    2.7675804138e+01
    1.4839982605e+02    2.7716598511e+01
    1.4849984741e+02    2.7757400513e+01
    1.4859983826e+02    2.7798004150e+01
    1.4869984436e+02    2.7838401794e+01
    1.4879983521e+02    2.7878898621e+01
    1.4889987183e+02    2.7919303894e+01
    1.4899986267e+02    2.7959503174e+01
    1.4909986877e+02    2.7998695374e+01
    1.4919987488e+02    2.8038696289e+01
    1.4929989624e+02    2.8078697205e+01
    1.4939990234e+02    2.8118598938e+01
    1.4949989319e+02    2.8158401489e+01
    1.4959989929e+02    2.8198295593e+01
    1.4969990540e+02    2.8236999512e+01
    1.4979991150e+02    2.8276802063e+01
    1.4989991760e+02    2.8316497803e+01
    1.4999992371e+02    2.8356399536e+01
    1.5009992981e+02    2.8420196533e+01
    1.5019995117e+02    2.8484100342e+01
    1.5029995728e+02    2.8547195435e+01
    1.5039996338e+02    2.8611198425e+01
    1.5049995422e+02    2.8675399780e+01
    1.5059994507e+02    2.8739501953e+01
    1.5069996643e+02    2.8802597046e+01
    1.5079997253e+02    2.8866798401e+01
    1.5089999390e+02    2.8930892944e+01
    1.5099998474e+02    2.8994903564e+01
    1.5110000610e+02    2.9058906555e+01
    1.5119999695e+02    2.9121803284e+01
    1.5130001831e+02    2.9185699463e+01
    1.5140000916e+02    2.9249397278e+01
    1.5150003052e+02    2.9313102722e+01
    1.5160003662e+02    2.9375701904e+01
    1.5170002747e+02    2.9439300537e+01
    1.5180003357e+02    2.9502799988e+01
    1.5190003967e+02    2.9566101074e+01
    1.5200004578e+02    2.9629394531e+01
    1.5210006714e+02    2.9691604614e+01
    1.5220005798e+02    2.9754699707e+01
    1.5230007935e+02    2.9817596436e+01
    1.5240008545e+02    2.9880500793e+01
    1.5250009155e+02    2.9943298340e+01
    1.5260008240e+02    3.0005004883e+01
    1.5270008850e+02    3.0067497253e+01
    1.5280010986e+02    3.0130004883e+01
    1.5290011597e+02    3.0192298889e+01
    1.5300012207e+02    3.0253601074e+01
    1.5310011292e+02    3.0315795898e+01
    1.5320013428e+02    3.0377799988e+01
    1.5330014038e+02    3.0439697266e+01
    1.5340014648e+02    3.0501502991e+01
    1.5350013733e+02    3.0562194824e+01
    1.5360014343e+02    3.0623703003e+01
    1.5370014954e+02    3.0685104370e+01
    1.5380015564e+02    3.0746398926e+01
    1.5390017700e+02    3.0806503296e+01
    1.5400018311e+02    3.0867500305e+01
    1.5410017395e+02    3.0928405762e+01
    1.5420019531e+02    3.0989196777e+01
    1.5430018616e+02    3.1049903870e+01
    1.5440019226e+02    3.1109497070e+01
    1.5450018311e+02    3.1169998169e+01
    1.5460020447e+02    3.1230400085e+01
    1.5470021057e+02    3.1290802002e+01
    1.5480023193e+02    3.1351097107e+01
    1.5490022278e+02    3.1410301208e+01
    1.5500021362e+02    3.1470397949e+01
    1.5510025024e+02    3.1530502319e+01
    1.5520025635e+02    3.1590606689e+01
    1.5530024719e+02    3.1649696350e+01
    1.5540025330e+02    3.1709701538e+01
    1.5550027466e+02    3.1769699097e+01
    1.5560026550e+02    3.1829605103e+01
    1.5570027161e+02    3.1889495850e+01
    1.5580026245e+02    3.1948204041e+01
    1.5590028381e+02    3.2007896423e+01
    1.5600030518e+02    3.2067398071e+01
    1.5610031128e+02    3.2126800537e+01
    1.5620031738e+02    3.2184997559e+01
    1.5630030823e+02    3.2244194031e+01
    1.5640031433e+02    3.2303100586e+01
    1.5650033569e+02    3.2361900330e+01
    1.5660032654e+02    3.2420501709e+01
    1.5670034790e+02    3.2477905273e+01
    1.5680035400e+02    3.2536102295e+01
    1.5690036011e+02    3.2594100952e+01
    1.5700035095e+02    3.2652000427e+01
    1.5710037231e+02    3.2709602356e+01
    1.5720036316e+02    3.2765998840e+01
    1.5730036926e+02    3.2823204041e+01
    1.5740037537e+02    3.2880195618e+01
    1.5750038147e+02    3.2937004089e+01
    1.5760040283e+02    3.2993698120e+01
    1.5770039368e+02    3.3049201965e+01
    1.5780041504e+02    3.3105499268e+01
    1.5790040588e+02    3.3161697388e+01
    1.5800042725e+02    3.3217803955e+01
    1.5810040283e+02    3.3272796631e+01
    1.5820043945e+02    3.3328605652e+01
    1.5830044556e+02    3.3384399414e+01
    1.5840043640e+02    3.3440002441e+01
    1.5850044250e+02    3.3495498657e+01
    1.5860043335e+02    3.3549903870e+01
    1.5870045471e+02    3.3605194092e+01
    1.5880046082e+02    3.3660301208e+01
    1.5890046692e+02    3.3715293884e+01
    1.5900047302e+02    3.3769203186e+01
    1.5910047913e+02    3.3823898315e+01
    1.5920048523e+02    3.3878501892e+01
    1.5930050659e+02    3.3933006287e+01
    1.5940049744e+02    3.3987297058e+01
    1.5950050354e+02    3.4040504456e+01
    1.5960052490e+02    3.4094497681e+01
    1.5970051575e+02    3.4148399353e+01
    1.5980052185e+02    3.4202095032e+01
    1.5990054321e+02    3.4255599976e+01
    1.6000054932e+02    3.4307899475e+01
    1.6010055542e+02    3.4383193970e+01
    1.6020054626e+02    3.4458206177e+01
    1.6030056763e+02    3.4532104492e+01
    1.6040055847e+02    3.4606803894e+01
    1.6050056458e+02    3.4681404114e+01
    1.6060058594e+02    3.4755699158e+01
    1.6070057678e+02    3.4828903198e+01
    1.6080058289e+02    3.4902999878e+01
    1.6090060425e+02    3.4976898193e+01
    1.6100059509e+02    3.5049499512e+01
    1.6110060120e+02    3.5123001099e+01
    1.6120062256e+02    3.5196205139e+01
    1.6130061340e+02    3.5268302917e+01
    1.6140063477e+02    3.5341201782e+01
    1.6150064087e+02    3.5413803101e+01
    1.6160064697e+02    3.5485305786e+01
    1.6170062256e+02    3.5557601929e+01
    1.6180064392e+02    3.5629707336e+01
    1.6190065002e+02    3.5701499939e+01
    1.6200065613e+02    3.5772193909e+01
    1.6210067749e+02    3.5843505859e+01
    1.6220068359e+02    3.5914695740e+01
    1.6230067444e+02    3.5984596252e+01
    1.6240068054e+02    3.6055198669e+01
    1.6250068665e+02    3.6125602722e+01
    1.6260069275e+02    3.6194702148e+01
    1.6270071411e+02    3.6264595032e+01
    1.6280070496e+02    3.6334205627e+01
    1.6290071106e+02    3.6402503967e+01
    1.6300071716e+02    3.6471595764e+01
    1.6310073853e+02    3.6540397644e+01
    1.6320074463e+02    3.6608894348e+01
    1.6330073547e+02    3.6676208496e+01
    1.6340074158e+02    3.6744201660e+01
    1.6350074768e+02    3.6811904907e+01
    1.6360075378e+02    3.6878402710e+01
    1.6370075989e+02    3.6945594788e+01
    1.6380076599e+02    3.7012603760e+01
    1.6390078735e+02    3.7078300476e+01
    1.6400079346e+02    3.7144790649e+01
    1.6410078430e+02    3.7210998535e+01
    1.6420079041e+02    3.7276000977e+01
    1.6430079651e+02    3.7341705322e+01
    1.6440080261e+02    3.7407196045e+01
    1.6450080872e+02    3.7471298218e+01
    1.6460081482e+02    3.7536300659e+01
    1.6470082092e+02    3.7600898743e+01
    1.6480082703e+02    3.7665199280e+01
    1.6490083313e+02    3.7728302002e+01
    1.6500085449e+02    3.7791992188e+01
    1.6510086060e+02    3.7855499268e+01
    1.6520086670e+02    3.7917701721e+01
    1.6530085754e+02    3.7980606079e+01
    1.6540086365e+02    3.8043098450e+01
    1.6550088501e+02    3.8104393005e+01
    1.6560089111e+02    3.8166305542e+01
    1.6570089722e+02    3.8227897644e+01
    1.6580090332e+02    3.8288192749e+01
    1.6590089417e+02    3.8349197388e+01
    1.6600090027e+02    3.8410003662e+01
    1.6610090637e+02    3.8470001221e+01
    1.6620091248e+02    3.8528999329e+01
    1.6630093384e+02    3.8589004517e+01
    1.6640092468e+02    3.8647994995e+01
    1.6650094604e+02    3.8705993652e+01
    1.6660093689e+02    3.8764999390e+01
    1.6670094299e+02    3.8822990417e+01
    1.6680096436e+02    3.8880004883e+01
    1.6690095520e+02    3.8937995911e+01
    1.6700097656e+02    3.8995002747e+01
    1.6710098267e+02    3.9051002502e+01
    1.6720097351e+02    3.9107994080e+01
    1.6730097961e+02    3.9164001465e+01
    1.6740098572e+02    3.9219993591e+01
    1.6750099182e+02    3.9273994446e+01
    1.6760099792e+02    3.9330001831e+01
    1.6770100403e+02    3.9384010315e+01
    1.6780101013e+02    3.9438003540e+01
    1.6790103149e+02    3.9491996765e+01
    1.6800102234e+02    3.9546005249e+01
    1.6810102844e+02    3.9598007202e+01
    1.6820103455e+02    3.9650993347e+01
    1.6830105591e+02    3.9704002380e+01
    1.6840104675e+02    3.9756004333e+01
    1.6850105286e+02    3.9807991028e+01
    1.6860107422e+02    3.9859001160e+01
    1.6870106506e+02    3.9911003113e+01
    1.6880107117e+02    3.9961006165e+01
    1.6890109253e+02    4.0010993958e+01
    1.6900109863e+02    4.0062004089e+01
    1.6910107422e+02    4.0111000061e+01
    1.6920109558e+02    4.0159996033e+01
    1.6930110168e+02    4.0208999634e+01
    1.6940110779e+02    4.0257003784e+01
    1.6950111389e+02    4.0306007385e+01
    1.6960113525e+02    4.0353996277e+01
    1.6970114136e+02    4.0401000977e+01
    1.6980114746e+02    4.0448005676e+01
    1.6990113831e+02    4.0494995117e+01
    1.7000114441e+02    4.0541999817e+01
    1.7010115051e+02    4.0607994080e+01
    1.7020117188e+02    4.0673995972e+01
    1.7030117798e+02    4.0739006042e+01
    1.7040116882e+02    4.0805000305e+01
    1.7050117493e+02    4.0868995667e+01
    1.7060119629e+02    4.0934005737e+01
    1.7070118713e+02    4.0998001099e+01
    1.7080119324e+02    4.1060997009e+01
    1.7090119934e+02    4.1123992920e+01
    1.7100120544e+02    4.1187004089e+01
    1.7110121155e+02    4.1249000549e+01
    1.7120121765e+02    4.1310997009e+01
    1.7130122375e+02    4.1373008728e+01
    1.7140124512e+02    4.1433998108e+01
    1.7150123596e+02    4.1494995117e+01
    1.7160125732e+02    4.1554992676e+01
    1.7170126343e+02    4.1615005493e+01
    1.7180125427e+02    4.1675003052e+01
    1.7190124512e+02    4.1733993530e+01
    1.7200128174e+02    4.1793998718e+01
    1.7210128784e+02    4.1851989746e+01
    1.7220129395e+02    4.1910003662e+01
    1.7230128479e+02    4.1968002319e+01
    1.7240129089e+02    4.2024993896e+01
    1.7250129700e+02    4.2082008362e+01
    1.7260130310e+02    4.2138000488e+01
    1.7270130920e+02    4.2194000244e+01
    1.7280133057e+02    4.2249992371e+01
    1.7290133667e+02    4.2305000305e+01
    1.7300134277e+02    4.2359001160e+01
    1.7310134888e+02    4.2412994385e+01
    1.7320135498e+02    4.2467002869e+01
    1.7330134583e+02    4.2520004272e+01
    1.7340136719e+02    4.2572998047e+01
    1.7350134277e+02    4.2624992371e+01
    1.7360136414e+02    4.2676002502e+01
    1.7370137024e+02    4.2727996826e+01
    1.7380137634e+02    4.2777992249e+01
    1.7390138245e+02    4.2829002380e+01
    1.7400140381e+02    4.2877998352e+01
    1.7410140991e+02    4.2927993774e+01
    1.7420140076e+02    4.2975990295e+01
    1.7430140686e+02    4.3025001526e+01
    1.7440141296e+02    4.3072998047e+01
    1.7450140381e+02    4.3119995117e+01
    1.7460144043e+02    4.3167007446e+01
    1.7470144653e+02    4.3214004517e+01
    1.7480143738e+02    4.3261001587e+01
    1.7490144348e+02    4.3305999756e+01
    1.7500146484e+02    4.3350997925e+01
    1.7510145569e+02    4.3396003723e+01
    1.7520146179e+02    4.3440002441e+01
    1.7530148315e+02    4.3483993530e+01
    1.7540148926e+02    4.3527992249e+01
    1.7550148010e+02    4.3571006775e+01
    1.7560148621e+02    4.3612998962e+01
    1.7570150757e+02    4.3654991150e+01
    1.7580148315e+02    4.3696006775e+01
    1.7590151978e+02    4.3736999512e+01
    1.7600151062e+02    4.3777999878e+01
    1.7610153198e+02    4.3817993164e+01
    1.7620152283e+02    4.3858001709e+01
    1.7630151367e+02    4.3896995544e+01
    1.7640153503e+02    4.3935997009e+01
    1.7650154114e+02    4.3974006653e+01
    1.7660154724e+02    4.4012001038e+01
    1.7670155334e+02    4.4048995972e+01
    1.7680157471e+02    4.4086006165e+01
    1.7690158081e+02    4.4122001648e+01
    1.7700157166e+02    4.4157997131e+01
    1.7710159302e+02    4.4193992615e+01
    1.7720158386e+02    4.4229003906e+01
    1.7730160522e+02    4.4263992310e+01
    1.7740161133e+02    4.4298004150e+01
    1.7750160217e+02    4.4332000732e+01
    1.7760162354e+02    4.4364997864e+01
    1.7770162964e+02    4.4397003174e+01
    1.7780160522e+02    4.4430000305e+01
    1.7790162659e+02    4.4460998535e+01
    1.7800163269e+02    4.4493003845e+01
    1.7810163879e+02    4.4523002625e+01
    1.7820164490e+02    4.4554000854e+01
    1.7830163574e+02    4.4583992004e+01
    1.7840167236e+02    4.4613006592e+01
    1.7850167847e+02    4.4641998291e+01
    1.7860168457e+02    4.4669998169e+01
    1.7870167542e+02    4.4698005676e+01
    1.7880169678e+02    4.4726005554e+01
    1.7890170288e+02    4.4752998352e+01
    1.7900169373e+02    4.4779991150e+01
    1.7910169983e+02    4.4806007385e+01
    1.7920170593e+02    4.4832000732e+01
    1.7930172729e+02    4.4856994629e+01
    1.7940173340e+02    4.4882003784e+01
    1.7950172424e+02    4.4906005859e+01
    1.7960173035e+02    4.4930000305e+01
    1.7970173645e+02    4.4952987671e+01
    1.7980174255e+02    4.4975997925e+01
    1.7990176392e+02    4.5000000000e+01
    1.8000177002e+02    4.5022003174e+01
    1.8010176086e+02    4.5059997559e+01
    1.8020178223e+02    4.5098999023e+01
    1.8030177307e+02    4.5137008667e+01
    1.8040179443e+02    4.5174987793e+01
    1.8050178528e+02    4.5212005615e+01
    1.8060180664e+02    4.5250000000e+01
    1.8070181274e+02    4.5285995483e+01
    1.8080181885e+02    4.5321990967e+01
    1.8090180969e+02    4.5358001709e+01
    1.8100181580e+02    4.5391998291e+01
    1.8110182190e+02    4.5428009033e+01
    1.8120184326e+02    4.5460998535e+01
    1.8130183411e+02    4.5496002197e+01
    1.8140184021e+02    4.5529006958e+01
    1.8150184631e+02    4.5562011719e+01
    1.8160185242e+02    4.5593994141e+01
    1.8170187378e+02    4.5626998901e+01
    1.8180187988e+02    4.5657989502e+01
    1.8190188599e+02    4.5688995361e+01
    1.8200187683e+02    4.5720001221e+01
    1.8210188293e+02    4.5750000000e+01
    1.8220190430e+02    4.5779998779e+01
    1.8230191040e+02    4.5809005737e+01
    1.8240191650e+02    4.5837997437e+01
    1.8250190735e+02    4.5865997314e+01
    1.8260191345e+02    4.5894012451e+01
    1.8270193481e+02    4.5921005249e+01
    1.8280192566e+02    4.5947998047e+01
    1.8290191650e+02    4.5974990845e+01
    1.8300193787e+02    4.6000991821e+01
    1.8310194397e+02    4.6026000977e+01
    1.8320196533e+02    4.6052001953e+01
    1.8330195618e+02    4.6076004028e+01
    1.8340197754e+02    4.6100997925e+01
    1.8350198364e+02    4.6123992920e+01
    1.8360197449e+02    4.6147994995e+01
    1.8370199585e+02    4.6169998169e+01
    1.8380198669e+02    4.6192001343e+01
    1.8390199280e+02    4.6214996338e+01
    1.8400199890e+02    4.6235992432e+01
    1.8410200500e+02    4.6257995605e+01
    1.8420201111e+02    4.6277999878e+01
    1.8430201721e+02    4.6299011230e+01
    1.8440202332e+02    4.6319000244e+01
    1.8450202942e+02    4.6339004517e+01
    1.8460203552e+02    4.6357986450e+01
    1.8470204163e+02    4.6376998901e+01
    1.8480206299e+02    4.6395004272e+01
    1.8490205383e+02    4.6414001465e+01
    1.8500205994e+02    4.6431991577e+01
    1.8510206604e+02    4.6449005127e+01
    1.8520207214e+02    4.6465988159e+01
    1.8530209351e+02    4.6481994629e+01
    1.8540208435e+02    4.6499008179e+01
    1.8550209045e+02    4.6514999390e+01
    1.8560209656e+02    4.6530990601e+01
    1.8570210266e+02    4.6546005249e+01
    1.8580210876e+02    4.6560989380e+01
    1.8590213013e+02    4.6574996948e+01
    1.8600213623e+02    4.6589996338e+01
    1.8610212708e+02    4.6602996826e+01
    1.8620213318e+02    4.6617004395e+01
    1.8630213928e+02    4.6630004883e+01
    1.8640216064e+02    4.6642990112e+01
    1.8650216675e+02    4.6654998779e+01
    1.8660217285e+02    4.6666000366e+01
    1.8670216370e+02    4.6677993774e+01
    1.8680218506e+02    4.6689010620e+01
    1.8690219116e+02    4.6700012207e+01
    1.8700219727e+02    4.6710006714e+01
    1.8710220337e+02    4.6720001221e+01
    1.8720219421e+02    4.6729995728e+01
    1.8730220032e+02    4.6738998413e+01
    1.8740222168e+02    4.6748001099e+01
    1.8750221252e+02    4.6757003784e+01
    1.8760223389e+02    4.6764999390e+01
    1.8770223999e+02    4.6772994995e+01
    1.8780223083e+02    4.6779998779e+01
    1.8790223694e+02    4.6787002563e+01
    1.8800224304e+02    4.6794006348e+01
    1.8810226440e+02    4.6800003052e+01
    1.8820227051e+02    4.6807006836e+01
    1.8830227661e+02    4.6811996460e+01
    1.8840228271e+02    4.6817993164e+01
    1.8850227356e+02    4.6822998047e+01
    1.8860229492e+02    4.6829010010e+01
    1.8870230103e+02    4.6832992554e+01
    1.8880230713e+02    4.6837997437e+01
    1.8890228271e+02    4.6841995239e+01
    1.8900230408e+02    4.6845993042e+01
    1.8910231018e+02    4.6850006104e+01
    1.8920231628e+02    4.6852996826e+01
    1.8930233765e+02    4.6856002808e+01
    1.8940231323e+02    4.6858993530e+01
    1.8950234985e+02    4.6861999512e+01
    1.8960235596e+02    4.6863998413e+01
    1.8970236206e+02    4.6865997314e+01
    1.8980235291e+02    4.6867004395e+01
    1.8990235901e+02    4.6869003296e+01
    1.9000238037e+02    4.6871002197e+01
    1.9010238647e+02    4.6886993408e+01
    1.9020239258e+02    4.6902008057e+01
    1.9030238342e+02    4.6916992188e+01
    1.9040240479e+02    4.6930999756e+01
    1.9050239563e+02    4.6945999146e+01
    1.9060241699e+02    4.6960006714e+01
    1.9070242310e+02    4.6975006104e+01
    1.9080241394e+02    4.6988006592e+01
    1.9090243530e+02    4.7000991821e+01
    1.9100244141e+02    4.7014007568e+01
    1.9110244751e+02    4.7026992798e+01
    1.9120242310e+02    4.7040008545e+01
    1.9130244446e+02    4.7052001953e+01
    1.9140245056e+02    4.7065002441e+01
    1.9150245667e+02    4.7077011108e+01
    1.9160246277e+02    4.7087997437e+01
    1.9170248413e+02    4.7099014282e+01
    1.9180247498e+02    4.7111007690e+01
    1.9190249634e+02    4.7121994019e+01
    1.9200250244e+02    4.7132003784e+01
    1.9210249329e+02    4.7143997192e+01
    1.9220251465e+02    4.7153991699e+01
    1.9230250549e+02    4.7164001465e+01
    1.9240252686e+02    4.7173995972e+01
    1.9250253296e+02    4.7184005737e+01
    1.9260253906e+02    4.7192993164e+01
    1.9270252991e+02    4.7202987671e+01
    1.9280255127e+02    4.7212997437e+01
    1.9290255737e+02    4.7221008301e+01
    1.9300256348e+02    4.7229995728e+01
    1.9310255432e+02    4.7238006592e+01
    1.9320257568e+02    4.7246002197e+01
    1.9330258179e+02    4.7253997803e+01
    1.9340257263e+02    4.7261993408e+01
    1.9350256348e+02    4.7270996094e+01
    1.9360260010e+02    4.7277999878e+01
    1.9370260620e+02    4.7285003662e+01
    1.9380259705e+02    4.7291992188e+01
    1.9390260315e+02    4.7298995972e+01
    1.9400260925e+02    4.7304992676e+01
    1.9410261536e+02    4.7312011719e+01
    1.9420263672e+02    4.7319000244e+01
    1.9430262756e+02    4.7324996948e+01
    1.9440263367e+02    4.7331008911e+01
[...]
    2.5130612183e+02    4.1904998779e+01
    2.5140611267e+02    4.1847015381e+01
    2.5150611877e+02    4.1787994385e+01
    2.5160612488e+02    4.1729003906e+01
    2.5170613098e+02    4.1669006348e+01
    2.5180613708e+02    4.1609985352e+01
    2.5190614319e+02    4.1552001953e+01
    2.5200613403e+02    4.1493011475e+01
    2.5210615540e+02    4.1433990479e+01
    2.5220617676e+02    4.1373992920e+01
    2.5230616760e+02    4.1315002441e+01
    2.5240617371e+02    4.1255004883e+01
    2.5250619507e+02    4.1195983887e+01
    2.5260618591e+02    4.1135986328e+01
    2.5270619202e+02    4.1076995850e+01
    2.5280618286e+02    4.1016998291e+01
    2.5290620422e+02    4.0958007812e+01
    2.5300622559e+02    4.0897003174e+01
    2.5310623169e+02    4.0837005615e+01
    2.5320623779e+02    4.0777984619e+01
    2.5330622864e+02    4.0717987061e+01
    2.5340625000e+02    4.0657989502e+01
    2.5350625610e+02    4.0597991943e+01
    2.5360624695e+02    4.0537994385e+01
    2.5370625305e+02    4.0476989746e+01
    2.5380625916e+02    4.0416992188e+01
    2.5390626526e+02    4.0358001709e+01
    2.5400625610e+02    4.0298004150e+01
    2.5410627747e+02    4.0238006592e+01
    2.5420629883e+02    4.0178009033e+01
    2.5430628967e+02    4.0116973877e+01
    2.5440629578e+02    4.0056976318e+01
    2.5450630188e+02    3.9997985840e+01
    2.5460632324e+02    3.9937988281e+01
    2.5470632935e+02    3.9877990723e+01
    2.5480632019e+02    3.9817993164e+01
    2.5490632629e+02    3.9759002686e+01
    2.5500633240e+02    3.9697998047e+01
    2.5510632324e+02    3.9638977051e+01
    2.5520634460e+02    3.9578979492e+01
    2.5530635071e+02    3.9518981934e+01
    2.5540635681e+02    3.9459991455e+01
    2.5550637817e+02    3.9399993896e+01
    2.5560636902e+02    3.9340026855e+01
    2.5570637512e+02    3.9281005859e+01
    2.5580639648e+02    3.9220977783e+01
    2.5590640259e+02    3.9161987305e+01
    2.5600637817e+02    3.9102996826e+01
    2.5610638428e+02    3.9042999268e+01
    2.5620639038e+02    3.8983001709e+01
    2.5630639648e+02    3.8924011230e+01
    2.5640640259e+02    3.8865020752e+01
    2.5650640869e+02    3.8805023193e+01
    2.5660641479e+02    3.8746002197e+01
    2.5670642090e+02    3.8687011719e+01
    2.5680642700e+02    3.8627990723e+01
    2.5690643311e+02    3.8568023682e+01
    2.5700643921e+02    3.8509002686e+01
    2.5710644531e+02    3.8450012207e+01
    2.5720645142e+02    3.8391021729e+01
    2.5730645752e+02    3.8332000732e+01
    2.5740646362e+02    3.8273010254e+01
    2.5750646973e+02    3.8214019775e+01
    2.5760647583e+02    3.8154998779e+01
    2.5770648193e+02    3.8096008301e+01
    2.5780648804e+02    3.8037017822e+01
    2.5790649414e+02    3.7979003906e+01
    2.5800650024e+02    3.7920013428e+01
    2.5810650635e+02    3.7861022949e+01
    2.5820651245e+02    3.7802001953e+01
    2.5830651855e+02    3.7743011475e+01
    2.5840652466e+02    3.7684997559e+01
    2.5850653076e+02    3.7626007080e+01
    2.5860653687e+02    3.7567993164e+01
    2.5870654297e+02    3.7509002686e+01
    2.5880654907e+02    3.7451019287e+01
    2.5890655518e+02    3.7391998291e+01
    2.5900656128e+02    3.7333007812e+01
    2.5910656738e+02    3.7274993896e+01
    2.5920657349e+02    3.7217010498e+01
    2.5930657959e+02    3.7158996582e+01
    2.5940658569e+02    3.7100006104e+01
    2.5950659180e+02    3.7040985107e+01
    2.5960659790e+02    3.6983001709e+01
    2.5970660400e+02    3.6924987793e+01
    2.5980661011e+02    3.6867004395e+01
    2.5990661621e+02    3.6808990479e+01
    2.6000662231e+02    3.6751007080e+01
    2.6010662842e+02    3.6694000244e+01
    2.6020663452e+02    3.6637023926e+01
    2.6030664062e+02    3.6579010010e+01
    2.6040664673e+02    3.6522003174e+01
    2.6050665283e+02    3.6464996338e+01
    2.6060665894e+02    3.6407989502e+01
    2.6070666504e+02    3.6351013184e+01
    2.6080667114e+02    3.6294006348e+01
    2.6090667725e+02    3.6237030029e+01
    2.6100668335e+02    3.6178985596e+01
    2.6110668945e+02    3.6122985840e+01
    2.6120669556e+02    3.6065002441e+01
    2.6130670166e+02    3.6009002686e+01
    2.6140667725e+02    3.5953002930e+01
    2.6150671387e+02    3.5895019531e+01
    2.6160671997e+02    3.5838989258e+01
    2.6170672607e+02    3.5781982422e+01
    2.6180673218e+02    3.5725982666e+01
    2.6190670776e+02    3.5667999268e+01
    2.6200674438e+02    3.5611999512e+01
    2.6210675049e+02    3.5554992676e+01
    2.6220675659e+02    3.5499023438e+01
    2.6230676270e+02    3.5442993164e+01
    2.6240676880e+02    3.5385986328e+01
    2.6250677490e+02    3.5329986572e+01
    2.6260678101e+02    3.5273010254e+01
    2.6270678711e+02    3.5217010498e+01
    2.6280679321e+02    3.5161010742e+01
    2.6290679932e+02    3.5104980469e+01
    2.6300677490e+02    3.5048980713e+01
    2.6310681152e+02    3.4992004395e+01
    2.6320678711e+02    3.4937011719e+01
    2.6330682373e+02    3.4880004883e+01
    2.6340679932e+02    3.4825012207e+01
    2.6350680542e+02    3.4768005371e+01
    2.6360684204e+02    3.4711975098e+01
    2.6370684814e+02    3.4655975342e+01
    2.6380685425e+02    3.4600982666e+01
    2.6390686035e+02    3.4545013428e+01
    2.6400683594e+02    3.4489013672e+01
    2.6410687256e+02    3.4434020996e+01
    2.6420687866e+02    3.4377014160e+01
    2.6430688477e+02    3.4321990967e+01
    2.6440689087e+02    3.4265991211e+01
    2.6450689697e+02    3.4210998535e+01
    2.6460690308e+02    3.4154998779e+01
    2.6470690918e+02    3.4100006104e+01
    2.6480691528e+02    3.4044982910e+01
    2.6490692139e+02    3.3988983154e+01
    2.6500692749e+02    3.3933990479e+01
    2.6510693359e+02    3.3877990723e+01
    2.6520693970e+02    3.3822998047e+01
    2.6530694580e+02    3.3768005371e+01
    2.6540695190e+02    3.3713012695e+01
    2.6550695801e+02    3.3657989502e+01
    2.6560696411e+02    3.3602996826e+01
    2.6570697021e+02    3.3548004150e+01
    2.6580697632e+02    3.3493011475e+01
    2.6590698242e+02    3.3438018799e+01
    2.6600698853e+02    3.3382995605e+01
    2.6610699463e+02    3.3328002930e+01
    2.6620700073e+02    3.3273010254e+01
    2.6630697632e+02    3.3218994141e+01
    2.6640701294e+02    3.3164001465e+01
    2.6650701904e+02    3.3109008789e+01
    2.6660702515e+02    3.3055023193e+01
    2.6670703125e+02    3.3000000000e+01
    2.6680703735e+02    3.2945983887e+01
    2.6690704346e+02    3.2890991211e+01
    2.6700704956e+02    3.2837005615e+01
    2.6710705566e+02    3.2781982422e+01
    2.6720706177e+02    3.2727996826e+01
    2.6730706787e+02    3.2674011230e+01
    2.6740707397e+02    3.2619018555e+01
    2.6750708008e+02    3.2565979004e+01
    2.6760708618e+02    3.2510986328e+01
    2.6770709229e+02    3.2457000732e+01
    2.6780709839e+02    3.2402008057e+01
    2.6790710449e+02    3.2348999023e+01
    2.6800711060e+02    3.2295013428e+01
    2.6810711670e+02    3.2240997314e+01
    2.6820712280e+02    3.2186981201e+01
    2.6830712891e+02    3.2132995605e+01
    2.6840713501e+02    3.2079010010e+01
    2.6850714111e+02    3.2024993896e+01
    2.6860714722e+02    3.1972015381e+01
    2.6870715332e+02    3.1917999268e+01
    2.6880715942e+02    3.1863983154e+01
    2.6890716553e+02    3.1811004639e+01
    2.6900717163e+02    3.1756988525e+01
    2.6910717773e+02    3.1704010010e+01
    2.6920718384e+02    3.1649993896e+01
    2.6930718994e+02    3.1597015381e+01
    2.6940719604e+02    3.1542022705e+01
    2.6950720215e+02    3.1488983154e+01
    2.6960720825e+02    3.1436004639e+01
    2.6970721436e+02    3.1381988525e+01
    2.6980722046e+02    3.1329010010e+01
    2.6990722656e+02    3.1274993896e+01
    2.7000723267e+02    3.1221984863e+01
    2.7010723877e+02    3.1166015625e+01
    2.7020724487e+02    3.1109985352e+01
    2.7030725098e+02    3.1054992676e+01
    2.7040722656e+02    3.0999023438e+01
    2.7050726318e+02    3.0944000244e+01
    2.7060726929e+02    3.0888000488e+01
    2.7070727539e+02    3.0832000732e+01
    2.7080728149e+02    3.0776977539e+01
    2.7090728760e+02    3.0721008301e+01
    2.7100729370e+02    3.0665008545e+01
    2.7110729980e+02    3.0609008789e+01
    2.7120730591e+02    3.0552978516e+01
    2.7130731201e+02    3.0496978760e+01
    2.7140731812e+02    3.0440002441e+01
    2.7150732422e+02    3.0384002686e+01
    2.7160733032e+02    3.0328002930e+01
    2.7170733643e+02    3.0271972656e+01
    2.7180734253e+02    3.0216003418e+01
    2.7190734863e+02    3.0158996582e+01
    2.7200735474e+02    3.0102996826e+01
    2.7210736084e+02    3.0045989990e+01
    2.7220736694e+02    2.9989013672e+01
    2.7230737305e+02    2.9932006836e+01
    2.7240737915e+02    2.9875000000e+01
    2.7250738525e+02    2.9817993164e+01
    2.7260739136e+02    2.9760986328e+01
    2.7270739746e+02    2.9701995850e+01
    2.7280740356e+02    2.9644989014e+01
    2.7290740967e+02    2.9587005615e+01
    2.7300741577e+02    2.9528991699e+01
    2.7310742188e+02    2.9472015381e+01
    2.7320742798e+02    2.9412994385e+01
    2.7330743408e+02    2.9355010986e+01
    2.7340744019e+02    2.9296997070e+01
    2.7350741577e+02    2.9238983154e+01
    2.7360745239e+02    2.9180023193e+01
    2.7370745850e+02    2.9121002197e+01
    2.7380746460e+02    2.9062988281e+01
    2.7390747070e+02    2.9003021240e+01
    2.7400747681e+02    2.8944000244e+01
    2.7410748291e+02    2.8884002686e+01
    2.7420748901e+02    2.8824981689e+01
    2.7430749512e+02    2.8764984131e+01
    2.7440750122e+02    2.8706024170e+01
    2.7450750732e+02    2.8645996094e+01
    2.7460751343e+02    2.8585998535e+01
    2.7470751953e+02    2.8526000977e+01
    2.7480752563e+02    2.8464996338e+01
    2.7490753174e+02    2.8404998779e+01
    2.7500753784e+02    2.8343994141e+01
    2.7510754395e+02    2.8281982422e+01
    2.7520755005e+02    2.8220977783e+01
    2.7530755615e+02    2.8160003662e+01
    2.7540756226e+02    2.8098999023e+01
    2.7550756836e+02    2.8037994385e+01
    2.7560757446e+02    2.7975982666e+01
    2.7570758057e+02    2.7914001465e+01
    2.7580758667e+02    2.7852020264e+01
    2.7590759277e+02    2.7790008545e+01
    2.7600759888e+02    2.7727996826e+01
    2.7610760498e+02    2.7665985107e+01
    2.7620761108e+02    2.7603027344e+01
    2.7630761719e+02    2.7540008545e+01
    2.7640762329e+02    2.7475982666e+01
    2.7650762939e+02    2.7412994385e+01
    2.7660763550e+02    2.7350006104e+01
    2.7670764160e+02    2.7287017822e+01
    2.7680764771e+02    2.7222991943e+01
    2.7690765381e+02    2.7160003662e+01
    2.7700765991e+02    2.7095977783e+01
    2.7710766602e+02    2.7032012939e+01
    2.7720767212e+02    2.6968017578e+01
    2.7730767822e+02    2.6902984619e+01
    2.7740768433e+02    2.6838989258e+01
    2.7750769043e+02    2.6773986816e+01
    2.7760769653e+02    2.6708007812e+01
    2.7770770264e+02    2.6643005371e+01
    2.7780770874e+02    2.6578002930e+01
    2.7790771484e+02    2.6512023926e+01
    2.7800772095e+02    2.6447021484e+01
    2.7810772705e+02    2.6381011963e+01
    2.7820773315e+02    2.6315002441e+01
    2.7830770874e+02    2.6248992920e+01
    2.7840774536e+02    2.6183013916e+01
    2.7850775146e+02    2.6117004395e+01
    2.7860775757e+02    2.6049987793e+01
    2.7870776367e+02    2.5983001709e+01
    2.7880776978e+02    2.5915008545e+01
    2.7890774536e+02    2.5847991943e+01
    2.7900778198e+02    2.5781005859e+01
    2.7910775757e+02    2.5713989258e+01
    2.7920779419e+02    2.5645996094e+01
    2.7930780029e+02    2.5578002930e+01
    2.7940780640e+02    2.5510009766e+01
    2.7950781250e+02    2.5441986084e+01
    2.7960781860e+02    2.5373992920e+01
    2.7970782471e+02    2.5305023193e+01
    2.7980783081e+02    2.5236999512e+01
    2.7990783691e+02    2.5167999268e+01
    2.8000784302e+02    2.5097991943e+01
    2.8010784912e+02    2.5026000977e+01
    2.8020785522e+02    2.4951995850e+01
    2.8030786133e+02    2.4879028320e+01
    2.8040786743e+02    2.4805023193e+01
    2.8050787354e+02    2.4732025146e+01
    2.8060787964e+02    2.4658020020e+01
    2.8070788574e+02    2.4584014893e+01
    2.8080789185e+02    2.4511016846e+01
    2.8090789795e+02    2.4436004639e+01
    2.8100790405e+02    2.4360992432e+01
    2.8110791016e+02    2.4286987305e+01
    2.8120791626e+02    2.4212005615e+01
    2.8130792236e+02    2.4136993408e+01
    2.8140792847e+02    2.4061981201e+01
    2.8150793457e+02    2.3985992432e+01
    2.8160794067e+02    2.3909973145e+01
    2.8170794678e+02    2.3834991455e+01
    2.8180795288e+02    2.3758972168e+01
    2.8190795898e+02    2.3683013916e+01
    2.8200796509e+02    2.3606994629e+01
    2.8210797119e+02    2.3529998779e+01
    2.8220794678e+02    2.3453002930e+01
    2.8230798340e+02    2.3377014160e+01
    2.8240798950e+02    2.3299011230e+01
    2.8250799561e+02    2.3222015381e+01
    2.8260800171e+02    2.3144012451e+01
    2.8270800781e+02    2.3066986084e+01
    2.8280801392e+02    2.2988983154e+01
    2.8290802002e+02    2.2910003662e+01
    2.8300802612e+02    2.2833007812e+01
    2.8310803223e+02    2.2753997803e+01
    2.8320803833e+02    2.2674987793e+01
    2.8330804443e+02    2.2596984863e+01
    2.8340805054e+02    2.2517974854e+01
    2.8350805664e+02    2.2438018799e+01
    2.8360806274e+02    2.2359985352e+01
    2.8370806885e+02    2.2279998779e+01
    2.8380807495e+02    2.2200012207e+01
    2.8390808105e+02    2.2119995117e+01
    2.8400808716e+02    2.2040008545e+01
    2.8410809326e+02    2.1959014893e+01
    2.8420809937e+02    2.1880004883e+01
    2.8430810547e+02    2.1798004150e+01
    2.8440811157e+02    2.1717010498e+01
    2.8450811768e+02    2.1636993408e+01
    2.8460812378e+02    2.1554992676e+01
    2.8470812988e+02    2.1472991943e+01
    2.8480813599e+02    2.1390991211e+01
    2.8490814209e+02    2.1309997559e+01
    2.8500814819e+02    2.1227996826e+01
    2.8510815430e+02    2.1145019531e+01
    2.8520816040e+02    2.1063018799e+01
    2.8530816650e+02    2.0981018066e+01
    2.8540817261e+02    2.0897003174e+01
    2.8550817871e+02    2.0815002441e+01
    2.8560818481e+02    2.0731018066e+01
    2.8570819092e+02    2.0648010254e+01
    2.8580819702e+02    2.0565002441e+01
    2.8590820312e+02    2.0480987549e+01
    2.8600820923e+02    2.0395996094e+01
    2.8610821533e+02    2.0312988281e+01
    2.8620822144e+02    2.0227996826e+01
    2.8630822754e+02    2.0143005371e+01
    2.8640823364e+02    2.0058990479e+01
    2.8650823975e+02    1.9973999023e+01
    2.8660824585e+02    1.9888000488e+01
    2.8670825195e+02    1.9803009033e+01
    2.8680825806e+02    1.9718017578e+01
    2.8690826416e+02    1.9632019043e+01
    2.8700827026e+02    1.9545013428e+01
    2.8710827637e+02    1.9460021973e+01
    2.8720828247e+02    1.9372985840e+01
    2.8730828857e+02    1.9286010742e+01
    2.8740829468e+02    1.9200012207e+01
    2.8750830078e+02    1.9113037109e+01
    2.8760830688e+02    1.9026000977e+01
    2.8770831299e+02    1.8938995361e+01
    2.8780831909e+02    1.8851013184e+01
    2.8790832520e+02    1.8763000488e+01
    2.8800833130e+02    1.8675994873e+01
    2.8810833740e+02    1.8588012695e+01
    2.8820834351e+02    1.8498992920e+01
    2.8830834961e+02    1.8410980225e+01
    2.8840835571e+02    1.8322021484e+01
    2.8850836182e+02    1.8232971191e+01
    2.8860836792e+02    1.8144989014e+01
    2.8870837402e+02    1.8055023193e+01
    2.8880838013e+02    1.7964965820e+01
    2.8890838623e+02    1.7875000000e+01
    2.8900839233e+02    1.7786010742e+01
    2.8910839844e+02    1.7696044922e+01
    2.8920840454e+02    1.7604980469e+01
    2.8930841064e+02    1.7515991211e+01
    2.8940841675e+02    1.7425018311e+01
    2.8950842285e+02    1.7333984375e+01
    2.8960839844e+02    1.7242980957e+01
    2.8970843506e+02    1.7152008057e+01
    2.8980844116e+02    1.7059997559e+01
    2.8990844727e+02    1.6968994141e+01
    2.9000845337e+02    1.6877014160e+01
    2.9010845947e+02    1.6779968262e+01
    2.9020843506e+02    1.6682006836e+01
    2.9030847168e+02    1.6585998535e+01
    2.9040847778e+02    1.6488006592e+01
    2.9050848389e+02    1.6389984131e+01
    2.9060848999e+02    1.6292968750e+01
    2.9070849609e+02    1.6194000244e+01
    2.9080850220e+02    1.6096008301e+01
    2.9090850830e+02    1.5998016357e+01
    2.9100851440e+02    1.5898986816e+01
    2.9110852051e+02    1.5799987793e+01
    2.9120852661e+02    1.5700988770e+01
    2.9130853271e+02    1.5602020264e+01
    2.9140853882e+02    1.5501983643e+01
    2.9150854492e+02    1.5402984619e+01
    2.9160855103e+02    1.5303009033e+01
    2.9170855713e+02    1.5203002930e+01
    2.9180856323e+02    1.5103027344e+01
    2.9190856934e+02    1.5001953125e+01
    2.9200857544e+02    1.4901000977e+01
    2.9210858154e+02    1.4801025391e+01
    2.9220858765e+02    1.4700012207e+01
    2.9230859375e+02    1.4600036621e+01
    2.9240859985e+02    1.4497985840e+01
    2.9250860596e+02    1.4395996094e+01
    2.9260861206e+02    1.4294982910e+01
    2.9270861816e+02    1.4192993164e+01
    2.9280862427e+02    1.4089965820e+01
    2.9290863037e+02    1.3988952637e+01
    2.9300863647e+02    1.3885986328e+01
    2.9310864258e+02    1.3783020020e+01
    2.9320864868e+02    1.3681030273e+01
    2.9330865479e+02    1.3578002930e+01
    2.9340866089e+02    1.3474975586e+01
    2.9350866699e+02    1.3372009277e+01
    2.9360867310e+02    1.3269042969e+01
    2.9370867920e+02    1.3164978027e+01
    2.9380868530e+02    1.3061950684e+01
    2.9390869141e+02    1.2958007812e+01
    2.9400869751e+02    1.2854003906e+01
    2.9410870361e+02    1.2750000000e+01
    2.9420870972e+02    1.2645996094e+01
    2.9430871582e+02    1.2541015625e+01
    2.9440872192e+02    1.2437988281e+01
    2.9450872803e+02    1.2333007812e+01
    2.9460873413e+02    1.2229003906e+01
    2.9470874023e+02    1.2125000000e+01
    2.9480874634e+02    1.2020019531e+01
    2.9490875244e+02    1.1916992188e+01
    2.9500875854e+02    1.1812011719e+01
    2.9510876465e+02    1.1706970215e+01
    2.9520877075e+02    1.1602966309e+01
    2.9530877686e+02    1.1497985840e+01
    2.9540878296e+02    1.1394042969e+01
    2.9550878906e+02    1.1290039062e+01
    2.9560879517e+02    1.1184997559e+01
    2.9570880127e+02    1.1080017090e+01
    2.9580880737e+02    1.0976989746e+01
    2.9590881348e+02    1.0872009277e+01
    2.9600881958e+02    1.0766967773e+01
    2.9610882568e+02    1.0662963867e+01
    2.9620883179e+02    1.0557983398e+01
    2.9630883789e+02    1.0454040527e+01
    2.9640884399e+02    1.0350036621e+01
    2.9650885010e+02    1.0244995117e+01
    2.9660885620e+02    1.0140014648e+01
    2.9670886230e+02    1.0036010742e+01
    2.9680886841e+02    9.9320068359e+00
    2.9690887451e+02    9.8269653320e+00
    2.9700888062e+02    9.7229614258e+00
    2.9710888672e+02    9.6179809570e+00
    2.9720889282e+02    9.5130004883e+00
    2.9730889893e+02    9.4100341797e+00
    2.9740890503e+02    9.3049926758e+00
    2.9750891113e+02    9.2000122070e+00
    2.9760888672e+02    9.0960083008e+00
    2.9770892334e+02    8.9910278320e+00
    2.9780892944e+02    8.8880004883e+00
    2.9790890503e+02    8.7829589844e+00
    2.9800894165e+02    8.6779785156e+00
    2.9810894775e+02    8.5739746094e+00
    2.9820895386e+02    8.4689941406e+00
    2.9830895996e+02    8.3649902344e+00
    2.9840893555e+02    8.2609863281e+00
    2.9850897217e+02    8.1560058594e+00
    2.9860897827e+02    8.0510253906e+00
    2.9870898438e+02    7.9470214844e+00
    2.9880899048e+02    7.8429565430e+00
    2.9890899658e+02    7.7379760742e+00
    2.9900900269e+02    7.6339721680e+00
    2.9910900879e+02    7.5289916992e+00
    2.9920901489e+02    7.4240112305e+00
    2.9930902100e+02    7.3209838867e+00
    2.9940902710e+02    7.2160034180e+00
    2.9950903320e+02    7.1110229492e+00
    2.9960903931e+02    7.0070190430e+00
    2.9970904541e+02    6.9019775391e+00
    2.9980905151e+02    6.7979736328e+00
    2.9990905762e+02    6.6940307617e+00
endcurve
