Curveplot
LS-DYNA keyword deck by LS-PrePost
Z-displ
Z-force
Mat/Node Ids
1 #pts=1000
* Minval=    -2.7736416016e+03 at time=       -19.9710197449
* Maxval=     5.3559207916e+01 at time=        -0.0313796587
    3.9887523599e-05    5.2739419043e-02
    5.0262657169e-05    3.1086012721e-02
    6.1135717260e-05    1.2479005381e-03
    7.2087816079e-05   -3.7778165191e-02
    8.2566846686e-05   -8.6931489408e-02
    9.1873567726e-05   -1.4705504477e-01
    9.9147364381e-05   -2.1883575618e-01
    1.0336026025e-04   -3.0286145210e-01
    1.0329695215e-04   -3.9951026440e-01
    9.7556148830e-05   -5.0902986526e-01
    8.4537445218e-05   -6.3158839941e-01
    6.2437859015e-05   -7.6719492674e-01
    2.9261034797e-05   -9.1571968794e-01
   -1.7199356080e-05   -1.0769681931e+00
   -7.9383549746e-05   -1.2507796288e+00
   -1.5987973893e-04   -1.4368135929e+00
   -2.6153519866e-04   -1.6349375248e+00
   -3.8735859562e-04   -1.8449054956e+00
   -5.4055452347e-04   -2.0665955544e+00
   -7.2461186210e-04   -2.3001480103e+00
   -9.4313762384e-04   -2.5457882881e+00
   -1.1998892296e-03   -2.8039338589e+00
   -1.4989058254e-03   -3.0753495693e+00
   -1.8442745786e-03   -3.3609616756e+00
   -2.2404461633e-03   -3.6621899605e+00
   -2.6918172371e-03   -3.9806730747e+00
   -3.2033200841e-03   -4.3185615540e+00
   -3.7796180695e-03   -4.6781849861e+00
   -4.4256146066e-03   -5.0621404648e+00
   -5.1467898302e-03   -5.4735922813e+00
   -5.9485379606e-03   -5.9157056808e+00
   -6.8359081633e-03   -6.3914446831e+00
   -7.8148618340e-03   -6.9040145874e+00
   -8.8909212500e-03   -7.4559860229e+00
   -1.0070435703e-02   -8.0495281219e+00
   -1.1359269731e-02   -8.6857948303e+00
   -1.2763515115e-02   -9.3646020889e+00
   -1.4289550483e-02   -1.0084089279e+01
   -1.5943471342e-02   -1.0840340614e+01
   -1.7732713372e-02   -1.1627451897e+01
   -1.9663127139e-02   -1.2435718536e+01
   -2.1741697565e-02   -1.3252636909e+01
   -2.3975420743e-02   -1.4062188148e+01
   -2.6371492073e-02   -1.4846908569e+01
   -2.8936771676e-02   -1.5594027519e+01
   -3.1678523868e-02   -1.6302061081e+01
   -3.4604061395e-02   -1.6978218079e+01
   -3.7721421570e-02   -1.7633653641e+01
   -4.1036162525e-02   -1.8279933929e+01
   -4.4558197260e-02   -1.8929027557e+01
   -4.8293668777e-02   -1.9591606140e+01
   -5.2250146866e-02   -2.0279594421e+01
   -5.6435685605e-02   -2.1006475449e+01
   -6.0859199613e-02   -2.1786048889e+01
   -6.5526358783e-02   -2.2628866196e+01
   -7.0446573198e-02   -2.3542098999e+01
   -7.5627930462e-02   -2.4527709961e+01
   -8.1078208983e-02   -2.5583290100e+01
   -8.6804434657e-02   -2.6701391220e+01
   -9.2815957963e-02   -2.7872097015e+01
   -9.9119707942e-02   -2.9084007263e+01
   -1.0572453588e-01   -3.0327819824e+01
   -1.1263985932e-01   -3.1596300125e+01
   -1.1987078935e-01   -3.2884586334e+01
   -1.2742625177e-01   -3.4191173553e+01
   -1.3531552255e-01   -3.5515895844e+01
   -1.4354597032e-01   -3.6858631134e+01
   -1.5212683380e-01   -3.8220699310e+01
   -1.6106365621e-01   -3.9605800629e+01
   -1.7036645114e-01   -4.1022125244e+01
   -1.8004421890e-01   -4.2480129242e+01
   -1.9010221958e-01   -4.3988189697e+01
   -2.0055170357e-01   -4.5551498413e+01
   -2.1139578521e-01   -4.7168479919e+01
   -2.2264795005e-01   -4.8835575104e+01
   -2.3431223631e-01   -5.0548385620e+01
   -2.4639667571e-01   -5.2306083679e+01
   -2.5890716910e-01   -5.4109920502e+01
   -2.7185806632e-01   -5.5963428497e+01
   -2.8524890542e-01   -5.7869525909e+01
   -2.9909288883e-01   -5.9835861206e+01
   -3.1339576840e-01   -6.1868770599e+01
   -3.2816442847e-01   -6.3969985962e+01
   -3.4340599179e-01   -6.6135200500e+01
   -3.5912427306e-01   -6.8357467651e+01
   -3.7533101439e-01   -7.0631118774e+01
   -3.9203462005e-01   -7.2951576233e+01
   -4.0923485160e-01   -7.5313407898e+01
   -4.2694294453e-01   -7.7710594177e+01
   -4.4516721368e-01   -8.0136184692e+01
   -4.6391126513e-01   -8.2582855225e+01
   -4.8318186402e-01   -8.5046478271e+01
   -5.0298297405e-01   -8.7525939941e+01
   -5.2332210541e-01   -9.0026206970e+01
   -5.4420638084e-01   -9.2555976868e+01
   -5.6564259529e-01   -9.5123855591e+01
   -5.8763891459e-01   -9.7736206055e+01
   -6.1019289494e-01   -1.0039511871e+02
   -6.3331073523e-01   -1.0310269928e+02
   -6.5700286627e-01   -1.0586317444e+02
   -6.8127512932e-01   -1.0868146515e+02
   -7.0612269640e-01   -1.1156157684e+02
   -7.3156344891e-01   -1.1450549316e+02
   -7.5759166479e-01   -1.1751000977e+02
   -7.8422206640e-01   -1.2057009888e+02
   -8.1144541502e-01   -1.2368128967e+02
   -8.3927756548e-01   -1.2683946228e+02
   -8.6771476269e-01   -1.3004045105e+02
   -8.9676040411e-01   -1.3328170776e+02
   -9.2642092705e-01   -1.3656390381e+02
   -9.5670211315e-01   -1.3989079285e+02
   -9.8760658503e-01   -1.4326803589e+02
   -1.0191311836e+00   -1.4670030212e+02
   -1.0512796640e+00   -1.5018771362e+02
   -1.0840611458e+00   -1.5372430420e+02
   -1.1174676418e+00   -1.5729969788e+02
   -1.1515111923e+00   -1.6090330505e+02
   -1.1861828566e+00   -1.6452793884e+02
   -1.2214921713e+00   -1.6817169189e+02
   -1.2574355602e+00   -1.7183799744e+02
   -1.2940206528e+00   -1.7553451538e+02
   -1.3312495947e+00   -1.7927246094e+02
   -1.3691080809e+00   -1.8306445312e+02
   -1.4076081514e+00   -1.8692196655e+02
   -1.4467571974e+00   -1.9085478210e+02
   -1.4865355492e+00   -1.9487219238e+02
   -1.5269677639e+00   -1.9898350525e+02
   -1.5680315495e+00   -2.0319660950e+02
   -1.6097410917e+00   -2.0751696777e+02
   -1.6520949602e+00   -2.1194677734e+02
   -1.6950827837e+00   -2.1648405457e+02
   -1.7387123108e+00   -2.2112387085e+02
   -1.7829893827e+00   -2.2585975647e+02
   -1.8279035091e+00   -2.3068383789e+02
   -1.8734446764e+00   -2.3558670044e+02
   -1.9196323156e+00   -2.4055667114e+02
   -1.9664458036e+00   -2.4558015442e+02
   -2.0138950348e+00   -2.5064289856e+02
   -2.0619757175e+00   -2.5573312378e+02
   -2.1106755733e+00   -2.6084442139e+02
   -2.1600089073e+00   -2.6597497559e+02
   -2.2099494934e+00   -2.7112551880e+02
   -2.2605094910e+00   -2.7629760742e+02
   -2.3116750717e+00   -2.8149438477e+02
   -2.3634624481e+00   -2.8672155762e+02
   -2.4158506393e+00   -2.9198599243e+02
   -2.4688408375e+00   -2.9729504395e+02
   -2.5224320889e+00   -3.0265701294e+02
   -2.5766077042e+00   -3.0808230591e+02
   -2.6313779354e+00   -3.1358203125e+02
   -2.6867365837e+00   -3.1916372681e+02
   -2.7426698208e+00   -3.2483007812e+02
   -2.7991752625e+00   -3.3058050537e+02
   -2.8562593460e+00   -3.3641329956e+02
   -2.9138987064e+00   -3.4232574463e+02
   -2.9720983505e+00   -3.4831207275e+02
   -3.0308575630e+00   -3.5436328125e+02
   -3.0901684761e+00   -3.6046960449e+02
   -3.1500120163e+00   -3.6662289429e+02
   -3.2103977203e+00   -3.7281735229e+02
   -3.2713148594e+00   -3.7904916382e+02
   -3.3327469826e+00   -3.8531774902e+02
   -3.3947036266e+00   -3.9162438965e+02
   -3.4571619034e+00   -3.9797039795e+02
   -3.5201323032e+00   -4.0435488892e+02
   -3.5835886002e+00   -4.1077664185e+02
   -3.6475417614e+00   -4.1723767090e+02
   -3.7119846344e+00   -4.2374670410e+02
   -3.7768893242e+00   -4.3031756592e+02
   -3.8422679901e+00   -4.3696395874e+02
   -3.9081056118e+00   -4.4369717407e+02
   -3.9744114876e+00   -4.5052517700e+02
   -4.0411500931e+00   -4.5745254517e+02
   -4.1083331108e+00   -4.6448086548e+02
   -4.1759595871e+00   -4.7160766602e+02
   -4.2439985275e+00   -4.7882580566e+02
   -4.3124713898e+00   -4.8613977051e+02
   -4.3813643456e+00   -4.9353570557e+02
   -4.4506592751e+00   -5.0098849487e+02
   -4.5203409195e+00   -5.0848779297e+02
   -4.5904130936e+00   -5.1601751709e+02
   -4.6608738899e+00   -5.2358251953e+02
   -4.7317109108e+00   -5.3117816162e+02
   -4.8029031754e+00   -5.3879705811e+02
   -4.8744626045e+00   -5.4647058105e+02
   -4.9463663101e+00   -5.5419506836e+02
   -5.0186128616e+00   -5.6199090576e+02
   -5.0911846161e+00   -5.6986810303e+02
   -5.1640744209e+00   -5.7783203125e+02
   -5.2372865677e+00   -5.8590026855e+02
   -5.3108115196e+00   -5.9405047607e+02
   -5.3846259117e+00   -6.0227697754e+02
   -5.4587244987e+00   -6.1056243896e+02
   -5.5331249237e+00   -6.1890704346e+02
   -5.6077833176e+00   -6.2728051758e+02
   -5.6827154160e+00   -6.3568188477e+02
   -5.7579035759e+00   -6.4410614014e+02
   -5.8333387375e+00   -6.5255017090e+02
   -5.9090237617e+00   -6.6102752686e+02
   -5.9849462509e+00   -6.6953350830e+02
   -6.0611019135e+00   -6.7807031250e+02
   -6.1374702454e+00   -6.8662438965e+02
   -6.2140483856e+00   -6.9520251465e+02
   -6.2908225060e+00   -7.0380786133e+02
   -6.3678088188e+00   -7.1246502686e+02
   -6.4449925423e+00   -7.2118237305e+02
   -6.5223431587e+00   -7.2995941162e+02
   -6.5998811722e+00   -7.3883111572e+02
   -6.6775798798e+00   -7.4778930664e+02
   -6.7554359436e+00   -7.5684729004e+02
   -6.8334379196e+00   -7.6600555420e+02
   -6.9116005898e+00   -7.7527374268e+02
   -6.9898958206e+00   -7.8463513184e+02
   -7.0683217049e+00   -7.9407830811e+02
   -7.1468739510e+00   -8.0359185791e+02
   -7.2255315781e+00   -8.1315014648e+02
   -7.3043060303e+00   -8.2276922607e+02
   -7.3831858635e+00   -8.3243841553e+02
   -7.4621510506e+00   -8.4215289307e+02
   -7.5412158966e+00   -8.5190618896e+02
   -7.6203722954e+00   -8.6169177246e+02
   -7.6996045113e+00   -8.7150634766e+02
   -7.7789316177e+00   -8.8134851074e+02
   -7.8583302498e+00   -8.9120159912e+02
   -7.9378151894e+00   -9.0109112549e+02
   -8.0173921585e+00   -9.1101452637e+02
   -8.0970220566e+00   -9.2095819092e+02
   -8.1767234802e+00   -9.3094525146e+02
   -8.2564907074e+00   -9.4097167969e+02
   -8.3362951279e+00   -9.5104443359e+02
   -8.4161567688e+00   -9.6117108154e+02
   -8.4960470200e+00   -9.7135601807e+02
   -8.5759611130e+00   -9.8159985352e+02
   -8.6558904648e+00   -9.9190008545e+02
   -8.7358427048e+00   -1.0022523804e+03
   -8.8158092499e+00   -1.0126513062e+03
   -8.8957691193e+00   -1.0230921631e+03
   -8.9757299423e+00   -1.0335732422e+03
   -9.0556869507e+00   -1.0440955811e+03
   -9.1356382370e+00   -1.0546627197e+03
   -9.2155828476e+00   -1.0652790527e+03
   -9.2955141068e+00   -1.0759461670e+03
   -9.3754415512e+00   -1.0866618652e+03
   -9.4553709030e+00   -1.0974228516e+03
   -9.5352821350e+00   -1.1082285156e+03
   -9.6151943207e+00   -1.1190809326e+03
   -9.6950902939e+00   -1.1299818115e+03
   -9.7749862671e+00   -1.1409310303e+03
   -9.8548679352e+00   -1.1519260254e+03
   -9.9347543716e+00   -1.1629645996e+03
   -1.0014628410e+01   -1.1740450439e+03
   -1.0094493866e+01   -1.1851662598e+03
   -1.0174352646e+01   -1.1963282471e+03
   -1.0254216194e+01   -1.2075312500e+03
   -1.0334079742e+01   -1.2187749023e+03
   -1.0413931847e+01   -1.2300562744e+03
   -1.0493790627e+01   -1.2413690186e+03
   -1.0573651314e+01   -1.2527039795e+03
   -1.0653506279e+01   -1.2640498047e+03
   -1.0733369827e+01   -1.2753969727e+03
   -1.0813240051e+01   -1.2867402344e+03
   -1.0893116951e+01   -1.2980778809e+03
   -1.0972994804e+01   -1.3094099121e+03
   -1.1052900314e+01   -1.3207348633e+03
   -1.1132802010e+01   -1.3320531006e+03
   -1.1212721825e+01   -1.3433668213e+03
   -1.1292665482e+01   -1.3546791992e+03
   -1.1372627258e+01   -1.3659951172e+03
   -1.1452610970e+01   -1.3773214111e+03
   -1.1532616615e+01   -1.3886666260e+03
   -1.1612647057e+01   -1.4000386963e+03
   -1.1692701340e+01   -1.4114454346e+03
   -1.1772757530e+01   -1.4228937988e+03
   -1.1852833748e+01   -1.4343868408e+03
   -1.1932917595e+01   -1.4459222412e+03
   -1.2012999535e+01   -1.4574929199e+03
   -1.2093070030e+01   -1.4690893555e+03
   -1.2173127174e+01   -1.4807023926e+03
   -1.2253155708e+01   -1.4923247070e+03
   -1.2333129883e+01   -1.5039506836e+03
   -1.2413022995e+01   -1.5155777588e+03
   -1.2492825508e+01   -1.5272049561e+03
   -1.2572507858e+01   -1.5388331299e+03
   -1.2652062416e+01   -1.5504638672e+03
   -1.2731445312e+01   -1.5621007080e+03
   -1.2810651779e+01   -1.5737481689e+03
   -1.2889660835e+01   -1.5854100342e+03
   -1.2968443871e+01   -1.5970877686e+03
   -1.3046986580e+01   -1.6087796631e+03
   -1.3125311852e+01   -1.6204820557e+03
   -1.3203394890e+01   -1.6321909180e+03
   -1.3281234741e+01   -1.6439027100e+03
   -1.3358849525e+01   -1.6556148682e+03
   -1.3436233521e+01   -1.6673228760e+03
   -1.3513409615e+01   -1.6790205078e+03
   -1.3590386391e+01   -1.6906999512e+03
   -1.3667176247e+01   -1.7023531494e+03
   -1.3743799210e+01   -1.7139743652e+03
   -1.3820237160e+01   -1.7255609131e+03
   -1.3896521568e+01   -1.7371156006e+03
   -1.3972631454e+01   -1.7486491699e+03
   -1.4048557281e+01   -1.7601778564e+03
   -1.4124288559e+01   -1.7717196045e+03
   -1.4199828148e+01   -1.7832880859e+03
   -1.4275142670e+01   -1.7948905029e+03
   -1.4350220680e+01   -1.8065284424e+03
   -1.4425042152e+01   -1.8182004395e+03
   -1.4499571800e+01   -1.8299042969e+03
   -1.4573814392e+01   -1.8416379395e+03
   -1.4647760391e+01   -1.8533980713e+03
   -1.4721411705e+01   -1.8651800537e+03
   -1.4794756889e+01   -1.8769759521e+03
   -1.4867798805e+01   -1.8887745361e+03
   -1.4940523148e+01   -1.9005618896e+03
   -1.5012942314e+01   -1.9123232422e+03
   -1.5085048676e+01   -1.9240434570e+03
   -1.5156808853e+01   -1.9357072754e+03
   -1.5228239059e+01   -1.9473018799e+03
   -1.5299319267e+01   -1.9588188477e+03
   -1.5370042801e+01   -1.9702536621e+03
   -1.5440405846e+01   -1.9816055908e+03
   -1.5510386467e+01   -1.9928760986e+03
   -1.5579992294e+01   -2.0040688477e+03
   -1.5649227142e+01   -2.0151835938e+03
   -1.5718081474e+01   -2.0262153320e+03
   -1.5786544800e+01   -2.0371564941e+03
   -1.5854604721e+01   -2.0480004883e+03
   -1.5922236443e+01   -2.0587441406e+03
   -1.5989421844e+01   -2.0693864746e+03
   -1.6056152344e+01   -2.0799301758e+03
   -1.6122398376e+01   -2.0903811035e+03
   -1.6188159943e+01   -2.1007468262e+03
   -1.6253419876e+01   -2.1110356445e+03
   -1.6318164825e+01   -2.1212539062e+03
   -1.6382396698e+01   -2.1314089355e+03
   -1.6446125031e+01   -2.1415083008e+03
   -1.6509336472e+01   -2.1515595703e+03
   -1.6572025299e+01   -2.1615681152e+03
   -1.6634202957e+01   -2.1715358887e+03
   -1.6695861816e+01   -2.1814631348e+03
   -1.6756998062e+01   -2.1913483887e+03
   -1.6817594528e+01   -2.2011845703e+03
   -1.6877672195e+01   -2.2109589844e+03
   -1.6937211990e+01   -2.2206569824e+03
   -1.6996215820e+01   -2.2302575684e+03
   -1.7054664612e+01   -2.2397370605e+03
   -1.7112562180e+01   -2.2491005859e+03
   -1.7169897079e+01   -2.2583249512e+03
   -1.7226657867e+01   -2.2673786621e+03
   -1.7282838821e+01   -2.2762355957e+03
   -1.7338441849e+01   -2.2848652344e+03
   -1.7393468857e+01   -2.2932485352e+03
   -1.7447908401e+01   -2.3013540039e+03
   -1.7501756668e+01   -2.3091640625e+03
   -1.7555017471e+01   -2.3166879883e+03
   -1.7607683182e+01   -2.3239182129e+03
   -1.7659753799e+01   -2.3308671875e+03
   -1.7711219788e+01   -2.3375524902e+03
   -1.7762081146e+01   -2.3440004883e+03
   -1.7812318802e+01   -2.3502304688e+03
   -1.7861938477e+01   -2.3562854004e+03
   -1.7910919189e+01   -2.3622128906e+03
   -1.7959270477e+01   -2.3680627441e+03
   -1.8006986618e+01   -2.3738828125e+03
   -1.8054073334e+01   -2.3797131348e+03
   -1.8100528717e+01   -2.3855849609e+03
   -1.8146358490e+01   -2.3915202637e+03
   -1.8191560745e+01   -2.3975310059e+03
   -1.8236139297e+01   -2.4036184082e+03
   -1.8280103683e+01   -2.4097758789e+03
   -1.8323425293e+01   -2.4159936523e+03
   -1.8366104126e+01   -2.4222648926e+03
   -1.8408138275e+01   -2.4285878906e+03
   -1.8449512482e+01   -2.4349663086e+03
   -1.8490232468e+01   -2.4414040527e+03
   -1.8530296326e+01   -2.4479038086e+03
   -1.8569709778e+01   -2.4544650879e+03
   -1.8608486176e+01   -2.4610856934e+03
   -1.8646631241e+01   -2.4677617188e+03
   -1.8684154510e+01   -2.4744904785e+03
   -1.8721054077e+01   -2.4812680664e+03
   -1.8757328033e+01   -2.4880903320e+03
   -1.8792978287e+01   -2.4949541016e+03
   -1.8827993393e+01   -2.5018574219e+03
   -1.8862367630e+01   -2.5088012695e+03
   -1.8896100998e+01   -2.5157866211e+03
   -1.8929187775e+01   -2.5228144531e+03
   -1.8961643219e+01   -2.5298813477e+03
   -1.8993484497e+01   -2.5369777832e+03
   -1.9024711609e+01   -2.5440854492e+03
   -1.9055351257e+01   -2.5511794434e+03
   -1.9085409164e+01   -2.5582287598e+03
   -1.9114885330e+01   -2.5651962891e+03
   -1.9143779755e+01   -2.5720395508e+03
   -1.9172086716e+01   -2.5787160645e+03
   -1.9199796677e+01   -2.5851862793e+03
   -1.9226892471e+01   -2.5914140625e+03
   -1.9253358841e+01   -2.5973710938e+03
   -1.9279190063e+01   -2.6030339355e+03
   -1.9304386139e+01   -2.6083864746e+03
   -1.9328958511e+01   -2.6134213867e+03
   -1.9352922440e+01   -2.6181406250e+03
   -1.9376296997e+01   -2.6225566406e+03
   -1.9399105072e+01   -2.6266909180e+03
   -1.9421363831e+01   -2.6305727539e+03
   -1.9443078995e+01   -2.6342399902e+03
   -1.9464262009e+01   -2.6377336426e+03
   -1.9484910965e+01   -2.6410964355e+03
   -1.9505012512e+01   -2.6443696289e+03
   -1.9524562836e+01   -2.6475908203e+03
   -1.9543554306e+01   -2.6507941895e+03
   -1.9561977386e+01   -2.6540036621e+03
   -1.9579841614e+01   -2.6572370605e+03
   -1.9597164154e+01   -2.6605085449e+03
   -1.9613965988e+01   -2.6638159180e+03
   -1.9630271912e+01   -2.6671591797e+03
   -1.9646118164e+01   -2.6705314941e+03
   -1.9661531448e+01   -2.6739147949e+03
   -1.9676525116e+01   -2.6772893066e+03
   -1.9691118240e+01   -2.6806408691e+03
   -1.9705307007e+01   -2.6839619141e+03
   -1.9719085693e+01   -2.6872480469e+03
   -1.9732433319e+01   -2.6904987793e+03
   -1.9745326996e+01   -2.6937229004e+03
   -1.9757743835e+01   -2.6969213867e+03
   -1.9769651413e+01   -2.7000961914e+03
   -1.9781028748e+01   -2.7032434082e+03
   -1.9791864395e+01   -2.7063542480e+03
   -1.9802164078e+01   -2.7094179688e+03
   -1.9811950684e+01   -2.7124243164e+03
   -1.9821260452e+01   -2.7153681641e+03
   -1.9830142975e+01   -2.7182470703e+03
   -1.9838659286e+01   -2.7210620117e+03
   -1.9846866608e+01   -2.7238156738e+03
   -1.9854822159e+01   -2.7265117188e+03
   -1.9862579346e+01   -2.7291513672e+03
   -1.9870185852e+01   -2.7317326660e+03
   -1.9877677917e+01   -2.7342548828e+03
   -1.9885080338e+01   -2.7367182617e+03
   -1.9892404556e+01   -2.7391201172e+03
   -1.9899654388e+01   -2.7414533691e+03
   -1.9906816483e+01   -2.7437038574e+03
   -1.9913867950e+01   -2.7458471680e+03
   -1.9920772552e+01   -2.7478508301e+03
   -1.9927486420e+01   -2.7496796875e+03
   -1.9933952332e+01   -2.7513029785e+03
   -1.9940107346e+01   -2.7526987305e+03
   -1.9945890427e+01   -2.7538608398e+03
   -1.9951238632e+01   -2.7547980957e+03
   -1.9956087112e+01   -2.7555319824e+03
   -1.9960391998e+01   -2.7560844727e+03
   -1.9964120865e+01   -2.7564772949e+03
   -1.9967260361e+01   -2.7567326660e+03
   -1.9969821930e+01   -2.7568752441e+03
   -1.9971839905e+01   -2.7569262695e+03
   -1.9973358154e+01   -2.7569040527e+03
   -1.9974428177e+01   -2.7568291016e+03
   -1.9975114822e+01   -2.7567260742e+03
   -1.9975479126e+01   -2.7566196289e+03
   -1.9975578308e+01   -2.7565329590e+03
   -1.9975469589e+01   -2.7564870605e+03
   -1.9975206375e+01   -2.7565019531e+03
   -1.9974836349e+01   -2.7565966797e+03
   -1.9974397659e+01   -2.7567854004e+03
   -1.9973926544e+01   -2.7570722656e+03
   -1.9973443985e+01   -2.7574533691e+03
   -1.9972974777e+01   -2.7579213867e+03
   -1.9972536087e+01   -2.7584677734e+03
   -1.9972137451e+01   -2.7590864258e+03
   -1.9971782684e+01   -2.7597724609e+03
   -1.9971481323e+01   -2.7605219727e+03
   -1.9971229553e+01   -2.7613288574e+03
   -1.9971025467e+01   -2.7621828613e+03
   -1.9970869064e+01   -2.7630703125e+03
   -1.9970752716e+01   -2.7639760742e+03
   -1.9970674515e+01   -2.7648842773e+03
   -1.9970626831e+01   -2.7657785645e+03
   -1.9970605850e+01   -2.7666447754e+03
   -1.9970603943e+01   -2.7674736328e+03
   -1.9970621109e+01   -2.7682551270e+03
   -1.9970647812e+01   -2.7689797363e+03
   -1.9970684052e+01   -2.7696433105e+03
   -1.9970724106e+01   -2.7702482910e+03
   -1.9970766068e+01   -2.7708032227e+03
   -1.9970806122e+01   -2.7713178711e+03
   -1.9970846176e+01   -2.7717993164e+03
   -1.9970882416e+01   -2.7722485352e+03
   -1.9970914841e+01   -2.7726596680e+03
   -1.9970943451e+01   -2.7730200195e+03
   -1.9970968246e+01   -2.7733125000e+03
   -1.9970989227e+01   -2.7735209961e+03
   -1.9971006393e+01   -2.7736328125e+03
   -1.9971019745e+01   -2.7736416016e+03
   -1.9971033096e+01   -2.7735461426e+03
   -1.9971042633e+01   -2.7733488770e+03
   -1.9971052170e+01   -2.7730532227e+03
   -1.9971057892e+01   -2.7726618652e+03
   -1.9971063614e+01   -2.7721782227e+03
   -1.9971067429e+01   -2.7716076660e+03
   -1.9971069336e+01   -2.7709567871e+03
   -1.9971071243e+01   -2.7702358398e+03
   -1.9971073151e+01   -2.7694558105e+03
   -1.9971073151e+01   -2.7686281738e+03
   -1.9971069336e+01   -2.7677626953e+03
   -1.9971065521e+01   -2.7668703613e+03
   -1.9971057892e+01   -2.7659658203e+03
   -1.9971048355e+01   -2.7650676270e+03
   -1.9971035004e+01   -2.7641979980e+03
   -1.9971017838e+01   -2.7633784180e+03
   -1.9970996857e+01   -2.7626252441e+03
   -1.9970972061e+01   -2.7619492188e+03
   -1.9970943451e+01   -2.7613581543e+03
   -1.9970911026e+01   -2.7608588867e+03
   -1.9970874786e+01   -2.7604584961e+03
   -1.9970834732e+01   -2.7601616211e+03
   -1.9970790863e+01   -2.7599685059e+03
   -1.9970746994e+01   -2.7598725586e+03
   -1.9970705032e+01   -2.7598566895e+03
   -1.9970664978e+01   -2.7598928223e+03
   -1.9970630646e+01   -2.7599472656e+03
   -1.9970603943e+01   -2.7599875488e+03
   -1.9970590591e+01   -2.7599865723e+03
   -1.9970592499e+01   -2.7599250488e+03
   -1.9970617294e+01   -2.7597946777e+03
   -1.9970668793e+01   -2.7595949707e+03
   -1.9970754623e+01   -2.7593286133e+03
   -1.9970876694e+01   -2.7589968262e+03
   -1.9971040726e+01   -2.7586027832e+03
   -1.9971250534e+01   -2.7581516113e+03
   -1.9971509933e+01   -2.7576467285e+03
   -1.9971818924e+01   -2.7570861816e+03
   -1.9972175598e+01   -2.7564631348e+03
   -1.9972578049e+01   -2.7557670898e+03
   -1.9973016739e+01   -2.7549873047e+03
   -1.9973484039e+01   -2.7541181641e+03
   -1.9973962784e+01   -2.7531579590e+03
   -1.9974430084e+01   -2.7521093750e+03
   -1.9974857330e+01   -2.7509755859e+03
   -1.9975214005e+01   -2.7497619629e+03
   -1.9975454330e+01   -2.7484746094e+03
   -1.9975536346e+01   -2.7471186523e+03
   -1.9975404739e+01   -2.7456992188e+03
   -1.9975002289e+01   -2.7442224121e+03
   -1.9974267960e+01   -2.7426931152e+03
   -1.9973142624e+01   -2.7411125488e+03
   -1.9971565247e+01   -2.7394814453e+03
   -1.9969484329e+01   -2.7377983398e+03
   -1.9966854095e+01   -2.7360629883e+03
   -1.9963647842e+01   -2.7342788086e+03
   -1.9959857941e+01   -2.7324543457e+03
   -1.9955497742e+01   -2.7305976562e+03
   -1.9950601578e+01   -2.7287202148e+03
   -1.9945219040e+01   -2.7268364258e+03
   -1.9939411163e+01   -2.7249553223e+03
   -1.9933238983e+01   -2.7230805664e+03
   -1.9926765442e+01   -2.7212128906e+03
   -1.9920053482e+01   -2.7193522949e+03
   -1.9913152695e+01   -2.7174943848e+03
   -1.9906108856e+01   -2.7156296387e+03
   -1.9898958206e+01   -2.7137436523e+03
   -1.9891721725e+01   -2.7118205566e+03
   -1.9884407043e+01   -2.7098469238e+03
   -1.9877014160e+01   -2.7078115234e+03
   -1.9869525909e+01   -2.7057033691e+03
   -1.9861915588e+01   -2.7035100098e+03
   -1.9854146957e+01   -2.7012202148e+03
   -1.9846172333e+01   -2.6988249512e+03
   -1.9837934494e+01   -2.6963200684e+03
   -1.9829378128e+01   -2.6937031250e+03
   -1.9820440292e+01   -2.6909746094e+03
   -1.9811069489e+01   -2.6881369629e+03
   -1.9801214218e+01   -2.6851950684e+03
   -1.9790840149e+01   -2.6821503906e+03
   -1.9779924393e+01   -2.6790012207e+03
   -1.9768466949e+01   -2.6757438965e+03
   -1.9756484985e+01   -2.6723759766e+03
   -1.9743999481e+01   -2.6688957520e+03
   -1.9731037140e+01   -2.6653032227e+03
   -1.9717628479e+01   -2.6615976562e+03
   -1.9703798294e+01   -2.6577783203e+03
   -1.9689559937e+01   -2.6538452148e+03
   -1.9674922943e+01   -2.6497993164e+03
   -1.9659879684e+01   -2.6456425781e+03
   -1.9644416809e+01   -2.6413793945e+03
   -1.9628519058e+01   -2.6370166016e+03
   -1.9612155914e+01   -2.6325622559e+03
   -1.9595294952e+01   -2.6280234375e+03
   -1.9577903748e+01   -2.6234033203e+03
   -1.9559967041e+01   -2.6187006836e+03
   -1.9541471481e+01   -2.6139099121e+03
   -1.9522411346e+01   -2.6090249023e+03
   -1.9502794266e+01   -2.6040424805e+03
   -1.9482629776e+01   -2.5989631348e+03
   -1.9461933136e+01   -2.5937893066e+03
   -1.9440708160e+01   -2.5885239258e+03
   -1.9418962479e+01   -2.5831699219e+03
   -1.9396692276e+01   -2.5777268066e+03
   -1.9373888016e+01   -2.5721918945e+03
   -1.9350530624e+01   -2.5665620117e+03
   -1.9326608658e+01   -2.5608352051e+03
   -1.9302095413e+01   -2.5550109863e+03
   -1.9276971817e+01   -2.5490876465e+03
   -1.9251230240e+01   -2.5430629883e+03
   -1.9224863052e+01   -2.5369350586e+03
   -1.9197874069e+01   -2.5307031250e+03
   -1.9170272827e+01   -2.5243703613e+03
   -1.9142065048e+01   -2.5179462891e+03
   -1.9113258362e+01   -2.5114421387e+03
   -1.9083860397e+01   -2.5048869629e+03
   -1.9053867340e+01   -2.4982917480e+03
   -1.9023273468e+01   -2.4916762695e+03
   -1.8992067337e+01   -2.4850434570e+03
   -1.8960241318e+01   -2.4784006348e+03
   -1.8927776337e+01   -2.4717375488e+03
   -1.8894668579e+01   -2.4650468750e+03
   -1.8860916138e+01   -2.4583200684e+03
   -1.8826515198e+01   -2.4515422363e+03
   -1.8791469574e+01   -2.4447023926e+03
   -1.8755794525e+01   -2.4377922363e+03
   -1.8719491959e+01   -2.4308063965e+03
   -1.8682571411e+01   -2.4237390137e+03
   -1.8645029068e+01   -2.4165844727e+03
   -1.8606857300e+01   -2.4093388672e+03
   -1.8568050385e+01   -2.4020017090e+03
   -1.8528600693e+01   -2.3945737305e+03
   -1.8488496780e+01   -2.3870578613e+03
   -1.8447740555e+01   -2.3794577637e+03
   -1.8406335831e+01   -2.3717780762e+03
   -1.8364282608e+01   -2.3640244141e+03
   -1.8321588516e+01   -2.3562023926e+03
   -1.8278264999e+01   -2.3483195801e+03
   -1.8234306335e+01   -2.3403837891e+03
   -1.8189727783e+01   -2.3324028320e+03
   -1.8144527435e+01   -2.3243833008e+03
   -1.8098697662e+01   -2.3163288574e+03
   -1.8052242279e+01   -2.3082404785e+03
   -1.8005142212e+01   -2.3001166992e+03
   -1.7957410812e+01   -2.2919545898e+03
   -1.7909040451e+01   -2.2837492676e+03
   -1.7860033035e+01   -2.2754960938e+03
   -1.7810392380e+01   -2.2671933594e+03
   -1.7760131836e+01   -2.2588415527e+03
   -1.7709257126e+01   -2.2504387207e+03
   -1.7657773972e+01   -2.2419794922e+03
   -1.7605684280e+01   -2.2334531250e+03
   -1.7552997589e+01   -2.2248420410e+03
   -1.7499710083e+01   -2.2161293945e+03
   -1.7445827484e+01   -2.2073027344e+03
   -1.7391345978e+01   -2.1983559570e+03
   -1.7336269379e+01   -2.1892915039e+03
   -1.7280609131e+01   -2.1801154785e+03
   -1.7224359512e+01   -2.1708361816e+03
   -1.7167537689e+01   -2.1614609375e+03
   -1.7110136032e+01   -2.1519970703e+03
   -1.7052169800e+01   -2.1424543457e+03
   -1.6993642807e+01   -2.1328432617e+03
   -1.6934572220e+01   -2.1231762695e+03
   -1.6874971390e+01   -2.1134660645e+03
   -1.6814836502e+01   -2.1037236328e+03
   -1.6754169464e+01   -2.0939575195e+03
   -1.6692962646e+01   -2.0841708984e+03
   -1.6631227493e+01   -2.0743601074e+03
   -1.6568964005e+01   -2.0645153809e+03
   -1.6506177902e+01   -2.0546264648e+03
   -1.6442874908e+01   -2.0446870117e+03
   -1.6379066467e+01   -2.0346939697e+03
   -1.6314727783e+01   -2.0246477051e+03
   -1.6249879837e+01   -2.0145507812e+03
   -1.6184520721e+01   -2.0044071045e+03
   -1.6118679047e+01   -1.9942192383e+03
   -1.6052368164e+01   -1.9839841309e+03
   -1.5985590935e+01   -1.9736954346e+03
   -1.5918380737e+01   -1.9633455811e+03
   -1.5850743294e+01   -1.9529259033e+03
   -1.5782701492e+01   -1.9424210205e+03
   -1.5714264870e+01   -1.9318332520e+03
   -1.5645444870e+01   -1.9211535645e+03
   -1.5576248169e+01   -1.9103803711e+03
   -1.5506655693e+01   -1.8994953613e+03
   -1.5436682701e+01   -1.8885145264e+03
   -1.5366339684e+01   -1.8774505615e+03
   -1.5295622826e+01   -1.8663096924e+03
   -1.5224555969e+01   -1.8551027832e+03
   -1.5153135300e+01   -1.8438416748e+03
   -1.5081376076e+01   -1.8325390625e+03
   -1.5009293556e+01   -1.8212065430e+03
   -1.4936884880e+01   -1.8098502197e+03
   -1.4864151001e+01   -1.7984711914e+03
   -1.4791110039e+01   -1.7870668945e+03
   -1.4717741013e+01   -1.7756320801e+03
   -1.4644062042e+01   -1.7641618652e+03
   -1.4570094109e+01   -1.7526506348e+03
   -1.4495838165e+01   -1.7410950928e+03
   -1.4421318054e+01   -1.7294947510e+03
   -1.4346527100e+01   -1.7178538818e+03
   -1.4271503448e+01   -1.7061828613e+03
   -1.4196246147e+01   -1.6944926758e+03
   -1.4120765686e+01   -1.6827937012e+03
   -1.4045091629e+01   -1.6710937500e+03
   -1.3969207764e+01   -1.6593995361e+03
   -1.3893103600e+01   -1.6477187500e+03
   -1.3816790581e+01   -1.6360583496e+03
   -1.3740239143e+01   -1.6244249268e+03
   -1.3663456917e+01   -1.6128212891e+03
   -1.3586427689e+01   -1.6012462158e+03
   -1.3509153366e+01   -1.5896978760e+03
   -1.3431623459e+01   -1.5781721191e+03
   -1.3353847504e+01   -1.5666658936e+03
   -1.3275832176e+01   -1.5551759033e+03
   -1.3197580338e+01   -1.5436986084e+03
   -1.3119105339e+01   -1.5322313232e+03
   -1.3040437698e+01   -1.5207697754e+03
   -1.2961604118e+01   -1.5093123779e+03
   -1.2882623672e+01   -1.4978594971e+03
   -1.2803503990e+01   -1.4864130859e+03
   -1.2724290848e+01   -1.4749749756e+03
   -1.2645018578e+01   -1.4635449219e+03
   -1.2565687180e+01   -1.4521231689e+03
   -1.2486309052e+01   -1.4407100830e+03
   -1.2406915665e+01   -1.4293032227e+03
   -1.2327521324e+01   -1.4178994141e+03
   -1.2248131752e+01   -1.4064964600e+03
   -1.2168742180e+01   -1.3950980225e+03
   -1.2089369774e+01   -1.3837102051e+03
   -1.2010022163e+01   -1.3723387451e+03
   -1.1930695534e+01   -1.3609887695e+03
   -1.1851386070e+01   -1.3496613770e+03
   -1.1772106171e+01   -1.3383592529e+03
   -1.1692836761e+01   -1.3270872803e+03
   -1.1613594055e+01   -1.3158525391e+03
   -1.1534366608e+01   -1.3046628418e+03
   -1.1455146790e+01   -1.2935200195e+03
   -1.1375953674e+01   -1.2824218750e+03
   -1.1296763420e+01   -1.2713624268e+03
   -1.1217563629e+01   -1.2603350830e+03
   -1.1138378143e+01   -1.2493347168e+03
   -1.1059197426e+01   -1.2383469238e+03
   -1.0980043411e+01   -1.2273870850e+03
   -1.0900865555e+01   -1.2164340820e+03
   -1.0821694374e+01   -1.2054814453e+03
   -1.0742511749e+01   -1.1945300293e+03
   -1.0663326263e+01   -1.1835793457e+03
   -1.0584149361e+01   -1.1726241455e+03
   -1.0504969597e+01   -1.1616810303e+03
   -1.0425801277e+01   -1.1507593994e+03
   -1.0346614838e+01   -1.1398472900e+03
   -1.0267418861e+01   -1.1289410400e+03
   -1.0188240051e+01   -1.1180594482e+03
   -1.0109046936e+01   -1.1072036133e+03
   -1.0029866219e+01   -1.0963835449e+03
   -9.9506721497e+00   -1.0855849609e+03
   -9.8714914322e+00   -1.0748277588e+03
   -9.7922992706e+00   -1.0641152344e+03
   -9.7131156921e+00   -1.0534456787e+03
   -9.6339282990e+00   -1.0428178711e+03
   -9.5547485352e+00   -1.0322305908e+03
   -9.4755668640e+00   -1.0216821289e+03
   -9.3963794708e+00   -1.0111729126e+03
   -9.3172035217e+00   -1.0007026978e+03
   -9.2380170822e+00   -9.9026885986e+02
   -9.1588363647e+00   -9.7986834717e+02
   -9.0796346664e+00   -9.6949755859e+02
   -9.0004472733e+00   -9.5915618896e+02
   -8.9212417603e+00   -9.4884661865e+02
   -8.8420257568e+00   -9.3857342529e+02
   -8.7628231049e+00   -9.2834283447e+02
   -8.6835851669e+00   -9.1815808105e+02
   -8.6043596268e+00   -9.0802178955e+02
   -8.5251169205e+00   -8.9793469238e+02
   -8.4458541870e+00   -8.8789624023e+02
   -8.3665952682e+00   -8.7790502930e+02
   -8.2873325348e+00   -8.6795690918e+02
   -8.2080698013e+00   -8.5804815674e+02
   -8.1287918091e+00   -8.4817565918e+02
   -8.0495204926e+00   -8.3833752441e+02
   -7.9702482224e+00   -8.2853411865e+02
   -7.8909902573e+00   -8.1876690674e+02
   -7.8117537498e+00   -8.0904144287e+02
   -7.7325367928e+00   -7.9936639404e+02
   -7.6533651352e+00   -7.8975097656e+02
   -7.5742554665e+00   -7.8020178223e+02
   -7.4951953888e+00   -7.7071746826e+02
   -7.4162187576e+00   -7.6129260254e+02
   -7.3373079300e+00   -7.5191973877e+02
   -7.2585048676e+00   -7.4259088135e+02
   -7.1798167229e+00   -7.3329913330e+02
   -7.1012291908e+00   -7.2403820801e+02
   -7.0227541924e+00   -7.1480792236e+02
   -6.9444208145e+00   -7.0561376953e+02
   -6.8662281036e+00   -6.9646441650e+02
   -6.7881708145e+00   -6.8736859131e+02
   -6.7102684975e+00   -6.7832946777e+02
   -6.6325292587e+00   -6.6934600830e+02
   -6.5549631119e+00   -6.6041113281e+02
   -6.4775605202e+00   -6.5151342773e+02
   -6.4003620148e+00   -6.4264001465e+02
   -6.3233342171e+00   -6.3377740479e+02
   -6.2465209961e+00   -6.2491632080e+02
   -6.1699166298e+00   -6.1605242920e+02
   -6.0935063362e+00   -6.0718695068e+02
   -6.0173363686e+00   -5.9832580566e+02
   -5.9413919449e+00   -5.8947613525e+02
   -5.8656826019e+00   -5.8064953613e+02
   -5.7902078629e+00   -5.7186175537e+02
   -5.7149934769e+00   -5.6313262939e+02
   -5.6400423050e+00   -5.5447656250e+02
   -5.5653691292e+00   -5.4593237305e+02
   -5.4909572601e+00   -5.3749444580e+02
   -5.4168429375e+00   -5.2919873047e+02
   -5.3430075645e+00   -5.2103759766e+02
   -5.2694764137e+00   -5.1302972412e+02
   -5.1962556839e+00   -5.0517144775e+02
   -5.1233506203e+00   -4.9745187378e+02
   -5.0507645607e+00   -4.8985931396e+02
   -4.9785232544e+00   -4.8237930298e+02
   -4.9066066742e+00   -4.7499548340e+02
   -4.8350467682e+00   -4.6769070435e+02
   -4.7638373375e+00   -4.6044754028e+02
   -4.6929984093e+00   -4.5325341797e+02
   -4.6225290298e+00   -4.4610018921e+02
   -4.5524382591e+00   -4.3898202515e+02
   -4.4827394485e+00   -4.3189538574e+02
   -4.4134292603e+00   -4.2483737183e+02
   -4.3445167542e+00   -4.1780615234e+02
   -4.2760453224e+00   -4.1079956055e+02
   -4.2079615593e+00   -4.0381906128e+02
   -4.1403264999e+00   -3.9687365723e+02
   -4.0731153488e+00   -3.8997601318e+02
   -4.0063471794e+00   -3.8313790894e+02
   -3.9400336742e+00   -3.7636407471e+02
   -3.8741605282e+00   -3.6965246582e+02
   -3.8087677956e+00   -3.6299893188e+02
   -3.7438452244e+00   -3.5639981079e+02
   -3.6793949604e+00   -3.4985665894e+02
   -3.6154239178e+00   -3.4337503052e+02
   -3.5519509315e+00   -3.3696310425e+02
   -3.4889655113e+00   -3.3063052368e+02
   -3.4264903069e+00   -3.2438455200e+02
   -3.3645315170e+00   -3.1823065186e+02
   -3.3030836582e+00   -3.1217187500e+02
   -3.2421660423e+00   -3.0620895386e+02
   -3.1817805767e+00   -3.0033850098e+02
   -3.1219201088e+00   -2.9455303955e+02
   -3.0625998974e+00   -2.8884863281e+02
   -3.0038435459e+00   -2.8322515869e+02
   -2.9456439018e+00   -2.7768118286e+02
   -2.8879964352e+00   -2.7221084595e+02
   -2.8309128284e+00   -2.6680520630e+02
   -2.7743887901e+00   -2.6145816040e+02
   -2.7184603214e+00   -2.5616693115e+02
   -2.6630983353e+00   -2.5092996216e+02
   -2.6083254814e+00   -2.4574404907e+02
   -2.5541400909e+00   -2.4060267639e+02
   -2.5005657673e+00   -2.3550048828e+02
   -2.4475786686e+00   -2.3043516541e+02
   -2.3951807022e+00   -2.2540847778e+02
   -2.3434038162e+00   -2.2042480469e+02
   -2.2922255993e+00   -2.1548658752e+02
   -2.2416672707e+00   -2.1059516907e+02
   -2.1917259693e+00   -2.0575047302e+02
   -2.1423966885e+00   -2.0095103455e+02
   -2.0936844349e+00   -1.9619418335e+02
   -2.0456056595e+00   -1.9147384644e+02
   -1.9981578588e+00   -1.8678259277e+02
   -1.9513270855e+00   -1.8211463928e+02
   -1.9051378965e+00   -1.7747018433e+02
   -1.8595720530e+00   -1.7285523987e+02
   -1.8146514893e+00   -1.6827528381e+02
   -1.7703579664e+00   -1.6372769165e+02
   -1.7267125845e+00   -1.5922001648e+02
   -1.6836998463e+00   -1.5474034119e+02
   -1.6413235664e+00   -1.5028916931e+02
   -1.5995935202e+00   -1.4587780762e+02
   -1.5585114956e+00   -1.4150997925e+02
   -1.5180666447e+00   -1.3719488525e+02
   -1.4782657623e+00   -1.3294921875e+02
   -1.4390996695e+00   -1.2877609253e+02
   -1.4005823135e+00   -1.2469299316e+02
   -1.3627077341e+00   -1.2069934082e+02
   -1.3254669905e+00   -1.1678971863e+02
   -1.2888730764e+00   -1.1295600128e+02
   -1.2529196739e+00   -1.0919089508e+02
   -1.2175973654e+00   -1.0549201202e+02
   -1.1829226017e+00   -1.0186497498e+02
   -1.1488728523e+00   -9.8318557739e+01
   -1.1154617071e+00   -9.4859664917e+01
   -1.0826739073e+00   -9.1492607117e+01
   -1.0505203009e+00   -8.8218399048e+01
   -1.0189961195e+00   -8.5033454895e+01
   -9.8809576035e-01   -8.1926933289e+01
   -9.5781397820e-01   -7.8882377625e+01
   -9.2815160751e-01   -7.5881782532e+01
   -8.9910173416e-01   -7.2909866333e+01
   -8.7066054344e-01   -6.9959434509e+01
   -8.4282654524e-01   -6.7031257629e+01
   -8.1559967995e-01   -6.4131454468e+01
   -7.8896731138e-01   -6.1267044067e+01
   -7.6293683052e-01   -5.8440292358e+01
   -7.3749297857e-01   -5.5648883820e+01
   -7.1263504028e-01   -5.2889328003e+01
   -6.8836069107e-01   -5.0160221100e+01
   -6.6466528177e-01   -4.7461551666e+01
   -6.4153736830e-01   -4.4792472839e+01
   -6.1898666620e-01   -4.2152862549e+01
   -5.9699088335e-01   -3.9545547485e+01
   -5.7554608583e-01   -3.6978416443e+01
   -5.5465722084e-01   -3.4461257935e+01
   -5.3431373835e-01   -3.1998592377e+01
   -5.1450502872e-01   -2.9589258194e+01
   -4.9523544312e-01   -2.7229974747e+01
   -4.7648409009e-01   -2.4918195724e+01
   -4.5826116204e-01   -2.2652807236e+01
   -4.4054567814e-01   -2.0433351517e+01
   -4.2334055901e-01   -1.8258659363e+01
   -4.0663772821e-01   -1.6125097275e+01
   -3.9042779803e-01   -1.4029785156e+01
   -3.7470483780e-01   -1.1974135399e+01
   -3.5946199298e-01   -9.9628000259e+00
   -3.4469211102e-01   -8.0016069412e+00
   -3.3038705587e-01   -6.0942792892e+00
   -3.1654146314e-01   -4.2409529686e+00
   -3.0314615369e-01   -2.4396462440e+00
   -2.9019719362e-01   -6.8839311600e-01
   -2.7768361568e-01    1.0142307281e+00
   -2.6559841633e-01    2.6703262329e+00
   -2.5393077731e-01    4.2799720764e+00
   -2.4268004298e-01    5.8391809464e+00
   -2.3183260858e-01    7.3436093330e+00
   -2.2138324380e-01    8.7822008133e+00
   -2.1132354438e-01    1.0150279999e+01
   -2.0164619386e-01    1.1439769745e+01
   -1.9234125316e-01    1.2648576736e+01
   -1.8340322375e-01    1.3780693054e+01
   -1.7482291162e-01    1.4843900681e+01
   -1.6659040749e-01    1.5847183228e+01
   -1.5870107710e-01    1.6798509598e+01
   -1.5114369988e-01    1.7707605362e+01
   -1.4391419291e-01    1.8585060120e+01
   -1.3699956238e-01    1.9451114655e+01
   -1.3039585948e-01    2.0320976257e+01
   -1.2409283221e-01    2.1213455200e+01
   -1.1808099598e-01    2.2141401291e+01
   -1.1235527694e-01    2.3110582352e+01
   -1.0690690577e-01    2.4124282837e+01
   -1.0172663629e-01    2.5179700851e+01
   -9.6807911992e-02    2.6268388748e+01
   -9.2141777277e-02    2.7375886917e+01
   -8.7720952928e-02    2.8482782364e+01
   -8.3536371589e-02    2.9568532944e+01
   -7.9581998289e-02    3.0614574432e+01
   -7.5849249959e-02    3.1606615067e+01
   -7.2329625487e-02    3.2535495758e+01
   -6.9017253816e-02    3.3397727966e+01
   -6.5902970731e-02    3.4195163727e+01
   -6.2980167568e-02    3.4932498932e+01
   -6.0241281986e-02    3.5616321564e+01
   -5.7679008693e-02    3.6255268097e+01
   -5.5286481977e-02    3.6859485626e+01
   -5.3055245429e-02    3.7440044403e+01
   -5.0979934633e-02    3.8008815765e+01
   -4.9053173512e-02    3.8578201294e+01
   -4.7268118709e-02    3.9158786774e+01
   -4.5617457479e-02    3.9756954193e+01
   -4.4095601887e-02    4.0374187469e+01
   -4.2695235461e-02    4.1007583618e+01
   -4.1410576552e-02    4.1651840210e+01
   -4.0235530585e-02    4.2301002502e+01
   -3.9163768291e-02    4.2949443817e+01
   -3.8189470768e-02    4.3592750549e+01
   -3.7307061255e-02    4.4227451324e+01
   -3.6510460079e-02    4.4850353241e+01
   -3.5794463009e-02    4.5457736969e+01
   -3.5153795034e-02    4.6045681000e+01
   -3.4583270550e-02    4.6611465454e+01
   -3.4077707678e-02    4.7154598236e+01
   -3.3632539213e-02    4.7676746368e+01
   -3.3242758363e-02    4.8179584503e+01
   -3.2903935760e-02    4.8663242340e+01
   -3.2611798495e-02    4.9127182007e+01
   -3.2361987978e-02    4.9571495056e+01
   -3.2150581479e-02    4.9997180939e+01
   -3.1973637640e-02    5.0403911591e+01
   -3.1827427447e-02    5.0788330078e+01
   -3.1708456576e-02    5.1146041870e+01
   -3.1613346189e-02    5.1473972321e+01
   -3.1538955867e-02    5.1771160126e+01
   -3.1482245773e-02    5.2039237976e+01
   -3.1440429389e-02    5.2282314301e+01
   -3.1410921365e-02    5.2504852295e+01
   -3.1391315162e-02    5.2709232330e+01
   -3.1379424036e-02    5.2895191193e+01
   -3.1373292208e-02    5.3060508728e+01
   -3.1371206045e-02    5.3202690125e+01
   -3.1371675432e-02    5.3320365906e+01
   -3.1373485923e-02    5.3413169861e+01
   -3.1375687569e-02    5.3481163025e+01
   -3.1377620995e-02    5.3525283813e+01
   -3.1378917396e-02    5.3548652649e+01
   -3.1379517168e-02    5.3557464600e+01
   -3.1379658729e-02    5.3559207916e+01
endcurve
