Curveplot
LS-DYNA keyword deck by LS-PrePost
Time
Yrot-displ
Rigid Body Ids
300001 #pts=1800
* Minval=    -1.2463061523e+02 at time=        93.3991394043
* Maxval=     3.0099134892e-03 at time=         8.0999698639
    0.0000000000e+00    1.2058071661e-06
    9.9982611835e-02    1.2774543166e-06
    1.9999009371e-01    1.3040240674e-06
    2.9999768734e-01    1.2705614836e-06
    3.9998060465e-01    1.1607412489e-06
    4.9997648597e-01    9.5730752037e-07
    5.9999901056e-01    6.4269397626e-07
    6.9999837875e-01    1.9984672406e-07
    7.9998111725e-01   -3.8673184122e-07
    8.9998859167e-01   -1.1297059928e-06
    9.9999868870e-01   -2.0373929601e-06
    1.0999890566e+00   -3.1120207495e-06
    1.1999850273e+00   -4.3477789404e-06
    1.2999830246e+00   -5.7286952142e-06
    1.3999949694e+00   -7.2263710535e-06
    1.4999929667e+00   -8.7976304712e-06
    1.5999989510e+00   -1.0382212167e-05
    1.6999739408e+00   -1.1900753634e-05
    1.7999880314e+00   -1.3253340512e-05
    1.8999880552e+00   -1.4318757167e-05
    1.9999970198e+00   -1.4954619473e-05
    2.0999751091e+00   -1.4998696315e-05
    2.1999800205e+00   -1.4271745385e-05
    2.2999908924e+00   -1.2581755072e-05
    2.3999850750e+00   -9.7290776466e-06
    2.4999949932e+00   -5.5118621276e-06
    2.5999898911e+00    2.6853899726e-07
    2.6999790668e+00    7.8024295362e-06
    2.7999930382e+00    1.7267164367e-05
    2.8999960423e+00    2.8823189496e-05
    2.9999749660e+00    4.2610696255e-05
    3.0999729633e+00    5.8746867580e-05
    3.1999979019e+00    7.7323944424e-05
    3.2999739647e+00    9.8408338090e-05
    3.3999819756e+00    1.2204106315e-04
    3.4999980927e+00    1.4823982201e-04
    3.5999979973e+00    1.7700239550e-04
    3.6999878883e+00    2.0831119036e-04
    3.7999920845e+00    2.4213809229e-04
    3.8999938965e+00    2.7844903525e-04
    3.9999790192e+00    3.1720800325e-04
    4.0999770164e+00    3.5838020267e-04
    4.1999759674e+00    4.0193484165e-04
    4.2999811172e+00    4.4784726924e-04
    4.3999748230e+00    4.9610051792e-04
    4.4999918938e+00    5.4668675875e-04
    4.5999970436e+00    5.9960782528e-04
    4.6999788284e+00    6.5487442771e-04
    4.7999877930e+00    7.1250437759e-04
    4.8999838829e+00    7.7251956100e-04
    4.9999790192e+00    8.3494273713e-04
    5.0999841690e+00    8.9979311451e-04
    5.1999731064e+00    9.6708274214e-04
    5.2999858856e+00    1.0368124349e-03
    5.3999948502e+00    1.1089680484e-03
    5.4999952316e+00    1.1835159967e-03
    5.5999908447e+00    1.2604002841e-03
    5.6999921799e+00    1.3395380229e-03
    5.7999849319e+00    1.4208158245e-03
    5.8999929428e+00    1.5040868893e-03
    5.9999899864e+00    1.5891682124e-03
    6.0999941826e+00    1.6758390702e-03
    6.1999878883e+00    1.7638382269e-03
    6.2999868393e+00    1.8528623041e-03
    6.3999848366e+00    1.9425634528e-03
    6.4999728203e+00    2.0325465593e-03
    6.5999817848e+00    2.1223688964e-03
    6.6999812126e+00    2.2115381435e-03
    6.7999901772e+00    2.2995141335e-03
    6.8999857903e+00    2.3857092019e-03
    6.9999861717e+00    2.4694900494e-03
    7.0999689102e+00    2.5501803029e-03
    7.1999831200e+00    2.6270616800e-03
    7.2999858856e+00    2.6993763167e-03
    7.3999738693e+00    2.7663267683e-03
    7.4999690056e+00    2.8270771727e-03
    7.5999908447e+00    2.8807539493e-03
    7.6999921799e+00    2.9264460318e-03
    7.7999839783e+00    2.9632067308e-03
    7.8999729156e+00    2.9900541995e-03
    7.9999790192e+00    3.0059728306e-03
    8.0999698639e+00    3.0099134892e-03
    8.1999864578e+00    3.0007953756e-03
    8.2999849319e+00    2.9775081202e-03
    8.3999786377e+00    2.9389145784e-03
    8.4999828339e+00    2.8838571161e-03
    8.5999851227e+00    2.8111634310e-03
    8.6999931335e+00    2.7196554001e-03
    8.7999877930e+00    2.6081597898e-03
    8.8999881744e+00    2.4755196646e-03
    8.9999876022e+00    2.3206104524e-03
    9.0999984741e+00    2.1423562430e-03
    9.1999759674e+00    1.9397494616e-03
    9.2999963760e+00    1.7118742689e-03
    9.3999748230e+00    1.4579307754e-03
    9.4999971390e+00    1.1772619328e-03
    9.5999956131e+00    8.6938124150e-04
    9.6999826431e+00    5.3399824537e-04
    9.7999801636e+00    1.7104159633e-04
    9.8999938965e+00   -2.1932236268e-04
    9.9999837875e+00   -6.3667836366e-04
    1.0099980354e+01   -1.0803617770e-03
    1.0199979782e+01   -1.5494724503e-03
    1.0299980164e+01   -2.0429061260e-03
    1.0399999619e+01   -2.5594080798e-03
    1.0499990463e+01   -3.0976510607e-03
    1.0599980354e+01   -3.6563454196e-03
    1.0699990273e+01   -4.2343786918e-03
    1.0800000191e+01   -4.8309913836e-03
    1.0899979591e+01   -5.4459907115e-03
    1.0999990463e+01   -6.0799960047e-03
    1.1099989891e+01   -6.7347194999e-03
    1.1199990273e+01   -7.4132760055e-03
    1.1300000191e+01   -8.1205125898e-03
    1.1399990082e+01   -8.8633466512e-03
    1.1500000000e+01   -9.6511030570e-03
    1.1599980354e+01   -1.0495818220e-02
    1.1699990273e+01   -1.1412502266e-02
    1.1799989700e+01   -1.2419333681e-02
    1.1899990082e+01   -1.3537735678e-02
    1.1999990463e+01   -1.4792324044e-02
    1.2099989891e+01   -1.6210671514e-02
    1.2199990273e+01   -1.7822844908e-02
    1.2300009727e+01   -1.9660687074e-02
    1.2399990082e+01   -2.1756820381e-02
    1.2499990463e+01   -2.4143420160e-02
    1.2600000381e+01   -2.6850830764e-02
    1.2699999809e+01   -2.9906189069e-02
    1.2800000191e+01   -3.3332124352e-02
    1.2899990082e+01   -3.7145696580e-02
    1.2999990463e+01   -4.1357669979e-02
    1.3100000381e+01   -4.5972224325e-02
    1.3200010300e+01   -5.0987105817e-02
    1.3300009727e+01   -5.6394271553e-02
    1.3400010109e+01   -6.2180869281e-02
    1.3500009537e+01   -6.8330533803e-02
    1.3600000381e+01   -7.4824869633e-02
    1.3699999809e+01   -8.1644952297e-02
    1.3800009727e+01   -8.8772840798e-02
    1.3899999619e+01   -9.6193000674e-02
    1.4000009537e+01   -1.0389347374e-01
    1.4100009918e+01   -1.1186686903e-01
    1.4200010300e+01   -1.2011105567e-01
    1.4300000191e+01   -1.2862956524e-01
    1.4399999619e+01   -1.3743166625e-01
    1.4500000000e+01   -1.4653210342e-01
    1.4600000381e+01   -1.5595060587e-01
    1.4700010300e+01   -1.6571106017e-01
    1.4800009727e+01   -1.7584051192e-01
    1.4899999619e+01   -1.8636795878e-01
    1.5000000000e+01   -1.9732311368e-01
    1.5100000381e+01   -2.0873512328e-01
    1.5199999809e+01   -2.2063143551e-01
    1.5300000191e+01   -2.3303677142e-01
    1.5400010109e+01   -2.4597249925e-01
    1.5500000000e+01   -2.5945624709e-01
    1.5600020409e+01   -2.7350205183e-01
    1.5700019836e+01   -2.8812071681e-01
    1.5800000191e+01   -3.0332061648e-01
    1.5900010109e+01   -3.1910896301e-01
    1.6000019073e+01   -3.3549281955e-01
    1.6100019455e+01   -3.5248064995e-01
    1.6200010300e+01   -3.7008333206e-01
    1.6300020218e+01   -3.8831537962e-01
    1.6400009155e+01   -4.0719553828e-01
    1.6500009537e+01   -4.2674729228e-01
    1.6600009918e+01   -4.4699886441e-01
    1.6700010300e+01   -4.6798262000e-01
    1.6800020218e+01   -4.8973453045e-01
    1.6900020599e+01   -5.1229292154e-01
    1.7000019073e+01   -5.3569728136e-01
    1.7100019455e+01   -5.5998688936e-01
    1.7200019836e+01   -5.8519953489e-01
    1.7300020218e+01   -6.1137020588e-01
    1.7400020599e+01   -6.3852995634e-01
    1.7500019073e+01   -6.6670548916e-01
    1.7600019455e+01   -6.9591850042e-01
    1.7700010300e+01   -7.2618579865e-01
    1.7800020218e+01   -7.5751954317e-01
    1.7900020599e+01   -7.8992778063e-01
    1.8000009537e+01   -8.2341527939e-01
    1.8100030899e+01   -8.5798424482e-01
    1.8200019836e+01   -8.9363551140e-01
    1.8300010681e+01   -9.3036895990e-01
    1.8400020599e+01   -9.6818453074e-01
    1.8500019073e+01   -1.0070827007e+00
    1.8600009918e+01   -1.0470645428e+00
    1.8700019836e+01   -1.0881326199e+00
    1.8800010681e+01   -1.1302905083e+00
    1.8900030136e+01   -1.1735430956e+00
    1.9000009537e+01   -1.2178966999e+00
    1.9100019455e+01   -1.2633587122e+00
    1.9200010300e+01   -1.3099375963e+00
    1.9300029755e+01   -1.3576433659e+00
    1.9400020599e+01   -1.4064869881e+00
    1.9500019073e+01   -1.4564808607e+00
    1.9600030899e+01   -1.5076382160e+00
    1.9700029373e+01   -1.5599735975e+00
    1.9800029755e+01   -1.6135025024e+00
    1.9900020599e+01   -1.6682409048e+00
    2.0000019073e+01   -1.7242053747e+00
    2.0100030899e+01   -1.7814123631e+00
    2.0200019836e+01   -1.8398772478e+00
    2.0300029755e+01   -1.8996143341e+00
    2.0400020599e+01   -1.9606356621e+00
    2.0500030518e+01   -2.0229508877e+00
    2.0600030899e+01   -2.0865669250e+00
    2.0700019836e+01   -2.1514868736e+00
    2.0800039291e+01   -2.2177116871e+00
    2.0900039673e+01   -2.2852389812e+00
    2.1000030518e+01   -2.3540637493e+00
    2.1100040436e+01   -2.4241807461e+00
    2.1200040817e+01   -2.4955835342e+00
    2.1300039291e+01   -2.5682673454e+00
    2.1400030136e+01   -2.6422288418e+00
    2.1500030518e+01   -2.7174680233e+00
    2.1600019455e+01   -2.7939884663e+00
    2.1700040817e+01   -2.8717973232e+00
    2.1800029755e+01   -2.9509069920e+00
    2.1900020599e+01   -3.0313324928e+00
    2.2000040054e+01   -3.1130919456e+00
    2.2100030899e+01   -3.1962053776e+00
    2.2200040817e+01   -3.2806932926e+00
    2.2300029755e+01   -3.3665754795e+00
    2.2400039673e+01   -3.4538700581e+00
    2.2500019073e+01   -3.5425930023e+00
    2.2600040436e+01   -3.6327564716e+00
    2.2700040817e+01   -3.7243707180e+00
    2.2800029755e+01   -3.8174414635e+00
    2.2900039673e+01   -3.9119737148e+00
    2.3000040054e+01   -4.0079679489e+00
    2.3100040436e+01   -4.1054253578e+00
    2.3200040817e+01   -4.2043442726e+00
    2.3300029755e+01   -4.3047232628e+00
    2.3400039673e+01   -4.4065613747e+00
    2.3500040054e+01   -4.5098576546e+00
    2.3600049973e+01   -4.6146125793e+00
    2.3700040817e+01   -4.7208266258e+00
    2.3800050735e+01   -4.8285021782e+00
    2.3900039673e+01   -4.9376425743e+00
    2.4000049591e+01   -5.0482511520e+00
    2.4100049973e+01   -5.1603341103e+00
    2.4200029373e+01   -5.2738962173e+00
    2.4300029755e+01   -5.3889446259e+00
    2.4400049210e+01   -5.5054864883e+00
    2.4500059128e+01   -5.6235294342e+00
    2.4600049973e+01   -5.7430810928e+00
    2.4700050354e+01   -5.8641500473e+00
    2.4800039291e+01   -5.9867463112e+00
    2.4900049210e+01   -6.1108794212e+00
    2.5000059128e+01   -6.2365593910e+00
    2.5100030899e+01   -6.3637990952e+00
    2.5200050354e+01   -6.4926109314e+00
    2.5300039291e+01   -6.6230087280e+00
    2.5400060654e+01   -6.7550058365e+00
    2.5500049591e+01   -6.8886156082e+00
    2.5600049973e+01   -7.0238509178e+00
    2.5700059891e+01   -7.1607222557e+00
    2.5800039291e+01   -7.2992405891e+00
    2.5900039673e+01   -7.4394125938e+00
    2.6000040054e+01   -7.5812439919e+00
    2.6100049973e+01   -7.7247381210e+00
    2.6200059891e+01   -7.8698959351e+00
    2.6300050735e+01   -8.0167169571e+00
    2.6400049210e+01   -8.1651983261e+00
    2.6500040054e+01   -8.3153371811e+00
    2.6600059509e+01   -8.4671278000e+00
    2.6700040817e+01   -8.6205615997e+00
    2.6800050735e+01   -8.7756338120e+00
    2.6900049210e+01   -8.9323348999e+00
    2.7000049591e+01   -9.0906591415e+00
    2.7100040436e+01   -9.2505970001e+00
    2.7200040817e+01   -9.4121417999e+00
    2.7300060272e+01   -9.5752878189e+00
    2.7400039673e+01   -9.7400283813e+00
    2.7500059128e+01   -9.9063577652e+00
    2.7600059509e+01   -1.0074272156e+01
    2.7700059891e+01   -1.0243765831e+01
    2.7800050735e+01   -1.0414836884e+01
    2.7900070190e+01   -1.0587483406e+01
    2.8000070572e+01   -1.0761704445e+01
    2.8100059509e+01   -1.0937500954e+01
    2.8200069427e+01   -1.1114875793e+01
    2.8300069809e+01   -1.1293833733e+01
    2.8400060654e+01   -1.1474381447e+01
    2.8500049591e+01   -1.1656526566e+01
    2.8600049973e+01   -1.1840276718e+01
    2.8700050354e+01   -1.2025641441e+01
    2.8800050735e+01   -1.2212628365e+01
    2.8900060654e+01   -1.2401245117e+01
    2.9000070572e+01   -1.2591499329e+01
    2.9100070953e+01   -1.2783394814e+01
    2.9200059891e+01   -1.2976932526e+01
    2.9300069809e+01   -1.3172115326e+01
    2.9400070190e+01   -1.3368941307e+01
    2.9500059128e+01   -1.3567405701e+01
    2.9600070953e+01   -1.3767504692e+01
    2.9700069427e+01   -1.3969229698e+01
    2.9800050735e+01   -1.4172574997e+01
    2.9900070190e+01   -1.4377530098e+01
    3.0000059128e+01   -1.4584089279e+01
    3.0100070953e+01   -1.4792245865e+01
    3.0200080872e+01   -1.5001993179e+01
    3.0300060272e+01   -1.5213321686e+01
    3.0400070190e+01   -1.5426226616e+01
    3.0500080109e+01   -1.5640698433e+01
    3.0600059509e+01   -1.5856732368e+01
    3.0700069427e+01   -1.6074321747e+01
    3.0800050735e+01   -1.6293457031e+01
    3.0900060654e+01   -1.6514135361e+01
    3.1000070572e+01   -1.6736347198e+01
    3.1100070953e+01   -1.6960086823e+01
    3.1200080872e+01   -1.7185344696e+01
    3.1300069809e+01   -1.7412117004e+01
    3.1400070190e+01   -1.7640392303e+01
    3.1500080109e+01   -1.7870161057e+01
    3.1600070953e+01   -1.8101419449e+01
    3.1700069427e+01   -1.8334154129e+01
    3.1800069809e+01   -1.8568359375e+01
    3.1900070190e+01   -1.8804025650e+01
    3.2000068665e+01   -1.9041149139e+01
    3.2100070953e+01   -1.9279720306e+01
    3.2200069427e+01   -1.9519733429e+01
    3.2300071716e+01   -1.9761182785e+01
    3.2400070190e+01   -2.0004064560e+01
    3.2500049591e+01   -2.0248373032e+01
    3.2600059509e+01   -2.0494100571e+01
    3.2700061798e+01   -2.0741241455e+01
    3.2800060272e+01   -2.0989788055e+01
    3.2900051117e+01   -2.1239736557e+01
    3.3000049591e+01   -2.1491077423e+01
    3.3100040436e+01   -2.1743806839e+01
    3.3200038910e+01   -2.1997917175e+01
    3.3300048828e+01   -2.2253398895e+01
    3.3400039673e+01   -2.2510250092e+01
    3.3500038147e+01   -2.2768457413e+01
    3.3600040436e+01   -2.3028015137e+01
    3.3700050354e+01   -2.3288909912e+01
    3.3800029755e+01   -2.3551132202e+01
    3.3900028229e+01   -2.3814672470e+01
    3.4000038147e+01   -2.4079515457e+01
    3.4100028992e+01   -2.4345649719e+01
    3.4200031281e+01   -2.4613058090e+01
    3.4300041199e+01   -2.4881727219e+01
    3.4400039673e+01   -2.5151638031e+01
    3.4500019073e+01   -2.5422771454e+01
    3.4600040436e+01   -2.5695110321e+01
    3.4700031281e+01   -2.5968629837e+01
    3.4800018311e+01   -2.6243310928e+01
    3.4900009155e+01   -2.6519128799e+01
    3.5000030518e+01   -2.6796062469e+01
    3.5100009918e+01   -2.7074089050e+01
    3.5200019836e+01   -2.7353187561e+01
    3.5300010681e+01   -2.7633337021e+01
    3.5400009155e+01   -2.7914516449e+01
    3.5500011444e+01   -2.8196710587e+01
    3.5600021362e+01   -2.8479907990e+01
    3.5700000763e+01   -2.8764099121e+01
    3.5799999237e+01   -2.9049280167e+01
    3.5900009155e+01   -2.9335456848e+01
    3.6000011444e+01   -2.9622634888e+01
    3.6099998474e+01   -2.9910821915e+01
    3.6200000763e+01   -3.0200040817e+01
    3.6299991608e+01   -3.0490299225e+01
    3.6400009155e+01   -3.0781608582e+01
    3.6500000000e+01   -3.1073961258e+01
    3.6599998474e+01   -3.1367351532e+01
    3.6699989319e+01   -3.1661752701e+01
    3.6799991608e+01   -3.1957132339e+01
    3.6900001526e+01   -3.2253452301e+01
    3.6999980927e+01   -3.2550666809e+01
    3.7099990845e+01   -3.2848724365e+01
    3.7199989319e+01   -3.3147583008e+01
    3.7299980164e+01   -3.3447216034e+01
    3.7399990082e+01   -3.3747600555e+01
    3.7499988556e+01   -3.4048736572e+01
    3.7599990845e+01   -3.4350624084e+01
    3.7699989319e+01   -3.4653270721e+01
    3.7799968719e+01   -3.4956695557e+01
    3.7899990082e+01   -3.5260902405e+01
    3.7999969482e+01   -3.5565895081e+01
    3.8099979401e+01   -3.5871673584e+01
    3.8199981689e+01   -3.6178222656e+01
    3.8299968719e+01   -3.6485538483e+01
    3.8399959564e+01   -3.6793601990e+01
    3.8499969482e+01   -3.7102394104e+01
    3.8599971771e+01   -3.7411872864e+01
    3.8699958801e+01   -3.7722000122e+01
    3.8799961090e+01   -3.8032722473e+01
    3.8899971008e+01   -3.8343990326e+01
    3.8999961853e+01   -3.8655746460e+01
    3.9099971771e+01   -3.8967952728e+01
    3.9199958801e+01   -3.9280570984e+01
    3.9299949646e+01   -3.9593585968e+01
    3.9399959564e+01   -3.9906993866e+01
    3.9499961853e+01   -4.0220790863e+01
    3.9599960327e+01   -4.0534999847e+01
    3.9699951172e+01   -4.0849643707e+01
    3.9799961090e+01   -4.1164752960e+01
    3.9899940491e+01   -4.1480361938e+01
    3.9999938965e+01   -4.1796497345e+01
    4.0099948883e+01   -4.2113174438e+01
    4.0199939728e+01   -4.2430408478e+01
    4.0299949646e+01   -4.2748191833e+01
    4.0399929047e+01   -4.3066532135e+01
    4.0499931335e+01   -4.3385425568e+01
    4.0599929810e+01   -4.3704872131e+01
    4.0699939728e+01   -4.4024875641e+01
    4.0799930573e+01   -4.4345451355e+01
    4.0899940491e+01   -4.4666599274e+01
    4.0999938965e+01   -4.4988334656e+01
    4.1099929810e+01   -4.5310657501e+01
    4.1199928284e+01   -4.5633563995e+01
    4.1299919128e+01   -4.5957027435e+01
    4.1399929047e+01   -4.6281021118e+01
    4.1499931335e+01   -4.6605506897e+01
    4.1599918365e+01   -4.6930446625e+01
    4.1699909210e+01   -4.7255805969e+01
    4.1799930573e+01   -4.7581562042e+01
    4.1899929047e+01   -4.7907688141e+01
    4.1999931335e+01   -4.8234176636e+01
    4.2099899292e+01   -4.8561035156e+01
    4.2199901581e+01   -4.8888267517e+01
    4.2299900055e+01   -4.9215896606e+01
    4.2399898529e+01   -4.9543945312e+01
    4.2499900818e+01   -4.9872447968e+01
    4.2599910736e+01   -5.0201423645e+01
    4.2699920654e+01   -5.0530891418e+01
    4.2799911499e+01   -5.0860855103e+01
    4.2899890900e+01   -5.1191303253e+01
    4.2999889374e+01   -5.1522209167e+01
    4.3099891663e+01   -5.1853534698e+01
    4.3199890137e+01   -5.2185237885e+01
    4.3299900055e+01   -5.2517280579e+01
    4.3399879456e+01   -5.2849613190e+01
    4.3499900818e+01   -5.3182205200e+01
    4.3599899292e+01   -5.3515022278e+01
    4.3699890137e+01   -5.3848033905e+01
    4.3799888611e+01   -5.4181224823e+01
    4.3899879456e+01   -5.4514583588e+01
    4.3999870300e+01   -5.4848094940e+01
    4.4099899292e+01   -5.5181766510e+01
    4.4199871063e+01   -5.5515590668e+01
    4.4299869537e+01   -5.5849571228e+01
    4.4399879456e+01   -5.6183708191e+01
    4.4499870300e+01   -5.6518001556e+01
    4.4599868774e+01   -5.6852436066e+01
    4.4699859619e+01   -5.7186996460e+01
    4.4799880981e+01   -5.7521656036e+01
    4.4899871826e+01   -5.7856395721e+01
    4.4999881744e+01   -5.8191196442e+01
    4.5099861145e+01   -5.8526039124e+01
    4.5199859619e+01   -5.8860900879e+01
    4.5299869537e+01   -5.9195758820e+01
    4.5399848938e+01   -5.9530567169e+01
    4.5499858856e+01   -5.9865272522e+01
    4.5599849701e+01   -6.0199813843e+01
    4.5699848175e+01   -6.0534122467e+01
    4.5799869537e+01   -6.0868144989e+01
    4.5899848938e+01   -6.1201850891e+01
    4.5999851227e+01   -6.1535266876e+01
    4.6099849701e+01   -6.1868446350e+01
    4.6199840546e+01   -6.2201519012e+01
    4.6299839020e+01   -6.2534641266e+01
    4.6399841309e+01   -6.2867992401e+01
    4.6499858856e+01   -6.3201770782e+01
    4.6599861145e+01   -6.3536151886e+01
    4.6699829102e+01   -6.3871295929e+01
    4.6799839020e+01   -6.4207328796e+01
    4.6899841309e+01   -6.4544342041e+01
    4.6999820709e+01   -6.4882392883e+01
    4.7099830627e+01   -6.5221504211e+01
    4.7199829102e+01   -6.5561614990e+01
    4.7299819946e+01   -6.5902641296e+01
    4.7399818420e+01   -6.6244438171e+01
    4.7499820709e+01   -6.6586830139e+01
    4.7599830627e+01   -6.6929603577e+01
    4.7699840546e+01   -6.7272499084e+01
    4.7799819946e+01   -6.7615272522e+01
    4.7899818420e+01   -6.7957626343e+01
    4.7999820709e+01   -6.8299308777e+01
    4.8099830627e+01   -6.8640060425e+01
    4.8199829102e+01   -6.8979644775e+01
    4.8299808502e+01   -6.9317878723e+01
    4.8399810791e+01   -6.9654647827e+01
    4.8499809265e+01   -6.9989852905e+01
    4.8599819183e+01   -7.0323516846e+01
    4.8699798584e+01   -7.0655677795e+01
    4.8799819946e+01   -7.0986457825e+01
    4.8899818420e+01   -7.1315979004e+01
    4.8999809265e+01   -7.1644416809e+01
    4.9099819183e+01   -7.1971939087e+01
    4.9199790955e+01   -7.2298690796e+01
    4.9299800873e+01   -7.2624809265e+01
    4.9399791718e+01   -7.2950424194e+01
    4.9499790192e+01   -7.3275627136e+01
    4.9599800110e+01   -7.3600479126e+01
    4.9699798584e+01   -7.3925018311e+01
    4.9799800873e+01   -7.4249237061e+01
    4.9899780273e+01   -7.4573112488e+01
    4.9999801636e+01   -7.4896568298e+01
    5.0099788666e+01   -7.5219512939e+01
    5.0199779510e+01   -7.5541831970e+01
    5.0299789429e+01   -7.5863372803e+01
    5.0399780273e+01   -7.6183990479e+01
    5.0499771118e+01   -7.6503517151e+01
    5.0599781036e+01   -7.6821792603e+01
    5.0699771881e+01   -7.7138679504e+01
    5.0799781799e+01   -7.7454040527e+01
    5.0899768829e+01   -7.7767814636e+01
    5.0999771118e+01   -7.8079963684e+01
    5.1099781036e+01   -7.8390502930e+01
    5.1199779510e+01   -7.8699485779e+01
    5.1299770355e+01   -7.9007003784e+01
    5.1399761200e+01   -7.9313186646e+01
    5.1499759674e+01   -7.9618156433e+01
    5.1599758148e+01   -7.9922050476e+01
    5.1699760437e+01   -8.0224975586e+01
    5.1799758911e+01   -8.0527023315e+01
    5.1899749756e+01   -8.0828254700e+01
    5.1999759674e+01   -8.1128700256e+01
    5.2099750519e+01   -8.1428359985e+01
    5.2199760437e+01   -8.1727188110e+01
    5.2299758911e+01   -8.2025115967e+01
    5.2399761200e+01   -8.2322029114e+01
    5.2499748230e+01   -8.2617813110e+01
    5.2599750519e+01   -8.2912330627e+01
    5.2699748993e+01   -8.3205451965e+01
    5.2799758911e+01   -8.3497055054e+01
    5.2899730682e+01   -8.3787040710e+01
    5.2999748230e+01   -8.4075332642e+01
    5.3099758148e+01   -8.4361885071e+01
    5.3199748993e+01   -8.4646667480e+01
    5.3299728394e+01   -8.4929687500e+01
    5.3399749756e+01   -8.5210937500e+01
    5.3499748230e+01   -8.5490440369e+01
    5.3599720001e+01   -8.5768196106e+01
    5.3699741364e+01   -8.6044189453e+01
    5.3799739838e+01   -8.6318412781e+01
    5.3899738312e+01   -8.6590835571e+01
    5.3999721527e+01   -8.6861450195e+01
    5.4099739075e+01   -8.7130233765e+01
    5.4199741364e+01   -8.7397201538e+01
    5.4299728394e+01   -8.7662353516e+01
    5.4399719238e+01   -8.7925712585e+01
    5.4499729156e+01   -8.8187309265e+01
    5.4599739075e+01   -8.8447174072e+01
    5.4699718475e+01   -8.8705337524e+01
    5.4799720764e+01   -8.8961845398e+01
    5.4899711609e+01   -8.9216705322e+01
    5.4999710083e+01   -8.9469917297e+01
    5.5099720001e+01   -8.9721458435e+01
    5.5199699402e+01   -8.9971298218e+01
    5.5299720764e+01   -9.0219413757e+01
    5.5399719238e+01   -9.0465751648e+01
    5.5499710083e+01   -9.0710273743e+01
    5.5599720001e+01   -9.0952926636e+01
    5.5699699402e+01   -9.1193672180e+01
    5.5799701691e+01   -9.1432456970e+01
    5.5899719238e+01   -9.1669250488e+01
    5.5999698639e+01   -9.1904022217e+01
    5.6099689484e+01   -9.2136749268e+01
    5.6199710846e+01   -9.2367408752e+01
    5.6299690247e+01   -9.2595970154e+01
    5.6399688721e+01   -9.2822433472e+01
    5.6499679565e+01   -9.3046783447e+01
    5.6599681854e+01   -9.3269020081e+01
    5.6699680328e+01   -9.3489143372e+01
    5.6799690247e+01   -9.3707168579e+01
    5.6899700165e+01   -9.3923126221e+01
    5.6999691010e+01   -9.4137046814e+01
    5.7099670410e+01   -9.4348968506e+01
    5.7199691772e+01   -9.4558921814e+01
    5.7299690247e+01   -9.4766952515e+01
    5.7399669647e+01   -9.4973083496e+01
    5.7499691010e+01   -9.5177330017e+01
    5.7599681854e+01   -9.5379676819e+01
    5.7699668884e+01   -9.5580123901e+01
    5.7799671173e+01   -9.5778625488e+01
    5.7899681091e+01   -9.5975158691e+01
    5.7999660492e+01   -9.6169677734e+01
    5.8099681854e+01   -9.6362159729e+01
    5.8199668884e+01   -9.6552597046e+01
    5.8299659729e+01   -9.6740974426e+01
    5.8399650574e+01   -9.6927284241e+01
    5.8499679565e+01   -9.7111541748e+01
    5.8599670410e+01   -9.7293754578e+01
    5.8699661255e+01   -9.7473930359e+01
    5.8799640656e+01   -9.7652076721e+01
    5.8899650574e+01   -9.7828193665e+01
    5.8999660492e+01   -9.8002265930e+01
    5.9099651337e+01   -9.8174293518e+01
    5.9199638367e+01   -9.8344276428e+01
    5.9299659729e+01   -9.8512214661e+01
    5.9399639130e+01   -9.8678123474e+01
    5.9499660492e+01   -9.8842018127e+01
    5.9599628448e+01   -9.9003929138e+01
    5.9699638367e+01   -9.9163879395e+01
    5.9799648285e+01   -9.9321891785e+01
    5.9899650574e+01   -9.9477996826e+01
    5.9999649048e+01   -9.9632202148e+01
    6.0099628448e+01   -9.9784523010e+01
    6.0199630737e+01   -9.9934959412e+01
    6.0299629211e+01   -1.0008351898e+02
    6.0399639130e+01   -1.0023020935e+02
    6.0499618530e+01   -1.0037506866e+02
    6.0599628448e+01   -1.0051812744e+02
    6.0699630737e+01   -1.0065944672e+02
    6.0799621582e+01   -1.0079905701e+02
    6.0899620056e+01   -1.0093700409e+02
    6.0999629974e+01   -1.0107332611e+02
    6.1099620819e+01   -1.0120801544e+02
    6.1199611664e+01   -1.0134107208e+02
    6.1299621582e+01   -1.0147247314e+02
    6.1399620056e+01   -1.0160217285e+02
    6.1499610901e+01   -1.0173013306e+02
    6.1599620819e+01   -1.0185631561e+02
    6.1699600220e+01   -1.0198070526e+02
    6.1799610138e+01   -1.0210330200e+02
    6.1899608612e+01   -1.0222412872e+02
    6.1999599457e+01   -1.0234324646e+02
    6.2099590302e+01   -1.0246071625e+02
    6.2199619293e+01   -1.0257660675e+02
    6.2299610138e+01   -1.0269095612e+02
    6.2399589539e+01   -1.0280382538e+02
    6.2499599457e+01   -1.0291521454e+02
    6.2599590302e+01   -1.0302513885e+02
    6.2699611664e+01   -1.0313356781e+02
    6.2799598694e+01   -1.0324047089e+02
    6.2899578094e+01   -1.0334581757e+02
    6.2999599457e+01   -1.0344958496e+02
    6.3099590302e+01   -1.0355175018e+02
    6.3199588776e+01   -1.0365235901e+02
    6.3299598694e+01   -1.0375144958e+02
    6.3399578094e+01   -1.0384912109e+02
    6.3499591827e+01   -1.0394545746e+02
    6.3599590302e+01   -1.0404058075e+02
    6.3699581146e+01   -1.0413461304e+02
    6.3799579620e+01   -1.0422765350e+02
    6.3899589539e+01   -1.0431979370e+02
    6.3999568939e+01   -1.0441109467e+02
    6.4099563599e+01   -1.0450157928e+02
    6.4199577332e+01   -1.0459123993e+02
    6.4299583435e+01   -1.0468005371e+02
    6.4399566650e+01   -1.0476792908e+02
    6.4499580383e+01   -1.0485478973e+02
    6.4599571228e+01   -1.0494050598e+02
    6.4699569702e+01   -1.0502496338e+02
    6.4799560547e+01   -1.0510803223e+02
    6.4899566650e+01   -1.0518960571e+02
    6.4999549866e+01   -1.0526961517e+02
    6.5099563599e+01   -1.0534802246e+02
    6.5199562073e+01   -1.0542481232e+02
    6.5299560547e+01   -1.0550004578e+02
    6.5399551392e+01   -1.0557379150e+02
    6.5499572754e+01   -1.0564614868e+02
    6.5599563599e+01   -1.0571727753e+02
    6.5699562073e+01   -1.0578732300e+02
    6.5799560547e+01   -1.0585645294e+02
    6.5899543762e+01   -1.0592482758e+02
    6.5999557495e+01   -1.0599260712e+02
    6.6099548340e+01   -1.0605994415e+02
    6.6199531555e+01   -1.0612696075e+02
    6.6299552917e+01   -1.0619377899e+02
    6.6399528503e+01   -1.0626051331e+02
    6.6499542236e+01   -1.0632723999e+02
    6.6599540710e+01   -1.0639405060e+02
    6.6699546814e+01   -1.0646098328e+02
    6.6799537659e+01   -1.0652809143e+02
    6.6899543762e+01   -1.0659539795e+02
    6.6999526978e+01   -1.0666293335e+02
    6.7099517822e+01   -1.0673069000e+02
    6.7199516296e+01   -1.0679866028e+02
    6.7299507141e+01   -1.0686683655e+02
    6.7399520874e+01   -1.0693519592e+02
    6.7499526978e+01   -1.0700370026e+02
    6.7599510193e+01   -1.0707229614e+02
    6.7699516296e+01   -1.0714093781e+02
    6.7799522400e+01   -1.0720957184e+02
    6.7899513245e+01   -1.0727810669e+02
    6.7999526978e+01   -1.0734647369e+02
    6.8099533081e+01   -1.0741456604e+02
    6.8199516296e+01   -1.0748228455e+02
    6.8299507141e+01   -1.0754953003e+02
    6.8399513245e+01   -1.0761618042e+02
    6.8499496460e+01   -1.0768212891e+02
    6.8599517822e+01   -1.0774725342e+02
    6.8699516296e+01   -1.0781145477e+02
    6.8799499512e+01   -1.0787465668e+02
    6.8899513245e+01   -1.0793681335e+02
    6.8999519348e+01   -1.0799790192e+02
    6.9099510193e+01   -1.0805796814e+02
    6.9199508667e+01   -1.0811705780e+02
    6.9299491882e+01   -1.0817527008e+02
    6.9399497986e+01   -1.0823273468e+02
    6.9499496460e+01   -1.0828958893e+02
    6.9599502563e+01   -1.0834595490e+02
    6.9699493408e+01   -1.0840199280e+02
    6.9799476624e+01   -1.0845784760e+02
    6.9899490356e+01   -1.0851366425e+02
    6.9999473572e+01   -1.0856960297e+02
    7.0099472046e+01   -1.0862582397e+02
    7.0199470520e+01   -1.0868247223e+02
    7.0299468994e+01   -1.0873970032e+02
    7.0399482727e+01   -1.0879763031e+02
    7.0499488831e+01   -1.0885639954e+02
    7.0599456787e+01   -1.0891608429e+02
    7.0699462891e+01   -1.0897675323e+02
    7.0799476624e+01   -1.0903842926e+02
    7.0899459839e+01   -1.0910111237e+02
    7.0999481201e+01   -1.0916474152e+02
    7.1099479675e+01   -1.0922924042e+02
    7.1199462891e+01   -1.0929452515e+02
    7.1299468994e+01   -1.0936048126e+02
    7.1399482727e+01   -1.0942700958e+02
    7.1499450684e+01   -1.0949399567e+02
    7.1599472046e+01   -1.0956135559e+02
    7.1699470520e+01   -1.0962899780e+02
    7.1799453735e+01   -1.0969683838e+02
    7.1899452209e+01   -1.0976481628e+02
    7.1999450684e+01   -1.0983286285e+02
    7.2099472046e+01   -1.0990093231e+02
    7.2199440002e+01   -1.0996899414e+02
    7.2299453735e+01   -1.1003700256e+02
    7.2399452209e+01   -1.1010494232e+02
    7.2499450684e+01   -1.1017279816e+02
    7.2599426270e+01   -1.1024057007e+02
    7.2699462891e+01   -1.1030825043e+02
    7.2799438477e+01   -1.1037584686e+02
    7.2899436951e+01   -1.1044336700e+02
    7.2999427795e+01   -1.1051082611e+02
    7.3099426270e+01   -1.1057821655e+02
    7.3199440002e+01   -1.1064555359e+02
    7.3299453735e+01   -1.1071284485e+02
    7.3399436951e+01   -1.1078009796e+02
    7.3499420166e+01   -1.1084730530e+02
    7.3599426270e+01   -1.1091448212e+02
    7.3699440002e+01   -1.1098161316e+02
    7.3799438477e+01   -1.1104870605e+02
    7.3899429321e+01   -1.1111574554e+02
    7.3999420166e+01   -1.1118273163e+02
    7.4099411011e+01   -1.1124964142e+02
    7.4199409485e+01   -1.1131648254e+02
    7.4299423218e+01   -1.1138323212e+02
    7.4399429321e+01   -1.1144989014e+02
    7.4499427795e+01   -1.1151643372e+02
    7.4599403381e+01   -1.1158287048e+02
    7.4699417114e+01   -1.1164917755e+02
    7.4799423218e+01   -1.1171538544e+02
    7.4899398804e+01   -1.1178149414e+02
    7.4999397278e+01   -1.1184752655e+02
    7.5099411011e+01   -1.1191352081e+02
    7.5199386597e+01   -1.1197951508e+02
    7.5299407959e+01   -1.1204556274e+02
    7.5399406433e+01   -1.1211173248e+02
    7.5499397278e+01   -1.1217810059e+02
    7.5599388123e+01   -1.1224475098e+02
    7.5699401855e+01   -1.1231176758e+02
    7.5799400330e+01   -1.1237924957e+02
    7.5899383545e+01   -1.1244729614e+02
    7.5999397278e+01   -1.1251600647e+02
    7.6099403381e+01   -1.1258548737e+02
    7.6199386597e+01   -1.1265581512e+02
    7.6299392700e+01   -1.1272705078e+02
    7.6399383545e+01   -1.1279924774e+02
    7.6499397278e+01   -1.1287242889e+02
    7.6599380493e+01   -1.1294658661e+02
    7.6699378967e+01   -1.1302172089e+02
    7.6799369812e+01   -1.1309781647e+02
    7.6899391174e+01   -1.1317488098e+02
    7.6999366760e+01   -1.1325291443e+02
    7.7099380493e+01   -1.1333193207e+02
    7.7199363708e+01   -1.1341194916e+02
    7.7299392700e+01   -1.1349298859e+02
    7.7399360657e+01   -1.1357506561e+02
    7.7499382019e+01   -1.1365819550e+02
    7.7599372864e+01   -1.1374234009e+02
    7.7699371338e+01   -1.1382746887e+02
    7.7799377441e+01   -1.1391349030e+02
    7.7899353027e+01   -1.1400031281e+02
    7.7999366760e+01   -1.1408782959e+02
    7.8099372864e+01   -1.1417594147e+02
    7.8199371338e+01   -1.1426452637e+02
    7.8299369812e+01   -1.1435350037e+02
    7.8399353027e+01   -1.1444276428e+02
    7.8499359131e+01   -1.1453223419e+02
    7.8599342346e+01   -1.1462183380e+02
    7.8699348450e+01   -1.1471150970e+02
    7.8799346924e+01   -1.1480122375e+02
    7.8899353027e+01   -1.1489092255e+02
    7.8999359131e+01   -1.1498059082e+02
    7.9099349976e+01   -1.1507021332e+02
    7.9199333191e+01   -1.1515975952e+02
    7.9299346924e+01   -1.1524923706e+02
    7.9399330139e+01   -1.1533865356e+02
    7.9499336243e+01   -1.1542799377e+02
    7.9599349976e+01   -1.1551728058e+02
    7.9699340820e+01   -1.1560651398e+02
    7.9799346924e+01   -1.1569570923e+02
    7.9899330139e+01   -1.1578485870e+02
    7.9999328613e+01   -1.1587398529e+02
    8.0099342346e+01   -1.1596308136e+02
    8.0199333191e+01   -1.1605215454e+02
    8.0299316406e+01   -1.1614119720e+02
    8.0399322510e+01   -1.1623020935e+02
    8.0499313354e+01   -1.1631919861e+02
    8.0599327087e+01   -1.1640815735e+02
    8.0699333191e+01   -1.1649709320e+02
    8.0799331665e+01   -1.1658599854e+02
    8.0899330139e+01   -1.1667487335e+02
    8.0999313354e+01   -1.1676374054e+02
    8.1099296570e+01   -1.1685259247e+02
    8.1199302673e+01   -1.1694142914e+02
    8.1299316406e+01   -1.1703025055e+02
    8.1399307251e+01   -1.1711907959e+02
    8.1499320984e+01   -1.1720790100e+02
    8.1599296570e+01   -1.1729672241e+02
    8.1699310303e+01   -1.1738555145e+02
    8.1799293518e+01   -1.1747437286e+02
    8.1899307251e+01   -1.1756320953e+02
    8.1999313354e+01   -1.1765204620e+02
    8.2099296570e+01   -1.1774088287e+02
    8.2199302673e+01   -1.1782971954e+02
    8.2299308777e+01   -1.1791855621e+02
    8.2399276733e+01   -1.1800740814e+02
    8.2499298096e+01   -1.1809626007e+02
    8.2599281311e+01   -1.1818511200e+02
    8.2699287415e+01   -1.1827397919e+02
    8.2799278259e+01   -1.1836283875e+02
    8.2899291992e+01   -1.1845170593e+02
    8.2999282837e+01   -1.1854057312e+02
    8.3099288940e+01   -1.1862944031e+02
    8.3199272156e+01   -1.1871829987e+02
    8.3299293518e+01   -1.1880716705e+02
    8.3399291992e+01   -1.1889603424e+02
    8.3499290466e+01   -1.1898489380e+02
    8.3599288940e+01   -1.1907376099e+02
    8.3699256897e+01   -1.1916262817e+02
    8.3799278259e+01   -1.1925148773e+02
    8.3899276733e+01   -1.1934035492e+02
    8.3999259949e+01   -1.1942924500e+02
    8.4099273682e+01   -1.1951818085e+02
    8.4199256897e+01   -1.1960717010e+02
    8.4299263000e+01   -1.1969623566e+02
    8.4399261475e+01   -1.1978543091e+02
    8.4499267578e+01   -1.1987477112e+02
    8.4599258423e+01   -1.1996429443e+02
    8.4699272156e+01   -1.2005403137e+02
    8.4799263000e+01   -1.2014402008e+02
    8.4899269104e+01   -1.2023427582e+02
    8.4999237061e+01   -1.2032482910e+02
    8.5099250793e+01   -1.2041565704e+02
    8.5199241638e+01   -1.2050677490e+02
    8.5299263000e+01   -1.2059817505e+02
    8.5399246216e+01   -1.2068979645e+02
    8.5499237061e+01   -1.2078160095e+02
    8.5599273682e+01   -1.2087349701e+02
    8.5699256897e+01   -1.2096538544e+02
    8.5799263000e+01   -1.2105710602e+02
    8.5899246216e+01   -1.2114847565e+02
    8.5999229431e+01   -1.2123926544e+02
    8.6099227905e+01   -1.2132922363e+02
    8.6199226379e+01   -1.2141806030e+02
    8.6299240112e+01   -1.2150546265e+02
    8.6399246216e+01   -1.2159108734e+02
    8.6499237061e+01   -1.2167460632e+02
    8.6599250793e+01   -1.2175569916e+02
    8.6699218750e+01   -1.2183405304e+02
    8.6799240112e+01   -1.2190943909e+02
    8.6899238586e+01   -1.2198169708e+02
    8.6999221802e+01   -1.2205073547e+02
    8.7099212646e+01   -1.2211652374e+02
    8.7199241638e+01   -1.2217912292e+02
    8.7299217224e+01   -1.2223861694e+02
    8.7399223328e+01   -1.2229515839e+02
    8.7499229431e+01   -1.2234895325e+02
    8.7599227905e+01   -1.2240027618e+02
    8.7699203491e+01   -1.2244942474e+02
    8.7799209595e+01   -1.2249671173e+02
    8.7899208069e+01   -1.2254245758e+02
    8.7999221802e+01   -1.2258696747e+02
    8.8099197388e+01   -1.2263053894e+02
    8.8199211121e+01   -1.2267343140e+02
    8.8299209595e+01   -1.2271583557e+02
    8.8399208069e+01   -1.2275796509e+02
    8.8499206543e+01   -1.2279994965e+02
    8.8599212646e+01   -1.2284191895e+02
    8.8699211121e+01   -1.2288397217e+02
    8.8799186707e+01   -1.2292617798e+02
    8.8899192810e+01   -1.2296857452e+02
    8.8999206543e+01   -1.2301119995e+02
    8.9099189758e+01   -1.2305407715e+02
    8.9199203491e+01   -1.2309719849e+02
    8.9299201965e+01   -1.2314054871e+02
    8.9399192810e+01   -1.2318413544e+02
    8.9499183655e+01   -1.2322793579e+02
    8.9599166870e+01   -1.2327194977e+02
    8.9699180603e+01   -1.2331614685e+02
    8.9799201965e+01   -1.2336052704e+02
    8.9899169922e+01   -1.2340508270e+02
    8.9999191284e+01   -1.2344982910e+02
    9.0099189758e+01   -1.2349476624e+02
    9.0199188232e+01   -1.2353990936e+02
    9.0299179077e+01   -1.2358527374e+02
    9.0399162292e+01   -1.2363088226e+02
    9.0499183655e+01   -1.2367674255e+02
    9.0599182129e+01   -1.2372288513e+02
    9.0699172974e+01   -1.2376931763e+02
    9.0799156189e+01   -1.2381603241e+02
    9.0899177551e+01   -1.2386301422e+02
    9.0999168396e+01   -1.2391025543e+02
    9.1099166870e+01   -1.2395769501e+02
    9.1199157715e+01   -1.2400525665e+02
    9.1299156189e+01   -1.2405282593e+02
    9.1399162292e+01   -1.2410028076e+02
    9.1499153137e+01   -1.2414743805e+02
    9.1599151611e+01   -1.2419406891e+02
    9.1699172974e+01   -1.2423992157e+02
    9.1799148560e+01   -1.2428468323e+02
    9.1899147034e+01   -1.2432801819e+02
    9.1999153137e+01   -1.2436956787e+02
    9.2099151611e+01   -1.2440892792e+02
    9.2199157715e+01   -1.2444572449e+02
    9.2299133301e+01   -1.2447956085e+02
    9.2399139404e+01   -1.2451012421e+02
    9.2499137878e+01   -1.2453713226e+02
    9.2599136353e+01   -1.2456041718e+02
    9.2699142456e+01   -1.2457994843e+02
    9.2799133301e+01   -1.2459581757e+02
    9.2899116516e+01   -1.2460823822e+02
    9.2999153137e+01   -1.2461752319e+02
    9.3099128723e+01   -1.2462401581e+02
    9.3199127197e+01   -1.2462809753e+02
    9.3299140930e+01   -1.2463018036e+02
    9.3399139404e+01   -1.2463061523e+02
    9.3499122620e+01   -1.2462978363e+02
    9.3599128723e+01   -1.2462800598e+02
    9.3699111938e+01   -1.2462555695e+02
    9.3799110413e+01   -1.2462270355e+02
    9.3899116516e+01   -1.2461962891e+02
    9.3999107361e+01   -1.2461649323e+02
    9.4099113464e+01   -1.2461344910e+02
    9.4199111938e+01   -1.2461058044e+02
    9.4299110413e+01   -1.2460794067e+02
    9.4399101257e+01   -1.2460557556e+02
    9.4499122620e+01   -1.2460350037e+02
    9.4599113464e+01   -1.2460170746e+02
    9.4699119568e+01   -1.2460020447e+02
    9.4799118042e+01   -1.2459897614e+02
    9.4899108887e+01   -1.2459800720e+02
    9.4999107361e+01   -1.2459726715e+02
    9.5099113464e+01   -1.2459674835e+02
    9.5199096680e+01   -1.2459642029e+02
    9.5299102783e+01   -1.2459628296e+02
    9.5399108887e+01   -1.2459633636e+02
    9.5499107361e+01   -1.2459658051e+02
    9.5599090576e+01   -1.2459702301e+02
    9.5699089050e+01   -1.2459766388e+02
    9.5799102783e+01   -1.2459852600e+02
    9.5899078369e+01   -1.2459963226e+02
    9.5999092102e+01   -1.2460099792e+02
    9.6099082947e+01   -1.2460265350e+02
    9.6199096680e+01   -1.2460459137e+02
    9.6299072266e+01   -1.2460681915e+02
    9.6399093628e+01   -1.2460933685e+02
    9.6499092102e+01   -1.2461209869e+02
    9.6599082947e+01   -1.2461505127e+02
    9.6699081421e+01   -1.2461812592e+02
    9.6799087524e+01   -1.2462120056e+02
    9.6899070740e+01   -1.2462413788e+02
    9.6999069214e+01   -1.2462674713e+02
    9.7099082947e+01   -1.2462879944e+02
    9.7199073792e+01   -1.2463002777e+02
    9.7299057007e+01   -1.2463013458e+02
    9.7399063110e+01   -1.2462878418e+02
    9.7499046326e+01   -1.2462559509e+02
    9.7599082947e+01   -1.2462020111e+02
    9.7699050903e+01   -1.2461220551e+02
    9.7799072266e+01   -1.2460124207e+02
    9.7899070740e+01   -1.2458700562e+02
    9.7999069214e+01   -1.2456923676e+02
    9.8099060059e+01   -1.2454779053e+02
    9.8199050903e+01   -1.2452265930e+02
    9.8299057007e+01   -1.2449394226e+02
    9.8399047852e+01   -1.2446186829e+02
    9.8499046326e+01   -1.2442672729e+02
    9.8599037170e+01   -1.2438887787e+02
    9.8699058533e+01   -1.2434870911e+02
    9.8799026489e+01   -1.2430660248e+02
    9.8899063110e+01   -1.2426293945e+02
    9.8999038696e+01   -1.2421805573e+02
    9.9099037170e+01   -1.2417227173e+02
    9.9199050903e+01   -1.2412586975e+02
    9.9299049377e+01   -1.2407910156e+02
    9.9399047852e+01   -1.2403215027e+02
    9.9499031067e+01   -1.2398519135e+02
    9.9599029541e+01   -1.2393833923e+02
    9.9699043274e+01   -1.2389169312e+02
    9.9799018860e+01   -1.2384532166e+02
    9.9899017334e+01   -1.2379926300e+02
    9.9999038696e+01   -1.2375353241e+02
    1.0009899902e+02   -1.2370812988e+02
    1.0019899750e+02   -1.2366304016e+02
    1.0029900360e+02   -1.2361824799e+02
    1.0039900208e+02   -1.2357373810e+02
    1.0049900055e+02   -1.2352945709e+02
    1.0059899902e+02   -1.2348537445e+02
    1.0069899750e+02   -1.2344145966e+02
    1.0079900360e+02   -1.2339768982e+02
    1.0089900208e+02   -1.2335400391e+02
    1.0099900055e+02   -1.2331039429e+02
    1.0109899902e+02   -1.2326682281e+02
    1.0119899750e+02   -1.2322326660e+02
    1.0129900360e+02   -1.2317971039e+02
    1.0139900208e+02   -1.2313612366e+02
    1.0149900055e+02   -1.2309249878e+02
    1.0159899902e+02   -1.2304882812e+02
    1.0169899750e+02   -1.2300511932e+02
    1.0179900360e+02   -1.2296137238e+02
    1.0189900208e+02   -1.2291757965e+02
    1.0199900055e+02   -1.2287374878e+02
    1.0209899902e+02   -1.2282989502e+02
    1.0219899750e+02   -1.2278600311e+02
    1.0229900360e+02   -1.2274210358e+02
    1.0239900208e+02   -1.2269819641e+02
    1.0249900055e+02   -1.2265426636e+02
    1.0259899902e+02   -1.2261034393e+02
    1.0269899750e+02   -1.2256641388e+02
    1.0279900360e+02   -1.2252249908e+02
    1.0289900208e+02   -1.2247859955e+02
    1.0299900055e+02   -1.2243471527e+02
    1.0309899902e+02   -1.2239084625e+02
    1.0319899750e+02   -1.2234698486e+02
    1.0329900360e+02   -1.2230313873e+02
    1.0339900208e+02   -1.2225930786e+02
    1.0349900055e+02   -1.2221549225e+02
    1.0359899902e+02   -1.2217167664e+02
    1.0369899750e+02   -1.2212786102e+02
    1.0379900360e+02   -1.2208403778e+02
    1.0389900208e+02   -1.2204022217e+02
    1.0399900055e+02   -1.2199639130e+02
    1.0409899902e+02   -1.2195254517e+02
    1.0419899750e+02   -1.2190869141e+02
    1.0429900360e+02   -1.2186481476e+02
    1.0439900208e+02   -1.2182093048e+02
    1.0449900055e+02   -1.2177703094e+02
    1.0459899902e+02   -1.2173313141e+02
    1.0469899750e+02   -1.2168923187e+02
    1.0479900360e+02   -1.2164533234e+02
    1.0489890289e+02   -1.2160143280e+02
    1.0499890137e+02   -1.2155754852e+02
    1.0509889984e+02   -1.2151367950e+02
    1.0519899750e+02   -1.2146981812e+02
    1.0529900360e+02   -1.2142597198e+02
    1.0539890289e+02   -1.2138214111e+02
    1.0549890137e+02   -1.2133832550e+02
    1.0559889984e+02   -1.2129450989e+02
    1.0569889832e+02   -1.2125068665e+02
    1.0579889679e+02   -1.2120687103e+02
    1.0589890289e+02   -1.2116305542e+02
    1.0599900055e+02   -1.2111923981e+02
    1.0609889984e+02   -1.2107541656e+02
    1.0619889832e+02   -1.2103160095e+02
    1.0629889679e+02   -1.2098778534e+02
    1.0639890289e+02   -1.2094398499e+02
    1.0649890137e+02   -1.2090019226e+02
    1.0659889984e+02   -1.2085641479e+02
    1.0669889832e+02   -1.2081265259e+02
    1.0679889679e+02   -1.2076890564e+02
    1.0689890289e+02   -1.2072518158e+02
    1.0699890137e+02   -1.2068147278e+02
    1.0709889984e+02   -1.2063777924e+02
    1.0719889832e+02   -1.2059410095e+02
    1.0729889679e+02   -1.2055043030e+02
    1.0739890289e+02   -1.2050677490e+02
    1.0749890137e+02   -1.2046313477e+02
    1.0759889984e+02   -1.2041950226e+02
    1.0769889832e+02   -1.2037586212e+02
    1.0779889679e+02   -1.2033222198e+02
    1.0789890289e+02   -1.2028858185e+02
    1.0799890137e+02   -1.2024494171e+02
    1.0809889984e+02   -1.2020130157e+02
    1.0819889832e+02   -1.2015767670e+02
    1.0829889679e+02   -1.2011405945e+02
    1.0839890289e+02   -1.2007046509e+02
    1.0849890137e+02   -1.2002687836e+02
    1.0859889984e+02   -1.1998330688e+02
    1.0869889832e+02   -1.1993973541e+02
    1.0879889679e+02   -1.1989616394e+02
    1.0889890289e+02   -1.1985259247e+02
    1.0899890137e+02   -1.1980902100e+02
    1.0909889984e+02   -1.1976544952e+02
    1.0919889832e+02   -1.1972186279e+02
    1.0929889679e+02   -1.1967826843e+02
    1.0939890289e+02   -1.1963465118e+02
    1.0949890137e+02   -1.1959102631e+02
    1.0959889984e+02   -1.1954738617e+02
    1.0969889832e+02   -1.1950373077e+02
    1.0979889679e+02   -1.1946006775e+02
    1.0989890289e+02   -1.1941637421e+02
    1.0999890137e+02   -1.1937265015e+02
    1.1009889984e+02   -1.1932891846e+02
    1.1019889832e+02   -1.1928517914e+02
    1.1029889679e+02   -1.1924146271e+02
    1.1039890289e+02   -1.1919776154e+02
    1.1049890137e+02   -1.1915412140e+02
    1.1059889984e+02   -1.1911056519e+02
    1.1069889832e+02   -1.1906711578e+02
    1.1079889679e+02   -1.1902380371e+02
    1.1089890289e+02   -1.1898067474e+02
    1.1099890137e+02   -1.1893774414e+02
    1.1109889984e+02   -1.1889505768e+02
    1.1119889832e+02   -1.1885263824e+02
    1.1129889679e+02   -1.1881050110e+02
    1.1139880371e+02   -1.1876865387e+02
    1.1149890137e+02   -1.1872707367e+02
    1.1159889984e+02   -1.1868574524e+02
    1.1169879913e+02   -1.1864462280e+02
    1.1179879761e+02   -1.1860362244e+02
    1.1189880371e+02   -1.1856264496e+02
    1.1199880219e+02   -1.1852157593e+02
    1.1209889984e+02   -1.1848023224e+02
    1.1219879913e+02   -1.1843842316e+02
    1.1229889679e+02   -1.1839591980e+02
    1.1239880371e+02   -1.1835245514e+02
    1.1249880219e+02   -1.1830774689e+02
    1.1259880066e+02   -1.1826148224e+02
    1.1269879913e+02   -1.1821334839e+02
    1.1279879761e+02   -1.1816300964e+02
    1.1289880371e+02   -1.1811017609e+02
    1.1299880219e+02   -1.1805456543e+02
    1.1309880066e+02   -1.1799595642e+02
    1.1319879913e+02   -1.1793419647e+02
    1.1329879761e+02   -1.1786919403e+02
    1.1339880371e+02   -1.1780092621e+02
    1.1349880219e+02   -1.1772944641e+02
    1.1359880066e+02   -1.1765489197e+02
    1.1369879913e+02   -1.1757746124e+02
    1.1379879761e+02   -1.1749745941e+02
    1.1389880371e+02   -1.1741516876e+02
    1.1399880219e+02   -1.1733093262e+02
    1.1409880066e+02   -1.1724510193e+02
    1.1419879913e+02   -1.1715800476e+02
    1.1429879761e+02   -1.1706993103e+02
    1.1439880371e+02   -1.1698117065e+02
    1.1449880219e+02   -1.1689196777e+02
    1.1459880066e+02   -1.1680252838e+02
    1.1469879913e+02   -1.1671303558e+02
    1.1479879761e+02   -1.1662362671e+02
    1.1489880371e+02   -1.1653441620e+02
    1.1499880219e+02   -1.1644551086e+02
    1.1509880066e+02   -1.1635695648e+02
    1.1519879913e+02   -1.1626880646e+02
    1.1529879761e+02   -1.1618107605e+02
    1.1539880371e+02   -1.1609376526e+02
    1.1549880219e+02   -1.1600685883e+02
    1.1559880066e+02   -1.1592031860e+02
    1.1569879913e+02   -1.1583409119e+02
    1.1579879761e+02   -1.1574809265e+02
    1.1589880371e+02   -1.1566225433e+02
    1.1599880219e+02   -1.1557646179e+02
    1.1609880066e+02   -1.1549061584e+02
    1.1619879913e+02   -1.1540457916e+02
    1.1629879761e+02   -1.1531820679e+02
    1.1639880371e+02   -1.1523132324e+02
    1.1649880219e+02   -1.1514375305e+02
    1.1659880066e+02   -1.1505531311e+02
    1.1669879913e+02   -1.1496580505e+02
    1.1679879761e+02   -1.1487503815e+02
    1.1689880371e+02   -1.1478285217e+02
    1.1699880219e+02   -1.1468909454e+02
    1.1709880066e+02   -1.1459365082e+02
    1.1719879913e+02   -1.1449645233e+02
    1.1729879761e+02   -1.1439747620e+02
    1.1739880371e+02   -1.1429677582e+02
    1.1749880219e+02   -1.1419441986e+02
    1.1759880066e+02   -1.1409050751e+02
    1.1769869995e+02   -1.1398514557e+02
    1.1779879761e+02   -1.1387841034e+02
    1.1789880371e+02   -1.1377037811e+02
    1.1799870300e+02   -1.1366111755e+02
    1.1809880066e+02   -1.1355063629e+02
    1.1819879913e+02   -1.1343893433e+02
    1.1829879761e+02   -1.1332598114e+02
    1.1839869690e+02   -1.1321173859e+02
    1.1849870300e+02   -1.1309614563e+02
    1.1859870148e+02   -1.1297915649e+02
    1.1869869995e+02   -1.1286071014e+02
    1.1879869843e+02   -1.1274079132e+02
    1.1889869690e+02   -1.1261936951e+02
    1.1899870300e+02   -1.1249645996e+02
    1.1909870148e+02   -1.1237208557e+02
    1.1919869995e+02   -1.1224629974e+02
    1.1929869843e+02   -1.1211914825e+02
    1.1939869690e+02   -1.1199069977e+02
    1.1949870300e+02   -1.1186099243e+02
    1.1959870148e+02   -1.1173004150e+02
    1.1969869995e+02   -1.1159786224e+02
    1.1979869843e+02   -1.1146441650e+02
    1.1989869690e+02   -1.1132968140e+02
    1.1999870300e+02   -1.1119359589e+02
    1.2009870148e+02   -1.1105611420e+02
    1.2019869995e+02   -1.1091719055e+02
    1.2029869843e+02   -1.1077677155e+02
    1.2039869690e+02   -1.1063482666e+02
    1.2049870300e+02   -1.1049134064e+02
    1.2059870148e+02   -1.1034631348e+02
    1.2069869995e+02   -1.1019974518e+02
    1.2079869843e+02   -1.1005167389e+02
    1.2089869690e+02   -1.0990213776e+02
    1.2099870300e+02   -1.0975118256e+02
    1.2109870148e+02   -1.0959883881e+02
    1.2119869995e+02   -1.0944512939e+02
    1.2129869843e+02   -1.0929005432e+02
    1.2139869690e+02   -1.0913359833e+02
    1.2149870300e+02   -1.0897573853e+02
    1.2159870148e+02   -1.0881645203e+02
    1.2169869995e+02   -1.0865571594e+02
    1.2179869843e+02   -1.0849351501e+02
    1.2189869690e+02   -1.0832982635e+02
    1.2199870300e+02   -1.0816463470e+02
    1.2209870148e+02   -1.0799794006e+02
    1.2219869995e+02   -1.0782975006e+02
    1.2229869843e+02   -1.0766007996e+02
    1.2239869690e+02   -1.0748894501e+02
    1.2249870300e+02   -1.0731640625e+02
    1.2259870148e+02   -1.0714247894e+02
    1.2269869995e+02   -1.0696720886e+02
    1.2279869843e+02   -1.0679058838e+02
    1.2289869690e+02   -1.0661262512e+02
    1.2299870300e+02   -1.0643331146e+02
    1.2309870148e+02   -1.0625263214e+02
    1.2319869995e+02   -1.0607056427e+02
    1.2329869843e+02   -1.0588708496e+02
    1.2339869690e+02   -1.0570218658e+02
    1.2349870300e+02   -1.0551585388e+02
    1.2359870148e+02   -1.0532807922e+02
    1.2369869995e+02   -1.0513885498e+02
    1.2379869843e+02   -1.0494818115e+02
    1.2389869690e+02   -1.0475606537e+02
    1.2399870300e+02   -1.0456253052e+02
    1.2409860229e+02   -1.0436760712e+02
    1.2419869995e+02   -1.0417133331e+02
    1.2429869843e+02   -1.0397373962e+02
    1.2439869690e+02   -1.0377484894e+02
    1.2449859619e+02   -1.0357469177e+02
    1.2459860229e+02   -1.0337326813e+02
    1.2469869995e+02   -1.0317058563e+02
    1.2479869843e+02   -1.0296663666e+02
    1.2489869690e+02   -1.0276142120e+02
    1.2499859619e+02   -1.0255493927e+02
    1.2509860229e+02   -1.0234720612e+02
    1.2519860077e+02   -1.0213821411e+02
    1.2529859924e+02   -1.0192796326e+02
    1.2539869690e+02   -1.0171644592e+02
    1.2549859619e+02   -1.0150365448e+02
    1.2559860229e+02   -1.0128957367e+02
    1.2569860077e+02   -1.0107419586e+02
    1.2579859924e+02   -1.0085752869e+02
    1.2589859772e+02   -1.0063958740e+02
    1.2599859619e+02   -1.0042038727e+02
    1.2609860229e+02   -1.0019998169e+02
    1.2619860077e+02   -9.9978401184e+01
    1.2629859924e+02   -9.9755683899e+01
    1.2639859772e+02   -9.9531883240e+01
    1.2649859619e+02   -9.9307044983e+01
    1.2659860229e+02   -9.9081214905e+01
    1.2669860077e+02   -9.8854461670e+01
    1.2679859924e+02   -9.8626846313e+01
    1.2689859772e+02   -9.8398429871e+01
    1.2699859619e+02   -9.8169273376e+01
    1.2709860229e+02   -9.7939399719e+01
    1.2719860077e+02   -9.7708839417e+01
    1.2729859924e+02   -9.7477584839e+01
    1.2739859772e+02   -9.7245605469e+01
    1.2749859619e+02   -9.7012855530e+01
    1.2759860229e+02   -9.6779273987e+01
    1.2769860077e+02   -9.6544792175e+01
    1.2779859924e+02   -9.6309326172e+01
    1.2789859772e+02   -9.6072807312e+01
    1.2799859619e+02   -9.5835174561e+01
    1.2809860229e+02   -9.5596405029e+01
    1.2819859314e+02   -9.5356468201e+01
    1.2829859924e+02   -9.5115356445e+01
    1.2839860535e+02   -9.4873077393e+01
    1.2849859619e+02   -9.4629631042e+01
    1.2859860229e+02   -9.4385047913e+01
    1.2869859314e+02   -9.4139358521e+01
    1.2879859924e+02   -9.3892608643e+01
    1.2889869690e+02   -9.3644859314e+01
    1.2899859619e+02   -9.3396202087e+01
    1.2909869385e+02   -9.3146743774e+01
    1.2919869995e+02   -9.2896591187e+01
    1.2929870605e+02   -9.2645866394e+01
    1.2939869690e+02   -9.2394676208e+01
    1.2949870300e+02   -9.2143150330e+01
    1.2959869385e+02   -9.1891387939e+01
    1.2969869995e+02   -9.1639488220e+01
    1.2979870605e+02   -9.1387542725e+01
    1.2989869690e+02   -9.1135643005e+01
    1.2999870300e+02   -9.0883850098e+01
    1.3009869385e+02   -9.0632217407e+01
    1.3019869995e+02   -9.0380790710e+01
    1.3029870605e+02   -9.0129570007e+01
    1.3039869690e+02   -8.9878555298e+01
    1.3049870300e+02   -8.9627723694e+01
    1.3059869385e+02   -8.9377029419e+01
    1.3069869995e+02   -8.9126419067e+01
    1.3079879761e+02   -8.8875816345e+01
    1.3089880371e+02   -8.8625129700e+01
    1.3099879456e+02   -8.8374237061e+01
    1.3109880066e+02   -8.8123039246e+01
    1.3119880676e+02   -8.7871406555e+01
    1.3129879761e+02   -8.7619224548e+01
    1.3139880371e+02   -8.7366371155e+01
    1.3149879456e+02   -8.7112739563e+01
    1.3159880066e+02   -8.6858253479e+01
    1.3169880676e+02   -8.6602836609e+01
    1.3179879761e+02   -8.6346488953e+01
    1.3189880371e+02   -8.6089225769e+01
    1.3199879456e+02   -8.5831115723e+01
    1.3209880066e+02   -8.5572257996e+01
    1.3219880676e+02   -8.5312774658e+01
    1.3229879761e+02   -8.5052795410e+01
    1.3239880371e+02   -8.4792465210e+01
    1.3249890137e+02   -8.4531944275e+01
    1.3259890747e+02   -8.4271392822e+01
    1.3269889832e+02   -8.4010971069e+01
    1.3279890442e+02   -8.3750831604e+01
    1.3289889526e+02   -8.3491142273e+01
    1.3299890137e+02   -8.3232032776e+01
    1.3309890747e+02   -8.2973655701e+01
    1.3319889832e+02   -8.2716110229e+01
    1.3329890442e+02   -8.2459510803e+01
    1.3339889526e+02   -8.2203910828e+01
    1.3349890137e+02   -8.1949340820e+01
    1.3359890747e+02   -8.1695793152e+01
    1.3369889832e+02   -8.1443214417e+01
    1.3379890442e+02   -8.1191528320e+01
    1.3389900208e+02   -8.0940635681e+01
    1.3399890137e+02   -8.0690444946e+01
    1.3409899902e+02   -8.0440841675e+01
    1.3419900513e+02   -8.0191734314e+01
    1.3429899597e+02   -7.9943023682e+01
    1.3439900208e+02   -7.9694618225e+01
    1.3449899292e+02   -7.9446441650e+01
    1.3459899902e+02   -7.9198417664e+01
    1.3469900513e+02   -7.8950485229e+01
    1.3479899597e+02   -7.8702598572e+01
    1.3489900208e+02   -7.8454719543e+01
    1.3499899292e+02   -7.8206825256e+01
    1.3509899902e+02   -7.7958885193e+01
    1.3519900513e+02   -7.7710891724e+01
    1.3529899597e+02   -7.7462837219e+01
    1.3539900208e+02   -7.7214714050e+01
    1.3549899292e+02   -7.6966514587e+01
    1.3559910583e+02   -7.6718246460e+01
    1.3569909668e+02   -7.6469894409e+01
    1.3579910278e+02   -7.6221466064e+01
    1.3589909363e+02   -7.5972953796e+01
    1.3599909973e+02   -7.5724357605e+01
    1.3609910583e+02   -7.5475685120e+01
    1.3619909668e+02   -7.5226943970e+01
    1.3629910278e+02   -7.4978126526e+01
    1.3639909363e+02   -7.4729255676e+01
    1.3649909973e+02   -7.4480323792e+01
    1.3659910583e+02   -7.4231353760e+01
    1.3669909668e+02   -7.3982360840e+01
    1.3679910278e+02   -7.3733375549e+01
    1.3689909363e+02   -7.3484443665e+01
    1.3699909973e+02   -7.3235603333e+01
    1.3709919739e+02   -7.2986915588e+01
    1.3719909668e+02   -7.2738456726e+01
    1.3729919434e+02   -7.2490310669e+01
    1.3739920044e+02   -7.2242546082e+01
    1.3749920654e+02   -7.1995269775e+01
    1.3759919739e+02   -7.1748573303e+01
    1.3769920349e+02   -7.1502532959e+01
    1.3779919434e+02   -7.1257240295e+01
    1.3789920044e+02   -7.1012748718e+01
    1.3799920654e+02   -7.0769111633e+01
    1.3809919739e+02   -7.0526329041e+01
    1.3819920349e+02   -7.0284408569e+01
    1.3829919434e+02   -7.0043304443e+01
    1.3839920044e+02   -6.9802986145e+01
    1.3849920654e+02   -6.9563415527e+01
    1.3859919739e+02   -6.9324569702e+01
    1.3869920349e+02   -6.9086441040e+01
    1.3879919434e+02   -6.8849014282e+01
    1.3889920044e+02   -6.8612297058e+01
    1.3899929810e+02   -6.8376335144e+01
    1.3909930420e+02   -6.8141143799e+01
    1.3919929504e+02   -6.7906784058e+01
    1.3929930115e+02   -6.7673271179e+01
    1.3939930725e+02   -6.7440635681e+01
    1.3949929810e+02   -6.7208900452e+01
    1.3959930420e+02   -6.6978042603e+01
    1.3969929504e+02   -6.6748001099e+01
    1.3979930115e+02   -6.6518730164e+01
    1.3989930725e+02   -6.6290122986e+01
    1.3999929810e+02   -6.6062080383e+01
    1.4009930420e+02   -6.5834510803e+01
    1.4019929504e+02   -6.5607299805e+01
    1.4029930115e+02   -6.5380348206e+01
    1.4039930725e+02   -6.5153594971e+01
    1.4049940491e+02   -6.4926956177e+01
    1.4059930420e+02   -6.4700386047e+01
    1.4069940186e+02   -6.4473854065e+01
    1.4079939270e+02   -6.4247329712e+01
    1.4089939880e+02   -6.4020828247e+01
    1.4099940491e+02   -6.3794368744e+01
    1.4109939575e+02   -6.3567996979e+01
    1.4119940186e+02   -6.3341770172e+01
    1.4129939270e+02   -6.3115768433e+01
    1.4139939880e+02   -6.2890079498e+01
    1.4149940491e+02   -6.2664802551e+01
    1.4159939575e+02   -6.2440021515e+01
    1.4169940186e+02   -6.2215835571e+01
    1.4179939270e+02   -6.1992328644e+01
    1.4189939880e+02   -6.1769573212e+01
    1.4199949646e+02   -6.1547615051e+01
    1.4209950256e+02   -6.1326477051e+01
    1.4219940186e+02   -6.1106159210e+01
    1.4229949951e+02   -6.0886642456e+01
    1.4239950562e+02   -6.0667892456e+01
    1.4249949646e+02   -6.0449871063e+01
    1.4259950256e+02   -6.0232551575e+01
    1.4269949341e+02   -6.0015918732e+01
    1.4279949951e+02   -5.9799957275e+01
    1.4289950562e+02   -5.9584659576e+01
    1.4299949646e+02   -5.9370052338e+01
    1.4309950256e+02   -5.9156135559e+01
    1.4319949341e+02   -5.8942939758e+01
    1.4329949951e+02   -5.8730480194e+01
    1.4339950562e+02   -5.8518775940e+01
    1.4349949646e+02   -5.8307815552e+01
    1.4359950256e+02   -5.8097576141e+01
    1.4369949341e+02   -5.7888023376e+01
    1.4379960632e+02   -5.7679103851e+01
    1.4389959717e+02   -5.7470779419e+01
    1.4399960327e+02   -5.7263015747e+01
    1.4409959412e+02   -5.7055797577e+01
    1.4419960022e+02   -5.6849121094e+01
    1.4429960632e+02   -5.6643016815e+01
    1.4439959717e+02   -5.6437496185e+01
    1.4449960327e+02   -5.6232589722e+01
    1.4459959412e+02   -5.6028301239e+01
    1.4469960022e+02   -5.5824626923e+01
    1.4479960632e+02   -5.5621547699e+01
    1.4489959717e+02   -5.5419029236e+01
    1.4499960327e+02   -5.5217029572e+01
    1.4509970093e+02   -5.5015506744e+01
    1.4519960022e+02   -5.4814418793e+01
    1.4529969788e+02   -5.4613739014e+01
    1.4539959717e+02   -5.4413448334e+01
    1.4549969482e+02   -5.4213539124e+01
    1.4559970093e+02   -5.4014022827e+01
    1.4569970703e+02   -5.3814929962e+01
    1.4579969788e+02   -5.3616294861e+01
    1.4589970398e+02   -5.3418174744e+01
    1.4599969482e+02   -5.3220626831e+01
    1.4609970093e+02   -5.3023715973e+01
    1.4619970703e+02   -5.2827499390e+01
    1.4629969788e+02   -5.2632030487e+01
    1.4639970398e+02   -5.2437339783e+01
    1.4649969482e+02   -5.2243431091e+01
    1.4659970093e+02   -5.2050292969e+01
    1.4669970703e+02   -5.1857883453e+01
    1.4679969788e+02   -5.1666156769e+01
    1.4689970398e+02   -5.1475055695e+01
    1.4699969482e+02   -5.1284534454e+01
    1.4709970093e+02   -5.1094543457e+01
    1.4719979858e+02   -5.0905056000e+01
    1.4729980469e+02   -5.0716056824e+01
    1.4739979553e+02   -5.0527538300e+01
    1.4749980164e+02   -5.0339523315e+01
    1.4759979248e+02   -5.0152042389e+01
    1.4769979858e+02   -4.9965137482e+01
    1.4779980469e+02   -4.9778865814e+01
    1.4789979553e+02   -4.9593280792e+01
    1.4799980164e+02   -4.9408435822e+01
    1.4809979248e+02   -4.9224369049e+01
    1.4819979858e+02   -4.9041099548e+01
    1.4829980469e+02   -4.8858623505e+01
    1.4839979553e+02   -4.8676918030e+01
    1.4849980164e+02   -4.8495937347e+01
    1.4859979248e+02   -4.8315643311e+01
    1.4869990540e+02   -4.8135990143e+01
    1.4879989624e+02   -4.7956939697e+01
    1.4889990234e+02   -4.7778472900e+01
    1.4899989319e+02   -4.7600578308e+01
    1.4909989929e+02   -4.7423267365e+01
    1.4919990540e+02   -4.7246555328e+01
    1.4929989624e+02   -4.7070476532e+01
    1.4939990234e+02   -4.6895069122e+01
    1.4949989319e+02   -4.6720378876e+01
    1.4959989929e+02   -4.6546451569e+01
    1.4969990540e+02   -4.6373306274e+01
    1.4979989624e+02   -4.6200954437e+01
    1.4989990234e+02   -4.6029376984e+01
    1.4999989319e+02   -4.5858531952e+01
    1.5009989929e+02   -4.5688354492e+01
    1.5019999695e+02   -4.5518768311e+01
    1.5029989624e+02   -4.5349689484e+01
    1.5039999390e+02   -4.5181041718e+01
    1.5050000000e+02   -4.5012748718e+01
    1.5060000610e+02   -4.4844749451e+01
    1.5069999695e+02   -4.4677001953e+01
    1.5080000305e+02   -4.4509471893e+01
    1.5089999390e+02   -4.4342147827e+01
    1.5100000000e+02   -4.4175041199e+01
    1.5110000610e+02   -4.4008174896e+01
    1.5119999695e+02   -4.3841590881e+01
    1.5130000305e+02   -4.3675354004e+01
    1.5139999390e+02   -4.3509529114e+01
    1.5150000000e+02   -4.3344203949e+01
    1.5160000610e+02   -4.3179454803e+01
    1.5169999695e+02   -4.3015361786e+01
    1.5180000305e+02   -4.2851993561e+01
    1.5189999390e+02   -4.2689399719e+01
    1.5200010681e+02   -4.2527606964e+01
    1.5210009766e+02   -4.2366603851e+01
    1.5220010376e+02   -4.2206367493e+01
    1.5230009460e+02   -4.2046833038e+01
    1.5240010071e+02   -4.1887924194e+01
    1.5250010681e+02   -4.1729560852e+01
    1.5260009766e+02   -4.1571655273e+01
    1.5270010376e+02   -4.1414123535e+01
    1.5280009460e+02   -4.1256885529e+01
    1.5290010071e+02   -4.1099872589e+01
    1.5300010681e+02   -4.0943031311e+01
    1.5310009766e+02   -4.0786331177e+01
    1.5320010376e+02   -4.0629741669e+01
    1.5330009460e+02   -4.0473270416e+01
    1.5340010071e+02   -4.0316921234e+01
    1.5350019836e+02   -4.0160736084e+01
    1.5360020447e+02   -4.0004756927e+01
    1.5370010376e+02   -3.9849048615e+01
    1.5380020142e+02   -3.9693687439e+01
    1.5390020752e+02   -3.9538745880e+01
    1.5400019836e+02   -3.9384319305e+01
    1.5410020447e+02   -3.9230487823e+01
    1.5420019531e+02   -3.9077323914e+01
    1.5430020142e+02   -3.8924888611e+01
    1.5440020752e+02   -3.8773223877e+01
    1.5450019836e+02   -3.8622344971e+01
    1.5460020447e+02   -3.8472244263e+01
    1.5470019531e+02   -3.8322902679e+01
    1.5480020142e+02   -3.8174266815e+01
    1.5490020752e+02   -3.8026271820e+01
    1.5500019836e+02   -3.7878833771e+01
    1.5510029602e+02   -3.7731872559e+01
    1.5520030212e+02   -3.7585289001e+01
    1.5530029297e+02   -3.7439006805e+01
    1.5540029907e+02   -3.7292949677e+01
    1.5550030518e+02   -3.7147045135e+01
    1.5560029602e+02   -3.7001243591e+01
    1.5570030212e+02   -3.6855499268e+01
    1.5580029297e+02   -3.6709789276e+01
    1.5590029907e+02   -3.6564102173e+01
    1.5600030518e+02   -3.6418441772e+01
    1.5610029602e+02   -3.6272830963e+01
    1.5620030212e+02   -3.6127300262e+01
    1.5630029297e+02   -3.5981899261e+01
    1.5640029907e+02   -3.5836681366e+01
    1.5650030518e+02   -3.5691715240e+01
    1.5660040283e+02   -3.5547077179e+01
    1.5670030212e+02   -3.5402847290e+01
    1.5680039978e+02   -3.5259105682e+01
    1.5690029907e+02   -3.5115924835e+01
    1.5700039673e+02   -3.4973361969e+01
    1.5710040283e+02   -3.4831462860e+01
    1.5720039368e+02   -3.4690265656e+01
    1.5730039978e+02   -3.4549789429e+01
    1.5740040588e+02   -3.4410041809e+01
    1.5750039673e+02   -3.4271022797e+01
    1.5760040283e+02   -3.4132709503e+01
    1.5770039368e+02   -3.3995071411e+01
    1.5780039978e+02   -3.3858058929e+01
    1.5790040588e+02   -3.3721611023e+01
    1.5800039673e+02   -3.3585647583e+01
    1.5810040283e+02   -3.3450096130e+01
    1.5820039368e+02   -3.3314872742e+01
    1.5830039978e+02   -3.3179908752e+01
    1.5840049744e+02   -3.3045131683e+01
    1.5850039673e+02   -3.2910480499e+01
    1.5860049438e+02   -3.2775901794e+01
    1.5870050049e+02   -3.2641342163e+01
    1.5880050659e+02   -3.2506771088e+01
    1.5890049744e+02   -3.2372154236e+01
    1.5900050354e+02   -3.2237472534e+01
    1.5910049438e+02   -3.2102714539e+01
    1.5920050049e+02   -3.1967868805e+01
    1.5930050659e+02   -3.1832939148e+01
    1.5940049744e+02   -3.1697929382e+01
    1.5950050354e+02   -3.1562854767e+01
    1.5960049438e+02   -3.1427740097e+01
    1.5970050049e+02   -3.1292612076e+01
    1.5980050659e+02   -3.1157503128e+01
    1.5990049744e+02   -3.1022457123e+01
    1.6000050354e+02   -3.0887512207e+01
    1.6010060120e+02   -3.0752717972e+01
    1.6020050049e+02   -3.0618125916e+01
    1.6030059814e+02   -3.0483787537e+01
    1.6040060425e+02   -3.0349752426e+01
    1.6050059509e+02   -3.0216068268e+01
    1.6060060120e+02   -3.0082778931e+01
    1.6070060730e+02   -2.9949914932e+01
    1.6080059814e+02   -2.9817495346e+01
    1.6090060425e+02   -2.9685523987e+01
    1.6100059509e+02   -2.9553989410e+01
    1.6110060120e+02   -2.9422872543e+01
    1.6120060730e+02   -2.9292148590e+01
    1.6130059814e+02   -2.9161788940e+01
    1.6140060425e+02   -2.9031768799e+01
    1.6150059509e+02   -2.8902063370e+01
    1.6160060120e+02   -2.8772649765e+01
    1.6170069885e+02   -2.8643512726e+01
    1.6180070496e+02   -2.8514636993e+01
    1.6190069580e+02   -2.8386011124e+01
    1.6200070190e+02   -2.8257623672e+01
    1.6210069275e+02   -2.8129463196e+01
    1.6220069885e+02   -2.8001518250e+01
    1.6230070496e+02   -2.7873771667e+01
    1.6240069580e+02   -2.7746202469e+01
    1.6250070190e+02   -2.7618782043e+01
    1.6260069275e+02   -2.7491485596e+01
    1.6270069885e+02   -2.7364290237e+01
    1.6280070496e+02   -2.7237173080e+01
    1.6290069580e+02   -2.7110111237e+01
    1.6300070190e+02   -2.6983089447e+01
    1.6310069275e+02   -2.6856092453e+01
    1.6320069885e+02   -2.6729114532e+01
    1.6330070496e+02   -2.6602151871e+01
    1.6340069580e+02   -2.6475204468e+01
    1.6350079346e+02   -2.6348279953e+01
    1.6360079956e+02   -2.6221387863e+01
    1.6370080566e+02   -2.6094541550e+01
    1.6380079651e+02   -2.5967760086e+01
    1.6390080261e+02   -2.5841066360e+01
    1.6400079346e+02   -2.5714483261e+01
    1.6410079956e+02   -2.5588035583e+01
    1.6420080566e+02   -2.5461751938e+01
    1.6430079651e+02   -2.5335653305e+01
    1.6440080261e+02   -2.5209764481e+01
    1.6450079346e+02   -2.5084096909e+01
    1.6460079956e+02   -2.4958658218e+01
    1.6470080566e+02   -2.4833446503e+01
    1.6480079651e+02   -2.4708452225e+01
    1.6490080261e+02   -2.4583658218e+01
    1.6500079346e+02   -2.4459043503e+01
    1.6510090637e+02   -2.4334585190e+01
    1.6520089722e+02   -2.4210260391e+01
    1.6530090332e+02   -2.4086044312e+01
    1.6540089417e+02   -2.3961912155e+01
    1.6550090027e+02   -2.3837844849e+01
    1.6560090637e+02   -2.3713823318e+01
    1.6570089722e+02   -2.3589830399e+01
    1.6580090332e+02   -2.3465850830e+01
    1.6590089417e+02   -2.3341875076e+01
    1.6600090027e+02   -2.3217893600e+01
    1.6610090637e+02   -2.3093900681e+01
    1.6620089722e+02   -2.2969888687e+01
    1.6630090332e+02   -2.2845859528e+01
    1.6640089417e+02   -2.2721811295e+01
    1.6650090027e+02   -2.2597742081e+01
    1.6660099792e+02   -2.2473657608e+01
    1.6670089722e+02   -2.2349555969e+01
    1.6680099487e+02   -2.2225444794e+01
    1.6690100098e+02   -2.2101327896e+01
    1.6700100708e+02   -2.1977207184e+01
    1.6710099792e+02   -2.1853090286e+01
    1.6720100403e+02   -2.1728977203e+01
    1.6730099487e+02   -2.1604869843e+01
    1.6740100098e+02   -2.1480773926e+01
    1.6750100708e+02   -2.1356685638e+01
    1.6760099792e+02   -2.1232608795e+01
    1.6770100403e+02   -2.1108539581e+01
    1.6780099487e+02   -2.0984470367e+01
    1.6790100098e+02   -2.0860399246e+01
    1.6800100708e+02   -2.0736312866e+01
    1.6810099792e+02   -2.0612203598e+01
    1.6820100403e+02   -2.0488054276e+01
    1.6830110168e+02   -2.0363849640e+01
    1.6840109253e+02   -2.0239570618e+01
    1.6850109863e+02   -2.0115192413e+01
    1.6860110474e+02   -1.9990695953e+01
    1.6870109558e+02   -1.9866054535e+01
    1.6880110168e+02   -1.9741245270e+01
    1.6890109253e+02   -1.9616247177e+01
    1.6900109863e+02   -1.9491037369e+01
    1.6910110474e+02   -1.9365602493e+01
    1.6920109558e+02   -1.9239933014e+01
    1.6930110168e+02   -1.9114028931e+01
    1.6940109253e+02   -1.8987901688e+01
    1.6950109863e+02   -1.8861562729e+01
    1.6960110474e+02   -1.8735033035e+01
    1.6970109558e+02   -1.8608337402e+01
    1.6980110168e+02   -1.8481496811e+01
    1.6990119934e+02   -1.8354534149e+01
    1.7000120544e+02   -1.8227470398e+01
    1.7010119629e+02   -1.8100324631e+01
    1.7020120239e+02   -1.7973106384e+01
    1.7030119324e+02   -1.7845829010e+01
    1.7040119934e+02   -1.7718492508e+01
    1.7050120544e+02   -1.7591102600e+01
    1.7060119629e+02   -1.7463647842e+01
    1.7070120239e+02   -1.7336120605e+01
    1.7080119324e+02   -1.7208507538e+01
    1.7090119934e+02   -1.7080787659e+01
    1.7100120544e+02   -1.6952938080e+01
    1.7110119629e+02   -1.6824937820e+01
    1.7120120239e+02   -1.6696763992e+01
    1.7130119324e+02   -1.6568397522e+01
    1.7140119934e+02   -1.6439821243e+01
    1.7150120544e+02   -1.6311023712e+01
    1.7160130310e+02   -1.6182001114e+01
    1.7170129395e+02   -1.6052749634e+01
    1.7180130005e+02   -1.5923267365e+01
    1.7190130615e+02   -1.5793552399e+01
    1.7200129700e+02   -1.5663603783e+01
    1.7210130310e+02   -1.5533415794e+01
    1.7220129395e+02   -1.5402984619e+01
    1.7230130005e+02   -1.5272306442e+01
    1.7240130615e+02   -1.5141375542e+01
    1.7250129700e+02   -1.5010191917e+01
    1.7260130310e+02   -1.4878756523e+01
    1.7270129395e+02   -1.4747078896e+01
    1.7280130005e+02   -1.4615168571e+01
    1.7290130615e+02   -1.4483038902e+01
    1.7300129700e+02   -1.4350696564e+01
    1.7310130310e+02   -1.4218150139e+01
    1.7320129395e+02   -1.4085404396e+01
    1.7330140686e+02   -1.3952463150e+01
    1.7340139771e+02   -1.3819330215e+01
    1.7350140381e+02   -1.3686006546e+01
    1.7360139465e+02   -1.3552493095e+01
    1.7370140076e+02   -1.3418787003e+01
    1.7380140686e+02   -1.3284879684e+01
    1.7390139771e+02   -1.3150758743e+01
    1.7400140381e+02   -1.3016406059e+01
    1.7410139465e+02   -1.2881796837e+01
    1.7420140076e+02   -1.2746901512e+01
    1.7430140686e+02   -1.2611691475e+01
    1.7440139771e+02   -1.2476133347e+01
    1.7450140381e+02   -1.2340196609e+01
    1.7460139465e+02   -1.2203854561e+01
    1.7470140076e+02   -1.2067086220e+01
    1.7480149841e+02   -1.1929872513e+01
    1.7490139771e+02   -1.1792201996e+01
    1.7500140381e+02   -1.1654063225e+01
    1.7510150146e+02   -1.1515451431e+01
    1.7520150757e+02   -1.1376368523e+01
    1.7530149841e+02   -1.1236818314e+01
    1.7540150452e+02   -1.1096812248e+01
    1.7550149536e+02   -1.0956363678e+01
    1.7560150146e+02   -1.0815487862e+01
    1.7570150757e+02   -1.0674199104e+01
    1.7580149841e+02   -1.0532511711e+01
    1.7590150452e+02   -1.0390434265e+01
    1.7600149536e+02   -1.0247966766e+01
    1.7610150146e+02   -1.0105101585e+01
    1.7620150757e+02   -9.9618177414e+00
    1.7630149841e+02   -9.8180761337e+00
    1.7640159607e+02   -9.6738243103e+00
    1.7650149536e+02   -9.5289859772e+00
    1.7660150146e+02   -9.3834657669e+00
    1.7670159912e+02   -9.2371501923e+00
    1.7680160522e+02   -9.0899076462e+00
    1.7690159607e+02   -8.9415893555e+00
    1.7700160217e+02   -8.7920379639e+00
    1.7710159302e+02   -8.6410846710e+00
    1.7720159912e+02   -8.4885654449e+00
    1.7730160522e+02   -8.3343219757e+00
    1.7740159607e+02   -8.1782188416e+00
    1.7750160217e+02   -8.0201587677e+00
    1.7760159302e+02   -7.8600931168e+00
    1.7770159912e+02   -7.6980466843e+00
    1.7780160522e+02   -7.5341305733e+00
    1.7790159607e+02   -7.3685626984e+00
    1.7800160217e+02   -7.2016925812e+00
    1.7810159302e+02   -7.0340161324e+00
    1.7820170593e+02   -6.8661947250e+00
    1.7830169678e+02   -6.6990704536e+00
    1.7840170288e+02   -6.5336713791e+00
    1.7850169373e+02   -6.3712186813e+00
    1.7860169983e+02   -6.2131133080e+00
    1.7870170593e+02   -6.0609230995e+00
    1.7880169678e+02   -5.9163479805e+00
    1.7890170288e+02   -5.7811708450e+00
    1.7900169373e+02   -5.6571917534e+00
    1.7910169983e+02   -5.5461382866e+00
    1.7920170593e+02   -5.4495534897e+00
    1.7930169678e+02   -5.3686623573e+00
    1.7940170288e+02   -5.3042101860e+00
    1.7950169373e+02   -5.2562818527e+00
    1.7960169983e+02   -5.2240982056e+00
    1.7970179749e+02   -5.2057967186e+00
    1.7980169678e+02   -5.1982007027e+00
    1.7990179443e+02   -5.1965932846e+00
endcurve
