Curveplot
LS-DYNA keyword deck by LS-PrePost
Yrot-displ
phi moment-stiffness
Joint Stiff
300001 #pts=1000
* Minval= -4.251223828125e+004 at time=      -1.727272391319
* Maxval=  2.089063476563e+004 at time=      -0.135054200888
 2.103463714320e-008  4.534459114075e-002
 2.265570842042e-008  8.242295682430e-002
 2.101140772481e-008  1.261975169182e-001
 1.449011932664e-008  1.726750880480e-001
 1.405671357091e-009  2.151105105877e-001
-1.977370800432e-008  2.436011135578e-001
-5.063199282063e-008  2.420278042555e-001
-9.044011761716e-008  1.943487524986e-001
-1.372050348891e-007  8.336602896452e-002
-1.866067549372e-007 -1.096387431026e-001
-2.313515210517e-007 -4.036315977573e-001
-2.587569838397e-007 -8.118436336517e-001
-2.539078138852e-007 -1.307657718658e+000
-1.990410680719e-007 -1.835767626762e+000
-7.482242381229e-008 -2.318482160568e+000
 1.381706766779e-007 -2.669509410858e+000
 4.651362530694e-007 -2.793047904968e+000
 9.162029073195e-007 -2.641423463821e+000
 1.501459109932e-006 -2.183396577835e+000
 2.227517597930e-006 -1.414094686508e+000
 3.096661657764e-006 -3.649991154671e-001
 4.116141099075e-006  9.069292545319e-001
 5.275345301925e-006  2.312643051147e+000
 6.570141977136e-006  3.797013759613e+000
 7.997506145330e-006  5.328957080841e+000
 9.555614269630e-006  6.899724006653e+000
 1.125179460360e-005  8.527658462524e+000
 1.308069568040e-005  1.024581909180e+001
 1.504376632511e-005  1.210062789917e+001
 1.714266909403e-005  1.413956546783e+001
 1.937733395607e-005  1.639896774292e+001
 2.175289046136e-005  1.891950607300e+001
 2.425551974738e-005  2.170127868652e+001
 2.687185588002e-005  2.474352645874e+001
 2.958393633890e-005  2.804941177368e+001
 3.236719203414e-005  3.163294029236e+001
 3.518935773172e-005  3.553532409668e+001
 3.800425110967e-005  3.977760314941e+001
 4.076214463566e-005  4.439818572998e+001
 4.340558734839e-005  4.945641708374e+001
 4.586915019900e-005  5.504521942139e+001
 4.806292781723e-005  6.133294677734e+001
 4.991095920559e-005  6.844700622559e+001
 5.132937803864e-005  7.652232360840e+001
 5.222544496064e-005  8.567788696289e+001
 5.250036338111e-005  9.597247314453e+001
 5.200686064200e-005  1.073735656738e+002
 5.065432560514e-005  1.194909362793e+002
 4.833773709834e-005  1.316496124268e+002
 4.494200402405e-005  1.428058013916e+002
 4.035405072500e-005  1.514863739014e+002
 3.439635474933e-005  1.554304199219e+002
 2.701527773752e-005  1.522603759766e+002
 1.815496398194e-005  1.395072631836e+002
 7.767718670948e-006  1.148426666260e+002
-4.154545422352e-006  7.664942169189e+001
-1.765500928741e-005  2.409902763367e+001
-3.259810546297e-005 -3.977684783936e+001
-4.884994996246e-005 -1.087575759888e+002
-6.628897244809e-005 -1.724919433594e+002
-8.480170072289e-005 -2.156135101318e+002
-1.044044765877e-004 -2.140686492920e+002
-1.251884968951e-004 -1.407685699463e+002
-1.475110620959e-004  3.284272766113e+001
-1.720792351989e-004  3.351892089844e+002
-2.000226086238e-004  7.889247436523e+002
-2.333141601412e-004  1.410762573242e+003
-2.742511569522e-004  2.178613769531e+003
-3.255218907725e-004  3.036385742188e+003
-3.902224125341e-004  3.891475341797e+003
-4.714578099083e-004  4.625255859375e+003
-5.729881813750e-004  5.106958984375e+003
-6.964180502109e-004  5.264531250000e+003
-8.421871461906e-004  5.102175292969e+003
-1.010073698126e-003  4.687895507813e+003
-1.198948943056e-003  4.138750976563e+003
-1.407874864526e-003  3.598758789063e+003
-1.634431071579e-003  3.206230224609e+003
-1.876889029518e-003  3.053430175781e+003
-2.134612295777e-003  3.188836669922e+003
-2.407841151580e-003  3.612447265625e+003
-2.698532072827e-003  4.282798828125e+003
-3.008632455021e-003  5.096575683594e+003
-3.340546041727e-003  5.935719238281e+003
-3.697079373524e-003  6.688646484375e+003
-4.080937709659e-003  7.270073242188e+003
-4.495626781136e-003  7.636645019531e+003
-4.942259285599e-003  7.828087402344e+003
-5.421308334917e-003  7.939308593750e+003
-5.933347623795e-003  8.085512695313e+003
-6.479360163212e-003  8.375275390625e+003
-7.061997894198e-003  8.890746093750e+003
-7.682982832193e-003  9.639208007813e+003
-8.344390429556e-003  1.056128125000e+004
-9.049745276570e-003  1.156057812500e+004
-9.802878834307e-003  1.252275585938e+004
-1.060959789902e-002  1.333436914063e+004
-1.147275231779e-002  1.392666503906e+004
-1.239351648837e-002  1.429447167969e+004
-1.337341777980e-002  1.447611230469e+004
-1.441347040236e-002  1.454085058594e+004
-1.551603805274e-002  1.456733789063e+004
-1.668071001768e-002  1.462192480469e+004
-1.790587231517e-002  1.473431445313e+004
-1.919163390994e-002  1.490673339844e+004
-2.053830400109e-002  1.512525781250e+004
-2.194887027144e-002  1.537335644531e+004
-2.342338487506e-002  1.564143945313e+004
-2.496141009033e-002  1.593140136719e+004
-2.656395360827e-002  1.624897949219e+004
-2.823264524341e-002  1.659185937500e+004
-2.997136674821e-002  1.693793750000e+004
-3.178126364946e-002  1.723846093750e+004
-3.366203978658e-002  1.743602734375e+004
-3.561477735639e-002  1.748035937500e+004
-3.764037042856e-002  1.734791796875e+004
-3.974090144038e-002  1.705604101563e+004
-4.191631823778e-002  1.668731640625e+004
-4.416363313794e-002  1.635830957031e+004
-4.648261889815e-002  1.618132910156e+004
-4.887308180332e-002  1.623577050781e+004
-5.133767426014e-002  1.654917773438e+004
-5.387811362743e-002  1.706521093750e+004
-5.649396404624e-002  1.767517578125e+004
-5.918722599745e-002  1.826904882813e+004
-6.195975095034e-002  1.875729882813e+004
-6.481472402811e-002  1.908485937500e+004
-6.775403767824e-002  1.924825781250e+004
-7.077491283417e-002  1.928384179688e+004
-7.387758791447e-002  1.923497656250e+004
-7.706176489592e-002  1.914344726563e+004
-8.032966405153e-002  1.904125781250e+004
-8.368202298880e-002  1.894773242188e+004
-8.711622655392e-002  1.887006250000e+004
-9.063261002302e-002  1.881280078125e+004
-9.423200041056e-002  1.878489062500e+004
-9.791641682386e-002  1.880489648438e+004
-1.016887351871e-001  1.889761328125e+004
-1.055462211370e-001  1.907852148438e+004
-1.094896420836e-001  1.934982812500e+004
-1.135205626488e-001  1.969391210938e+004
-1.176422312856e-001  2.007173632813e+004
-1.218576356769e-001  2.042705273438e+004
-1.261641234159e-001  2.070549414063e+004
-1.305630505085e-001  2.086671484375e+004
-1.350542008877e-001  2.089063476563e+004
-1.396409124136e-001  2.077983593750e+004
-1.443240791559e-001  2.056469531250e+004
-1.490991711617e-001  2.028962500000e+004
-1.539661139250e-001  1.999027929688e+004
-1.589240729809e-001  1.969191015625e+004
-1.639745384455e-001  1.940949414063e+004
-1.691175550222e-001  1.915179101563e+004
-1.743491590023e-001  1.892761132813e+004
-1.796696633101e-001  1.875202148438e+004
-1.850777864456e-001  1.864489062500e+004
-1.905766278505e-001  1.862660742188e+004
-1.961665749550e-001  1.870548437500e+004
-2.018460482359e-001  1.886246484375e+004
-2.076147198677e-001  1.906058398438e+004
-2.134734988213e-001  1.924844726563e+004
-2.194247990847e-001  1.936896484375e+004
-2.254723310471e-001  1.937375390625e+004
-2.316112369299e-001  1.924835937500e+004
-2.378423064947e-001  1.900192382813e+004
-2.441641539335e-001  1.866586132813e+004
-2.505783140659e-001  1.828454101563e+004
-2.570860087872e-001  1.790647851563e+004
-2.636825442314e-001  1.756508007813e+004
-2.703671753407e-001  1.727399804688e+004
-2.771399915218e-001  1.702941406250e+004
-2.840011119843e-001  1.681532421875e+004
-2.909511327744e-001  1.661004296875e+004
-2.979868948460e-001  1.639707812500e+004
-3.051078915596e-001  1.616910351563e+004
-3.123121857643e-001  1.592570703125e+004
-3.196016848087e-001  1.567084375000e+004
-3.269766271114e-001  1.541013671875e+004
-3.344329297543e-001  1.514745312500e+004
-3.419699370861e-001  1.488300390625e+004
-3.495873212814e-001  1.461431640625e+004
-3.572858572006e-001  1.433763867188e+004
-3.650665581226e-001  1.405003320313e+004
-3.729261159897e-001  1.375211230469e+004
-3.808633387089e-001  1.344698828125e+004
-3.888768255711e-001  1.313855273438e+004
-3.969684839249e-001  1.282941699219e+004
-4.051382243633e-001  1.251968261719e+004
-4.133836030960e-001  1.220407812500e+004
-4.217009544373e-001  1.187396582031e+004
-4.300905168056e-001  1.151942382813e+004
-4.385508596897e-001  1.113173242188e+004
-4.470834732056e-001  1.070630957031e+004
-4.556826651096e-001  1.024887402344e+004
-4.643457829952e-001  9.769054687500e+003
-4.730707705021e-001  9.279848632813e+003
-4.818559885025e-001  8.795006835938e+003
-4.907017350197e-001  8.326828125000e+003
-4.996037185192e-001  7.880693847656e+003
-5.085615515709e-001  7.457274414063e+003
-5.175743699074e-001  7.053376953125e+003
-5.266453027725e-001  6.663685058594e+003
-5.357766747475e-001  6.282114257813e+003
-5.449669361115e-001  5.902882812500e+003
-5.542142987251e-001  5.522012695313e+003
-5.635147690773e-001  5.136109375000e+003
-5.728660821915e-001  4.741617675781e+003
-5.822648406029e-001  4.333836914063e+003
-5.917052626610e-001  3.909256347656e+003
-6.011880040169e-001  3.465231933594e+003
-6.107145547867e-001  3.001957519531e+003
-6.202843785286e-001  2.523651855469e+003
-6.298995614052e-001  2.040516479492e+003
-6.395590305328e-001  1.568822631836e+003
-6.492580771446e-001  1.127604003906e+003
-6.589958071709e-001  7.366942138672e+002
-6.687655448914e-001  4.130929870605e+002
-6.785650253296e-001  1.692087554932e+002
-6.883889436722e-001 -8.824768066406e-001
-6.982336044312e-001 -1.060985260010e+002
-7.081012129784e-001 -1.593691558838e+002
-7.179933190346e-001 -1.745115661621e+002
-7.279160618782e-001 -1.645663299561e+002
-7.378675341606e-001 -1.427968597412e+002
-7.478502392769e-001 -1.178601531982e+002
-7.578643560410e-001 -9.607511901855e+001
-7.679086327553e-001 -8.162283325195e+001
-7.779869437218e-001 -7.719527435303e+001
-7.880980372429e-001 -8.259725189209e+001
-7.982418537140e-001 -9.696546936035e+001
-8.084155321121e-001 -1.186415481567e+002
-8.186174035072e-001 -1.454096069336e+002
-8.288431763649e-001 -1.743629455566e+002
-8.390902876854e-001 -2.016225128174e+002
-8.493598699570e-001 -2.229339752197e+002
-8.596492409706e-001 -2.334722900391e+002
-8.699623942375e-001 -2.280550231934e+002
-8.803026080132e-001 -2.000321807861e+002
-8.906724452972e-001 -1.463122558594e+002
-9.010677337646e-001 -6.496891784668e+001
-9.114849567413e-001  4.241422271729e+001
-9.219215512276e-001  1.689895477295e+002
-9.323714971542e-001  2.991305847168e+002
-9.428346157074e-001  4.058739929199e+002
-9.533073902130e-001  4.528115539551e+002
-9.637871980667e-001  3.929789428711e+002
-9.742780923843e-001  1.707025451660e+002
-9.847767353058e-001 -2.920874633789e+002
-9.952840209007e-001 -1.040116333008e+003
-1.005796074867e+000 -2.108286865234e+003
-1.016313076019e+000 -3.495999511719e+003
-1.026833176613e+000 -5.147648925781e+003
-1.037352085114e+000 -6.922050781250e+003
-1.047865152359e+000 -8.552371093750e+003
-1.058366417885e+000 -9.720976562500e+003
-1.068852186203e+000 -1.015010449219e+004
-1.079321861267e+000 -9.710667968750e+003
-1.089786291122e+000 -8.456842773438e+003
-1.100261211395e+000 -6.724544433594e+003
-1.110767245293e+000 -4.841906738281e+003
-1.121318340302e+000 -3.104139404297e+003
-1.131925106049e+000 -1.739656982422e+003
-1.142591595650e+000 -9.402029418945e+002
-1.153310656548e+000 -7.719780883789e+002
-1.164065003395e+000 -1.266758789063e+003
-1.174834370613e+000 -2.410223388672e+003
-1.185595631599e+000 -4.132121582031e+003
-1.196315288544e+000 -6.302718261719e+003
-1.206972837448e+000 -8.657808593750e+003
-1.217550635338e+000 -1.092472656250e+004
-1.228041768074e+000 -1.286123632813e+004
-1.238450884819e+000 -1.431971777344e+004
-1.248787522316e+000 -1.527008886719e+004
-1.259071111679e+000 -1.588463183594e+004
-1.269316554070e+000 -1.638261328125e+004
-1.279535412788e+000 -1.696501367188e+004
-1.289734244347e+000 -1.774740039063e+004
-1.299915194511e+000 -1.872317968750e+004
-1.310071349144e+000 -1.973948242188e+004
-1.320195436478e+000 -2.061036718750e+004
-1.330272436142e+000 -2.117623242188e+004
-1.340286612511e+000 -2.135539453125e+004
-1.350219249725e+000 -2.116797656250e+004
-1.360063433647e+000 -2.079550390625e+004
-1.369816541672e+000 -2.046340820313e+004
-1.379486680031e+000 -2.038748828125e+004
-1.389083027840e+000 -2.071863281250e+004
-1.398615360260e+000 -2.152532812500e+004
-1.408097743988e+000 -2.271540429688e+004
-1.417534828186e+000 -2.414587109375e+004
-1.426926255226e+000 -2.566612109375e+004
-1.436266183853e+000 -2.715446093750e+004
-1.445539951324e+000 -2.852301757813e+004
-1.454734683037e+000 -2.973657617188e+004
-1.463842272758e+000 -3.078332617188e+004
-1.472852587700e+000 -3.165539648438e+004
-1.481766581535e+000 -3.234381054688e+004
-1.490575075150e+000 -3.282707031250e+004
-1.499286174774e+000 -3.310982812500e+004
-1.507897257805e+000 -3.321333984375e+004
-1.516408562660e+000 -3.318235156250e+004
-1.524816751480e+000 -3.308160156250e+004
-1.533120632172e+000 -3.298383984375e+004
-1.541322708130e+000 -3.295867578125e+004
-1.549430847168e+000 -3.306315234375e+004
-1.557446002960e+000 -3.334775390625e+004
-1.565367817879e+000 -3.385399609375e+004
-1.573190689087e+000 -3.461865234375e+004
-1.580913186073e+000 -3.562728515625e+004
-1.588532209396e+000 -3.682756640625e+004
-1.596043348312e+000 -3.813174218750e+004
-1.603443026543e+000 -3.941904687500e+004
-1.610722661018e+000 -4.053408593750e+004
-1.617884516716e+000 -4.133385156250e+004
-1.624928355217e+000 -4.172617968750e+004
-1.631853699684e+000 -4.168149218750e+004
-1.638661742210e+000 -4.125248437500e+004
-1.645352721214e+000 -4.057269140625e+004
-1.651930212975e+000 -3.985854296875e+004
-1.658401966095e+000 -3.930420312500e+004
-1.664767622948e+000 -3.904138671875e+004
-1.671026349068e+000 -3.911306640625e+004
-1.677170038223e+000 -3.947640625000e+004
-1.683197379112e+000 -3.999691796875e+004
-1.689110755920e+000 -4.054210546875e+004
-1.694907903671e+000 -4.102290625000e+004
-1.700592041016e+000 -4.140684765625e+004
-1.706157922745e+000 -4.170950000000e+004
-1.711606860161e+000 -4.197217578125e+004
-1.716941833496e+000 -4.221263281250e+004
-1.722162961960e+000 -4.240977343750e+004
-1.727272391319e+000 -4.251223828125e+004
-1.732267022133e+000 -4.245425000000e+004
-1.737152695656e+000 -4.220613281250e+004
-1.741933345795e+000 -4.179109765625e+004
-1.746608257294e+000 -4.127090625000e+004
-1.751179814339e+000 -4.073093359375e+004
-1.755646944046e+000 -4.025913671875e+004
-1.760016918182e+000 -3.991174609375e+004
-1.764294624329e+000 -3.969657031250e+004
-1.768481492996e+000 -3.959029687500e+004
-1.772574663162e+000 -3.955120703125e+004
-1.776567101479e+000 -3.953360546875e+004
-1.780457258224e+000 -3.949712890625e+004
-1.784248352051e+000 -3.941454687500e+004
-1.787945628166e+000 -3.926360546875e+004
-1.791554689407e+000 -3.902348437500e+004
-1.795077681541e+000 -3.867216796875e+004
-1.798515677452e+000 -3.820367968750e+004
-1.801869392395e+000 -3.763501953125e+004
-1.805135011673e+000 -3.700060156250e+004
-1.808312535286e+000 -3.634866796875e+004
-1.811403512955e+000 -3.573148046875e+004
-1.814417600632e+000 -3.518600781250e+004
-1.817369103432e+000 -3.471762500000e+004
-1.820267200470e+000 -3.430852734375e+004
-1.823118686676e+000 -3.392687500000e+004
-1.825921893120e+000 -3.354090625000e+004
-1.828672051430e+000 -3.313528515625e+004
-1.831360101700e+000 -3.271823828125e+004
-1.833974242210e+000 -3.230966992188e+004
-1.836504220963e+000 -3.192707617188e+004
-1.838941931725e+000 -3.157197265625e+004
-1.841289997101e+000 -3.121426171875e+004
-1.843559503555e+000 -3.080544726563e+004
-1.845764517784e+000 -3.029729687500e+004
-1.847920894623e+000 -2.966090039063e+004
-1.850043177605e+000 -2.890085546875e+004
-1.852146625519e+000 -2.806895507813e+004
-1.854243516922e+000 -2.724030468750e+004
-1.856342196465e+000 -2.648563671875e+004
-1.858448624611e+000 -2.585193359375e+004
-1.860566854477e+000 -2.535474218750e+004
-1.862697839737e+000 -2.496431835938e+004
-1.864840269089e+000 -2.462197265625e+004
-1.866991281509e+000 -2.427011328125e+004
-1.869147181511e+000 -2.386510937500e+004
-1.871301889420e+000 -2.338621289063e+004
-1.873446106911e+000 -2.284194531250e+004
-1.875571370125e+000 -2.225941992188e+004
-1.877666473389e+000 -2.166563671875e+004
-1.879720211029e+000 -2.108197656250e+004
-1.881721258163e+000 -2.052059765625e+004
-1.883661866188e+000 -1.998318164063e+004
-1.885545134544e+000 -1.946411328125e+004
-1.887377262115e+000 -1.895782617188e+004
-1.889169454575e+000 -1.846109375000e+004
-1.890934944153e+000 -1.797441406250e+004
-1.892689466476e+000 -1.750027929688e+004
-1.894448876381e+000 -1.704067968750e+004
-1.896228194237e+000 -1.659726757813e+004
-1.898041486740e+000 -1.616988183594e+004
-1.899902701378e+000 -1.575648632813e+004
-1.901819944382e+000 -1.535264648438e+004
-1.903792977333e+000 -1.495318066406e+004
-1.905816435814e+000 -1.455436230469e+004
-1.907881975174e+000 -1.415423632813e+004
-1.909979581833e+000 -1.375317480469e+004
-1.912098526955e+000 -1.335432910156e+004
-1.914230346680e+000 -1.296219726563e+004
-1.916367530823e+000 -1.258155664063e+004
-1.918505668640e+000 -1.221704296875e+004
-1.920640945435e+000 -1.187468066406e+004
-1.922771811485e+000 -1.155893554688e+004
-1.924897432327e+000 -1.127205761719e+004
-1.927019119263e+000 -1.101456738281e+004
-1.929136872292e+000 -1.078454687500e+004
-1.931251287460e+000 -1.057687207031e+004
-1.933363676071e+000 -1.038301855469e+004
-1.935473680496e+000 -1.019207519531e+004
-1.937581300735e+000 -9.994511718750e+003
-1.939686298370e+000 -9.783514648438e+003
-1.941787242889e+000 -9.556928710938e+003
-1.943882822990e+000 -9.319408203125e+003
-1.945972919464e+000 -9.082068359375e+003
-1.948056340218e+000 -8.857797851563e+003
-1.950134277344e+000 -8.658969726563e+003
-1.952207922935e+000 -8.495693359375e+003
-1.954281806946e+000 -8.372862304688e+003
-1.956361889839e+000 -8.284478515625e+003
-1.958455801010e+000 -8.220193359375e+003
-1.960571885109e+000 -8.166616210938e+003
-1.962720632553e+000 -8.110912597656e+003
-1.964913845062e+000 -8.044262695313e+003
-1.967157125473e+000 -7.966509765625e+003
-1.969454288483e+000 -7.883601074219e+003
-1.971806406975e+000 -7.805464843750e+003
-1.974213004112e+000 -7.743596679688e+003
-1.976676821709e+000 -7.708598144531e+003
-1.979196071625e+000 -7.703299804688e+003
-1.981773257256e+000 -7.725379882813e+003
-1.984408020973e+000 -7.767157226563e+003
-1.987097144127e+000 -7.817761718750e+003
-1.989833474159e+000 -7.865853515625e+003
-1.992603540421e+000 -7.905187500000e+003
-1.995397567749e+000 -7.935877929688e+003
-1.998206377029e+000 -7.963125488281e+003
-2.001022577286e+000 -7.995328613281e+003
-2.003840684891e+000 -8.041463378906e+003
-2.006657123566e+000 -8.105371582031e+003
-2.009470701218e+000 -8.187052246094e+003
-2.012280225754e+000 -8.283220703125e+003
-2.015085697174e+000 -8.388945312500e+003
-2.017888307571e+000 -8.499087890625e+003
-2.020689249039e+000 -8.610136718750e+003
-2.023488044739e+000 -8.721311523438e+003
-2.026285886765e+000 -8.833440429688e+003
-2.029081821442e+000 -8.947772460938e+003
-2.031875848770e+000 -9.064748046875e+003
-2.034668684006e+000 -9.183578125000e+003
-2.037460803986e+000 -9.303785156250e+003
-2.040251731873e+000 -9.425764648438e+003
-2.043041944504e+000 -9.551261718750e+003
-2.045832395554e+000 -9.683828125000e+003
-2.048622846603e+000 -9.826453125000e+003
-2.051413297653e+000 -9.980857421875e+003
-2.054204463959e+000 -1.014625488281e+004
-2.056995153427e+000 -1.031904785156e+004
-2.059786558151e+000 -1.049317871094e+004
-2.062577962875e+000 -1.066246679688e+004
-2.065369606018e+000 -1.082334277344e+004
-2.068161249161e+000 -1.097586328125e+004
-2.070953130722e+000 -1.112406640625e+004
-2.073744535446e+000 -1.127572558594e+004
-2.076536178589e+000 -1.143876171875e+004
-2.079328298569e+000 -1.161879785156e+004
-2.082119941711e+000 -1.181783398438e+004
-2.084913015366e+000 -1.203345312500e+004
-2.087709903717e+000 -1.225882128906e+004
-2.090512990952e+000 -1.248347070313e+004
-2.093325614929e+000 -1.269901367188e+004
-2.096150636673e+000 -1.290067089844e+004
-2.098991632462e+000 -1.308835937500e+004
-2.101848840714e+000 -1.326575292969e+004
-2.104721307755e+000 -1.344055175781e+004
-2.107604742050e+000 -1.361874804688e+004
-2.110490798950e+000 -1.380366992188e+004
-2.113366127014e+000 -1.399572656250e+004
-2.116206884384e+000 -1.419224902344e+004
-2.118986606598e+000 -1.438770410156e+004
-2.121674060822e+000 -1.457751171875e+004
-2.124237060547e+000 -1.475917382813e+004
-2.126646518707e+000 -1.493331250000e+004
-2.128871440887e+000 -1.510356445313e+004
-2.130915641785e+000 -1.527581542969e+004
-2.132785081863e+000 -1.545440625000e+004
-2.134494543076e+000 -1.564105664063e+004
-2.136068582535e+000 -1.583409863281e+004
-2.137532234192e+000 -1.602875878906e+004
-2.138924837112e+000 -1.621911523438e+004
-2.140273332596e+000 -1.640093359375e+004
-2.141599178314e+000 -1.657224414063e+004
-2.142917871475e+000 -1.673372460938e+004
-2.144241094589e+000 -1.688824414063e+004
-2.145574808121e+000 -1.704059960938e+004
-2.146921873093e+000 -1.719445117188e+004
-2.148282289505e+000 -1.735188476563e+004
-2.149655580521e+000 -1.751301953125e+004
-2.151040792465e+000 -1.767617187500e+004
-2.152436256409e+000 -1.783846093750e+004
-2.153841972351e+000 -1.799744726563e+004
-2.155258893967e+000 -1.815132421875e+004
-2.156688690186e+000 -1.829921484375e+004
-2.158133268356e+000 -1.844131250000e+004
-2.159594297409e+000 -1.857975585938e+004
-2.161070346832e+000 -1.871667187500e+004
-2.162559032440e+000 -1.885350781250e+004
-2.164053440094e+000 -1.899060937500e+004
-2.165539979935e+000 -1.912679882813e+004
-2.166997909546e+000 -1.925929492188e+004
-2.168400526047e+000 -1.938537109375e+004
-2.169714927673e+000 -1.950238281250e+004
-2.170903921127e+000 -1.960898046875e+004
-2.171919584274e+000 -1.970524609375e+004
-2.172737598419e+000 -1.979386328125e+004
-2.173347711563e+000 -1.987819335938e+004
-2.173759222031e+000 -1.996141796875e+004
-2.173999071121e+000 -2.004589062500e+004
-2.174098253250e+000 -2.013255468750e+004
-2.174102544785e+000 -2.022027539063e+004
-2.174047708511e+000 -2.030673828125e+004
-2.173961162567e+000 -2.038921289063e+004
-2.173863410950e+000 -2.046536914063e+004
-2.173770427704e+000 -2.053358398438e+004
-2.173689842224e+000 -2.059442187500e+004
-2.173624992371e+000 -2.064935156250e+004
-2.173576116562e+000 -2.070024414063e+004
-2.173542499542e+000 -2.074873437500e+004
-2.173522472382e+000 -2.079539648438e+004
-2.173513889313e+000 -2.083946093750e+004
-2.173515796661e+000 -2.087900390625e+004
-2.173528671265e+000 -2.091176171875e+004
-2.173552989960e+000 -2.093604687500e+004
-2.173591613770e+000 -2.095109375000e+004
-2.173645973206e+000 -2.095869726563e+004
-2.173716545105e+000 -2.096171875000e+004
-2.173801660538e+000 -2.096317968750e+004
-2.173896789551e+000 -2.096539062500e+004
-2.173991203308e+000 -2.096934960938e+004
-2.174067735672e+000 -2.097422851563e+004
-2.174102544785e+000 -2.097807812500e+004
-2.174065828323e+000 -2.097875000000e+004
-2.173922538757e+000 -2.097476171875e+004
-2.173626899719e+000 -2.096579882813e+004
-2.173147439957e+000 -2.095346679688e+004
-2.172466278076e+000 -2.093989062500e+004
-2.171582698822e+000 -2.092681835938e+004
-2.170515537262e+000 -2.091515234375e+004
-2.169291973114e+000 -2.090462890625e+004
-2.167955636978e+000 -2.089369335938e+004
-2.166545629501e+000 -2.088056835938e+004
-2.165091991425e+000 -2.086412695313e+004
-2.163619518280e+000 -2.084430078125e+004
-2.162145614624e+000 -2.082213867188e+004
-2.160682916641e+000 -2.079951757813e+004
-2.159236907959e+000 -2.077803125000e+004
-2.157808780670e+000 -2.075858007813e+004
-2.156398296356e+000 -2.074117578125e+004
-2.155003309250e+000 -2.072507421875e+004
-2.153620243073e+000 -2.070922656250e+004
-2.152245044708e+000 -2.069303515625e+004
-2.150874376297e+000 -2.067655273438e+004
-2.149505853653e+000 -2.066059765625e+004
-2.148137092590e+000 -2.064678906250e+004
-2.146766185760e+000 -2.063680078125e+004
-2.145393133163e+000 -2.063143945313e+004
-2.144017696381e+000 -2.063050195313e+004
-2.142640113831e+000 -2.063283789063e+004
-2.141261339188e+000 -2.063685156250e+004
-2.139881610870e+000 -2.064117578125e+004
-2.138501644135e+000 -2.064552539063e+004
-2.137122154236e+000 -2.065069140625e+004
-2.135743379593e+000 -2.065824414063e+004
-2.134365320206e+000 -2.067028515625e+004
-2.132987976074e+000 -2.068842578125e+004
-2.131611347198e+000 -2.071318750000e+004
-2.130234956741e+000 -2.074446289063e+004
-2.128858327866e+000 -2.078188867188e+004
-2.127481222153e+000 -2.082554882813e+004
-2.126103401184e+000 -2.087582421875e+004
-2.124724626541e+000 -2.093347851563e+004
-2.123345613480e+000 -2.099962890625e+004
-2.121966362000e+000 -2.107505468750e+004
-2.120586872101e+000 -2.115997851563e+004
-2.119209289551e+000 -2.125291796875e+004
-2.117831945419e+000 -2.135118945313e+004
-2.116454839706e+000 -2.145193750000e+004
-2.115078210831e+000 -2.155299804688e+004
-2.113701820374e+000 -2.165399609375e+004
-2.112325429916e+000 -2.175699023438e+004
-2.110948801041e+000 -2.186554882813e+004
-2.109572649002e+000 -2.198376562500e+004
-2.108197212219e+000 -2.211529687500e+004
-2.106822729111e+000 -2.226279882813e+004
-2.105449199677e+000 -2.242582617188e+004
-2.104076623917e+000 -2.260095703125e+004
-2.102704763412e+000 -2.278388476563e+004
-2.101333856583e+000 -2.296997656250e+004
-2.099962711334e+000 -2.315524609375e+004
-2.098591804504e+000 -2.333758007813e+004
-2.097220897675e+000 -2.351764062500e+004
-2.095850467682e+000 -2.369802929688e+004
-2.094480752945e+000 -2.388264257813e+004
-2.093111753464e+000 -2.407606054688e+004
-2.091742753983e+000 -2.428199023438e+004
-2.090374231339e+000 -2.450174414063e+004
-2.089005231857e+000 -2.473523046875e+004
-2.087635755539e+000 -2.498092578125e+004
-2.086265563965e+000 -2.523659960938e+004
-2.084894418716e+000 -2.549924218750e+004
-2.083522319794e+000 -2.576600585938e+004
-2.082149028778e+000 -2.603506445313e+004
-2.080775260925e+000 -2.630541015625e+004
-2.079402208328e+000 -2.657707617188e+004
-2.078032016754e+000 -2.685116406250e+004
-2.076667785645e+000 -2.712910937500e+004
-2.075312614441e+000 -2.741213476563e+004
-2.073969364166e+000 -2.770032812500e+004
-2.072641134262e+000 -2.799272460938e+004
-2.071329355240e+000 -2.828751953125e+004
-2.070031404495e+000 -2.858237109375e+004
-2.068742275238e+000 -2.887535156250e+004
-2.067452669144e+000 -2.916542187500e+004
-2.066146135330e+000 -2.945277539063e+004
-2.064799785614e+000 -2.973916210938e+004
-2.063386917114e+000 -3.002704296875e+004
-2.061877489090e+000 -3.031851171875e+004
-2.060240507126e+000 -3.061479101563e+004
-2.058444976807e+000 -3.091594726563e+004
-2.056467056274e+000 -3.122051757813e+004
-2.054307937622e+000 -3.152563085938e+004
-2.051974296570e+000 -3.182728515625e+004
-2.049485445023e+000 -3.212118750000e+004
-2.046868801117e+000 -3.240382617188e+004
-2.044157981873e+000 -3.267351171875e+004
-2.041389226913e+000 -3.293200390625e+004
-2.038589239120e+000 -3.318237890625e+004
-2.035778522491e+000 -3.342831250000e+004
-2.032973051071e+000 -3.367287500000e+004
-2.030184507370e+000 -3.391755078125e+004
-2.027417182922e+000 -3.416159375000e+004
-2.024673461914e+000 -3.440271093750e+004
-2.021951436996e+000 -3.463768359375e+004
-2.019246339798e+000 -3.486291406250e+004
-2.016550302505e+000 -3.507524609375e+004
-2.013851881027e+000 -3.527384765625e+004
-2.011137962341e+000 -3.545882812500e+004
-2.008392810822e+000 -3.563137890625e+004
-2.005596637726e+000 -3.579299609375e+004
-2.002727985382e+000 -3.594500781250e+004
-1.999773383141e+000 -3.608864453125e+004
-1.996722698212e+000 -3.622367187500e+004
-1.993574619293e+000 -3.634883593750e+004
-1.990333318710e+000 -3.646182031250e+004
-1.987005949020e+000 -3.655932031250e+004
-1.983605504036e+000 -3.663932812500e+004
-1.980137705803e+000 -3.669992187500e+004
-1.976599574089e+000 -3.674019921875e+004
-1.972986459732e+000 -3.676002734375e+004
-1.969293117523e+000 -3.676001171875e+004
-1.965517401695e+000 -3.674297265625e+004
-1.961658596992e+000 -3.671074609375e+004
-1.957718968391e+000 -3.666473046875e+004
-1.953702688217e+000 -3.660555078125e+004
-1.949612498283e+000 -3.653298046875e+004
-1.945452690125e+000 -3.644747265625e+004
-1.941221237183e+000 -3.634870703125e+004
-1.936913728714e+000 -3.623644921875e+004
-1.932524204254e+000 -3.611060156250e+004
-1.928045511246e+000 -3.597095312500e+004
-1.923480510712e+000 -3.581819531250e+004
-1.918830752373e+000 -3.565165234375e+004
-1.914100289345e+000 -3.546967968750e+004
-1.909291267395e+000 -3.526976562500e+004
-1.904401779175e+000 -3.504882421875e+004
-1.899434208870e+000 -3.480696484375e+004
-1.894386053085e+000 -3.454516796875e+004
-1.889255404472e+000 -3.426602343750e+004
-1.884040594101e+000 -3.397305468750e+004
-1.878737568855e+000 -3.366976171875e+004
-1.873353123665e+000 -3.335927734375e+004
-1.867890834808e+000 -3.304221093750e+004
-1.862352728844e+000 -3.271732617188e+004
-1.856739282608e+000 -3.238181835938e+004
-1.851044774055e+000 -3.203147851563e+004
-1.845271825790e+000 -3.166404687500e+004
-1.839419364929e+000 -3.127785937500e+004
-1.833485960960e+000 -3.087276171875e+004
-1.827471256256e+000 -3.044975000000e+004
-1.821370363235e+000 -3.001010546875e+004
-1.815198659897e+000 -2.955705078125e+004
-1.808950185776e+000 -2.909268750000e+004
-1.802630662918e+000 -2.861907226563e+004
-1.796244382858e+000 -2.813830078125e+004
-1.789777636528e+000 -2.765228515625e+004
-1.783242821693e+000 -2.716299414063e+004
-1.776639580727e+000 -2.667104101563e+004
-1.769962549210e+000 -2.617583593750e+004
-1.763215065002e+000 -2.567567187500e+004
-1.756390929222e+000 -2.516769335938e+004
-1.749497056007e+000 -2.465037890625e+004
-1.742536664009e+000 -2.412329101563e+004
-1.735513806343e+000 -2.358741210938e+004
-1.728433609009e+000 -2.304494531250e+004
-1.721298217773e+000 -2.249886328125e+004
-1.714117646217e+000 -2.195205859375e+004
-1.706896662712e+000 -2.140553320313e+004
-1.699636459351e+000 -2.085835742188e+004
-1.692335367203e+000 -2.030798242188e+004
-1.684985041618e+000 -1.975055859375e+004
-1.677580237389e+000 -1.918333593750e+004
-1.670114874840e+000 -1.860456054688e+004
-1.662585139275e+000 -1.801434570313e+004
-1.654990553856e+000 -1.741454687500e+004
-1.647326707840e+000 -1.680854296875e+004
-1.639600872993e+000 -1.620174609375e+004
-1.631820917130e+000 -1.559911914063e+004
-1.623991727829e+000 -1.500485253906e+004
-1.616123557091e+000 -1.442138281250e+004
-1.608227610588e+000 -1.385008496094e+004
-1.600317716599e+000 -1.328919433594e+004
-1.592403769493e+000 -1.273627539063e+004
-1.584493160248e+000 -1.218818945313e+004
-1.576591849327e+000 -1.164159082031e+004
-1.568702697754e+000 -1.109298144531e+004
-1.560823798180e+000 -1.053986328125e+004
-1.552952289581e+000 -9.980857421875e+003
-1.545079708099e+000 -9.415629882813e+003
-1.537192463875e+000 -8.845062500000e+003
-1.529279708862e+000 -8.270862304688e+003
-1.521330118179e+000 -7.695874511719e+003
-1.513334631920e+000 -7.122868652344e+003
-1.505287289619e+000 -6.554410156250e+003
-1.497190117836e+000 -5.992943847656e+003
-1.489049553871e+000 -5.441542480469e+003
-1.480880022049e+000 -4.902287597656e+003
-1.472701549530e+000 -4.378051757813e+003
-1.464519977570e+000 -3.872252685547e+003
-1.456355810165e+000 -3.388624267578e+003
-1.448227047920e+000 -2.932981445313e+003
-1.440143942833e+000 -2.508990966797e+003
-1.432115197182e+000 -2.121906005859e+003
-1.424144029617e+000 -1.777484741211e+003
-1.416225671768e+000 -1.480677124023e+003
-1.408354520798e+000 -1.237424926758e+003
-1.400520682335e+000 -1.045026489258e+003
-1.392707109451e+000 -8.989601440430e+002
-1.384908795357e+000 -7.928599243164e+002
-1.377119302750e+000 -7.193341064453e+002
-1.369332075119e+000 -6.717517700195e+002
-1.361543893814e+000 -6.418245239258e+002
-1.353753328323e+000 -6.239262695313e+002
-1.345958948135e+000 -6.138409423828e+002
-1.338165044785e+000 -6.082712402344e+002
-1.330361843109e+000 -6.045946044922e+002
-1.322553992271e+000 -6.007897949219e+002
-1.314742207527e+000 -5.957506103516e+002
-1.306926250458e+000 -5.889149780273e+002
-1.299106836319e+000 -5.801252441406e+002
-1.291285157204e+000 -5.694188842773e+002
-1.283463835716e+000 -5.571497192383e+002
-1.275649189949e+000 -5.436212768555e+002
-1.267842054367e+000 -5.290617675781e+002
-1.260057330132e+000 -5.136235961914e+002
-1.252297639847e+000 -4.973690185547e+002
-1.244574904442e+000 -4.803716430664e+002
-1.236896038055e+000 -4.626084899902e+002
-1.229264378548e+000 -4.440071105957e+002
-1.221679687500e+000 -4.245576782227e+002
-1.214141726494e+000 -4.043171997070e+002
-1.206644415855e+000 -3.835378112793e+002
-1.199186682701e+000 -3.625235595703e+002
-1.191774368286e+000 -3.415641784668e+002
-1.184401512146e+000 -3.209053649902e+002
-1.177079319954e+000 -3.007565002441e+002
-1.169806718826e+000 -2.812055053711e+002
-1.162580966949e+000 -2.622371215820e+002
-1.155395746231e+000 -2.437753601074e+002
-1.148240804672e+000 -2.257005615234e+002
-1.141106843948e+000 -2.078743591309e+002
-1.133987069130e+000 -1.901116943359e+002
-1.126868367195e+000 -1.722865142822e+002
-1.119754076004e+000 -1.543520507813e+002
-1.112639784813e+000 -1.363585510254e+002
-1.105530381203e+000 -1.184447937012e+002
-1.098433494568e+000 -1.007490081787e+002
-1.091358065605e+000 -8.337321472168e+001
-1.084312796593e+000 -6.639029693604e+001
-1.077306270599e+000 -4.982861328125e+001
-1.070349574089e+000 -3.364820861816e+001
-1.063434243202e+000 -1.767990303040e+001
-1.056564927101e+000 -1.688405990601e+000
-1.049734354019e+000  1.462642002106e+001
-1.042942047119e+000  3.157535171509e+001
-1.036188840866e+000  4.947445678711e+001
-1.029475450516e+000  6.839454650879e+001
-1.022803068161e+000  8.853932189941e+001
-1.016172051430e+000  1.096870422363e+002
-1.009581089020e+000  1.316091613770e+002
-1.003030538559e+000  1.538976898193e+002
-9.965086579323e-001  1.759114074707e+002
-9.900177717209e-001  1.968587493896e+002
-9.835587143898e-001  2.157186584473e+002
-9.771337509155e-001  2.313177795410e+002
-9.707448482513e-001  2.421271514893e+002
-9.643874764442e-001  2.468482971191e+002
-9.580593705177e-001  2.445958251953e+002
-9.517537355423e-001  2.349232482910e+002
-9.454702138901e-001  2.183259887695e+002
-9.392092823982e-001  1.967130279541e+002
-9.329741001129e-001  1.747308807373e+002
-9.267700910568e-001  1.593977966309e+002
-9.206035137177e-001  1.604104919434e+002
-9.144785404205e-001  1.902129211426e+002
-9.083986282349e-001  2.659190063477e+002
-9.023607373238e-001  4.040963134766e+002
-8.963586688042e-001  6.177479248047e+002
-8.903887867928e-001  9.157933959961e+002
-8.844484686852e-001  1.297886962891e+003
-8.785338997841e-001  1.750253295898e+003
-8.726498484612e-001  2.229936035156e+003
-8.668005466461e-001  2.671105957031e+003
-8.609908223152e-001  2.998214843750e+003
-8.552246689796e-001  3.147388916016e+003
-8.495040535927e-001  3.080538085938e+003
-8.438253998756e-001  2.818918212891e+003
-8.381865620613e-001  2.425685791016e+003
-8.325776457787e-001  1.974355834961e+003
-8.270011544228e-001  1.532195800781e+003
-8.214595317841e-001  1.149142333984e+003
-8.159564733505e-001  8.498115844727e+002
-8.104953169823e-001  6.368518066406e+002
-8.050777316093e-001  5.038145141602e+002
-7.997025847435e-001  4.379089965820e+002
-7.943684458733e-001  4.246109313965e+002
-7.890604734421e-001  4.462999877930e+002
-7.837754487991e-001  4.875017395020e+002
-7.785044312477e-001  5.367725830078e+002
-7.732457518578e-001  5.854534912109e+002
-7.680001854897e-001  6.274552612305e+002
-7.627705335617e-001  6.598244018555e+002
-7.575632929802e-001  6.825050659180e+002
-7.523862719536e-001  6.968492431641e+002
-7.472465634346e-001  7.050783081055e+002
-7.421539425850e-001  7.095540161133e+002
-7.371042370796e-001  7.125562133789e+002
-7.320942282677e-001  7.154748535156e+002
-7.271171212196e-001  7.188973999023e+002
-7.221642732620e-001  7.228305664063e+002
-7.172281146049e-001  7.267818603516e+002
-7.123024463654e-001  7.299976196289e+002
-7.073836922646e-001  7.317717895508e+002
-7.024727463722e-001  7.316097412109e+002
-6.975724101067e-001  7.293917236328e+002
-6.926863193512e-001  7.253386840820e+002
-6.878248453140e-001  7.202018432617e+002
-6.829951405525e-001  7.149160766602e+002
-6.782044172287e-001  7.102167968750e+002
-6.734564900398e-001  7.065468139648e+002
-6.687531471252e-001  7.038944091797e+002
-6.640908718109e-001  7.017258300781e+002
-6.594617366791e-001  6.992631835938e+002
-6.548565626144e-001  6.956965332031e+002
-6.502658724785e-001  6.903743286133e+002
-6.456838846207e-001  6.828383178711e+002
-6.411056518555e-001  6.729402465820e+002
-6.365292668343e-001  6.609360961914e+002
-6.319548487663e-001  6.471317749023e+002
-6.273858547211e-001  6.319885253906e+002
-6.228281855583e-001  6.160833740234e+002
-6.182897686958e-001  6.000136108398e+002
-6.137772798538e-001  5.841780395508e+002
-6.092984676361e-001  5.686301879883e+002
-6.048559546471e-001  5.531087036133e+002
-6.004548668861e-001  5.371071166992e+002
-5.960954427719e-001  5.199506225586e+002
-5.917739272118e-001  5.011684265137e+002
-5.874856114388e-001  4.805189514160e+002
-5.832231640816e-001  4.580258789063e+002
-5.789793133736e-001  4.339473266602e+002
-5.747472643852e-001  4.087645874023e+002
-5.705210566521e-001  3.830566101074e+002
-5.662935376167e-001  3.572953186035e+002
-5.620630979538e-001  3.318405151367e+002
-5.578282475471e-001  3.068961181641e+002
-5.535885691643e-001  2.825099792480e+002
-5.493451356888e-001  2.580441589355e+002
-5.451004505157e-001  2.332175445557e+002
-5.408573746681e-001  2.075979614258e+002
-5.366228818893e-001  1.807959289551e+002
-5.323972105980e-001  1.525783081055e+002
-5.281890034676e-001  1.230818862915e+002
-5.240011215210e-001  9.270566558838e+001
-5.198370218277e-001  6.205397033691e+001
-5.156982541084e-001  3.176792907715e+001
-5.115840435028e-001  2.307792663574e+000
-5.074902772903e-001 -2.624623870850e+001
-5.034146904945e-001 -5.401970672607e+001
-4.993576705456e-001 -8.131067657471e+001
-4.953131079674e-001 -1.085285491943e+002
-4.912825226784e-001 -1.361654205322e+002
-4.872642159462e-001 -1.646066284180e+002
-4.832560122013e-001 -1.940985717773e+002
-4.792557954788e-001 -2.246880950928e+002
-4.752615392208e-001 -2.562039489746e+002
-4.712702929974e-001 -2.882767944336e+002
-4.672806859016e-001 -3.204863586426e+002
-4.632923007011e-001 -3.525062255859e+002
-4.593068957329e-001 -3.841493835449e+002
-4.553216099739e-001 -4.154134521484e+002
-4.513397812843e-001 -4.465094604492e+002
-4.473639428616e-001 -4.778288574219e+002
-4.433967471123e-001 -5.097568054199e+002
-4.394401609898e-001 -5.425510253906e+002
-4.354961216450e-001 -5.762885742188e+002
-4.315652847290e-001 -6.107763061523e+002
-4.276457428932e-001 -6.456748657227e+002
-4.237378239632e-001 -6.807852172852e+002
-4.198345541954e-001 -7.159915771484e+002
-4.159360527992e-001 -7.512333374023e+002
-4.120402634144e-001 -7.865473022461e+002
-4.081454277039e-001 -8.220860595703e+002
-4.042506515980e-001 -8.580899658203e+002
-4.003549516201e-001 -8.948567504883e+002
-3.964582085609e-001 -9.326340942383e+002
-3.925621509552e-001 -9.714699096680e+002
-3.886630237103e-001 -1.011057128906e+003
-3.847650587559e-001 -1.050963500977e+003
-3.808658421040e-001 -1.090680175781e+003
-3.769668936729e-001 -1.129748779297e+003
-3.730687797070e-001 -1.167753662109e+003
-3.691708743572e-001 -1.204514404297e+003
-3.652731776237e-001 -1.240014892578e+003
-3.613753318787e-001 -1.274439941406e+003
-3.574757575989e-001 -1.308154296875e+003
-3.535749018192e-001 -1.341648803711e+003
-3.496669828892e-001 -1.375426391602e+003
-3.457513451576e-001 -1.409882812500e+003
-3.418259322643e-001 -1.445327880859e+003
-3.378889560699e-001 -1.481989135742e+003
-3.339379727840e-001 -1.519966796875e+003
-3.299743831158e-001 -1.558880371094e+003
-3.259999752045e-001 -1.598032958984e+003
-3.220169246197e-001 -1.636463500977e+003
-3.180286288261e-001 -1.673107910156e+003
-3.140333592892e-001 -1.706892822266e+003
-3.100345134735e-001 -1.737360107422e+003
-3.060326874256e-001 -1.764211669922e+003
-3.020269870758e-001 -1.787295166016e+003
-2.980161607265e-001 -1.806477416992e+003
-2.939978241920e-001 -1.821400268555e+003
-2.899699807167e-001 -1.831909790039e+003
-2.859309613705e-001 -1.837332763672e+003
-2.818817198277e-001 -1.836696777344e+003
-2.778173387051e-001 -1.828743896484e+003
-2.737392783165e-001 -1.811775512695e+003
-2.696478664875e-001 -1.785645385742e+003
-2.655428946018e-001 -1.751018676758e+003
-2.614236176014e-001 -1.710465820313e+003
-2.572903633118e-001 -1.669157226563e+003
-2.531437277794e-001 -1.636808105469e+003
-2.489848583937e-001 -1.626317871094e+003
-2.448156774044e-001 -1.654076660156e+003
-2.406361848116e-001 -1.739477050781e+003
-2.364445030689e-001 -1.903899902344e+003
-2.322416901588e-001 -2.174756347656e+003
-2.280266284943e-001 -2.561880615234e+003
-2.237977087498e-001 -3.068860595703e+003
-2.195525020361e-001 -3.682286376953e+003
-2.152874022722e-001 -4.365915527344e+003
-2.109983265400e-001 -5.050623046875e+003
-2.066856324673e-001 -5.643749511719e+003
-2.023462057114e-001 -6.057786132813e+003
-1.979818940163e-001 -6.229319335938e+003
-1.935900151730e-001 -6.138812988281e+003
-1.891718655825e-001 -5.810471679688e+003
-1.847307085991e-001 -5.342249023438e+003
-1.802673935890e-001 -4.831773925781e+003
-1.757820993662e-001 -4.362999023438e+003
-1.712727993727e-001 -4.013084472656e+003
-1.667334139347e-001 -3.844663330078e+003
-1.621571332216e-001 -3.868664794922e+003
-1.575315594673e-001 -4.076189208984e+003
-1.528413742781e-001 -4.433940429688e+003
-1.480717360973e-001 -4.889009765625e+003
-1.432001441717e-001 -5.372661621094e+003
-1.382202655077e-001 -5.811254882813e+003
-1.331302374601e-001 -6.148931640625e+003
-1.279413253069e-001 -6.350875000000e+003
-1.226848736405e-001 -6.409693847656e+003
-1.174256876111e-001 -6.342614746094e+003
-1.122550815344e-001 -6.205753417969e+003
-1.073007285595e-001 -6.052306640625e+003
-1.027144864202e-001 -5.927856445313e+003
-9.866735339165e-002 -5.860788574219e+003
-9.538345783949e-002 -5.859869628906e+003
-9.296575933695e-002 -5.901810058594e+003
-9.146137535572e-002 -5.954639648438e+003
-9.078408032656e-002 -5.989457519531e+003
-9.065168350935e-002 -5.997925292969e+003
endcurve
