Curveplot
LS-DYNA keyword deck by LS-PrePost
Yrot-displ
phi moment-stiffness
Joint Stiff
300001 #pts=1000
* Minval= -2.198769531250e+004 at time=       0.149865701795
* Maxval=  4.131591406250e+004 at time=       1.888217806816
-2.888965866532e-008 -8.925040066242e-002
-3.079653865257e-008 -1.441307663918e-001
-2.808810073418e-008 -2.047869563103e-001
-1.855521603034e-008 -2.636443376541e-001
 8.778133775422e-011 -3.090958893299e-001
 2.988193514852e-008 -3.252105712891e-001
 7.288092263025e-008 -2.871097922325e-001
 1.279194066228e-007 -1.727688759565e-001
 1.920766976582e-007  3.961390629411e-002
 2.593122871986e-007  3.661954700947e-001
 3.196712441422e-007  8.140519857407e-001
 3.561695223198e-007  1.376265048981e+000
 3.492761777579e-007  2.001792430878e+000
 2.761204882518e-007  2.620599985123e+000
 1.121655657244e-007  3.145630598068e+000
-1.668345106509e-007  3.485095024109e+000
-5.925911068516e-007  3.539670705795e+000
-1.176889441012e-006  3.265049219131e+000
-1.932191253218e-006  2.635062217712e+000
-2.866717522920e-006  1.653014302254e+000
-3.984283466707e-006  3.519806563854e-001
-5.295507435221e-006 -1.230951309204e+000
-6.788974133087e-006 -3.027316808701e+000
-8.461610377708e-006 -4.992211341858e+000
-1.031171541399e-005 -7.104589939117e+000
-1.233936836798e-005 -9.382898330688e+000
-1.455653182347e-005 -1.189547348022e+001
-1.695708488114e-005 -1.471099758148e+001
-1.954180152097e-005 -1.791256904602e+001
-2.231070902781e-005 -2.158471679688e+001
-2.526019670768e-005 -2.580359077454e+001
-2.839107582986e-005 -3.067729949951e+001
-3.167811155436e-005 -3.624270248413e+001
-3.509735324769e-005 -4.255487060547e+001
-3.861672303174e-005 -4.967648696899e+001
-4.219372203806e-005 -5.766640472412e+001
-4.577063737088e-005 -6.662524414063e+001
-4.927286499878e-005 -7.653893280029e+001
-5.261716069072e-005 -8.739338684082e+001
-5.570568828261e-005 -9.915258789063e+001
-5.842798782396e-005 -1.117588882446e+002
-6.062846659916e-005 -1.251748275757e+002
-6.218116322998e-005 -1.392669677734e+002
-6.294667400653e-005 -1.539322509766e+002
-6.277285865508e-005 -1.691038970947e+002
-6.150118133519e-005 -1.847323455811e+002
-5.889377280255e-005 -2.008366241455e+002
-5.481641346705e-005 -2.174586181641e+002
-4.910952702630e-005 -2.347161712646e+002
-4.159484524280e-005 -2.527783660889e+002
-3.208481211914e-005 -2.718561401367e+002
-2.026790207310e-005 -2.922456970215e+002
-6.002120699122e-006 -3.141260681152e+002
 1.090031764761e-005 -3.376249694824e+002
 3.066846329602e-005 -3.627547912598e+002
 5.354030145099e-005 -3.893125305176e+002
 7.995004853001e-005 -4.168354187012e+002
 1.100615263567e-004 -4.443573913574e+002
 1.441000786144e-004 -4.705609130859e+002
 1.823367347242e-004 -4.937225341797e+002
 2.250280085718e-004 -5.117553710938e+002
 2.726636012085e-004 -5.218681030273e+002
 3.253352188040e-004 -5.218631591797e+002
 3.831435460597e-004 -5.101781311035e+002
 4.462342476472e-004 -4.862428588867e+002
 5.147235351615e-004 -4.512958374023e+002
 5.889133317396e-004 -4.092676391602e+002
 6.686751148663e-004 -3.689950256348e+002
 7.539720973000e-004 -3.432887268066e+002
 8.448753505945e-004 -3.495528564453e+002
 9.415765525773e-004 -4.096482849121e+002
 1.044752076268e-003 -5.537042846680e+002
 1.154965255409e-003 -8.081093750000e+002
 1.273163245060e-003 -1.193852539063e+003
 1.400861423463e-003 -1.724375000000e+003
 1.540024182759e-003 -2.397262451172e+003
 1.693906262517e-003 -3.187567138672e+003
 1.865355530754e-003 -4.020293457031e+003
 2.057199832052e-003 -4.786897949219e+003
 2.272329991683e-003 -5.366490234375e+003
 2.513097133487e-003 -5.662278320313e+003
 2.782201860100e-003 -5.628939453125e+003
 3.079268848523e-003 -5.334202148438e+003
 3.403216367587e-003 -4.907602050781e+003
 3.752836026251e-003 -4.492228515625e+003
 4.126964136958e-003 -4.218814941406e+003
 4.525700584054e-003 -4.196080566406e+003
 4.948440473527e-003 -4.465909667969e+003
 5.395567510277e-003 -5.006702636719e+003
 5.868802312762e-003 -5.753497070313e+003
 6.370637565851e-003 -6.605509765625e+003
 6.905167363584e-003 -7.441517578125e+003
 7.475231774151e-003 -8.152235839844e+003
 8.082607761025e-003 -8.682425781250e+003
 8.729325607419e-003 -9.028214843750e+003
 9.417013265193e-003 -9.233806640625e+003
 1.014813128859e-002 -9.376892578125e+003
 1.092327386141e-002 -9.548846679688e+003
 1.174209173769e-002 -9.812403320313e+003
 1.260591670871e-002 -1.019671386719e+004
 1.351637765765e-002 -1.069948437500e+004
 1.447728928179e-002 -1.129804589844e+004
 1.549091842026e-002 -1.195303027344e+004
 1.655879057944e-002 -1.262747949219e+004
 1.768366992474e-002 -1.329093359375e+004
 1.886831596494e-002 -1.391647851563e+004
 2.011788263917e-002 -1.447511718750e+004
 2.143424376845e-002 -1.493900292969e+004
 2.281733229756e-002 -1.528692871094e+004
 2.426915243268e-002 -1.550519042969e+004
 2.578984759748e-002 -1.559702832031e+004
 2.738246135414e-002 -1.558782812500e+004
 2.904614806175e-002 -1.553786328125e+004
 3.077941387892e-002 -1.552079394531e+004
 3.258148580790e-002 -1.560397949219e+004
 3.445281833410e-002 -1.583305566406e+004
 3.639717772603e-002 -1.622189062500e+004
 3.841526061296e-002 -1.673245703125e+004
 4.050771519542e-002 -1.729536132813e+004
 4.267668351531e-002 -1.783926953125e+004
 4.492423683405e-002 -1.830420703125e+004
 4.725519940257e-002 -1.865221484375e+004
 4.967089742422e-002 -1.888673046875e+004
 5.217044427991e-002 -1.904797460938e+004
 5.475432053208e-002 -1.918825390625e+004
 5.742375180125e-002 -1.935778125000e+004
 6.018213555217e-002 -1.959061132813e+004
 6.303116679192e-002 -1.988905078125e+004
 6.596928089857e-002 -2.022699804688e+004
 6.899820268154e-002 -2.056902539063e+004
 7.211887836456e-002 -2.087735937500e+004
 7.533665001392e-002 -2.111642382813e+004
 7.865131646395e-002 -2.126602148438e+004
 8.206220716238e-002 -2.133033007813e+004
 8.556865900755e-002 -2.132641796875e+004
 8.917115628719e-002 -2.128088281250e+004
 9.287175536156e-002 -2.122242382813e+004
 9.667121618986e-002 -2.117547460938e+004
 1.005660295486e-001 -2.115274023438e+004
 1.045561358333e-001 -2.115848046875e+004
 1.086416691542e-001 -2.119216015625e+004
 1.128246560693e-001 -2.125242382813e+004
 1.171075552702e-001 -2.133796289063e+004
 1.214873194695e-001 -2.144620703125e+004
 1.259648501873e-001 -2.157217773438e+004
 1.305407285690e-001 -2.170596289063e+004
 1.352184414864e-001 -2.183150390625e+004
 1.399996727705e-001 -2.192888867188e+004
 1.448822617531e-001 -2.198366210938e+004
 1.498657017946e-001 -2.198769531250e+004
 1.549514085054e-001 -2.194146679688e+004
 1.601403355598e-001 -2.185305468750e+004
 1.654340475798e-001 -2.173744335938e+004
 1.708291321993e-001 -2.160939062500e+004
 1.763248890638e-001 -2.147666796875e+004
 1.819209307432e-001 -2.133918359375e+004
 1.876193284988e-001 -2.118930273438e+004
 1.934207379818e-001 -2.101575195313e+004
 1.993218064308e-001 -2.081213671875e+004
 2.053204923868e-001 -2.057862304688e+004
 2.114167958498e-001 -2.032325585938e+004
 2.176114171743e-001 -2.006113281250e+004
 2.239048928022e-001 -1.981113476563e+004
 2.302933931351e-001 -1.958626757813e+004
 2.367748320103e-001 -1.939119140625e+004
 2.433490455151e-001 -1.922077929688e+004
 2.500186860561e-001 -1.906219726563e+004
 2.567830383778e-001 -1.889764257813e+004
 2.636398077011e-001 -1.871194921875e+004
 2.705890834332e-001 -1.849646484375e+004
 2.776289284229e-001 -1.824933398438e+004
 2.847614884377e-001 -1.797427343750e+004
 2.919872403145e-001 -1.767865625000e+004
 2.993013560772e-001 -1.736996093750e+004
 3.067039251328e-001 -1.705114453125e+004
 3.141914606094e-001 -1.672165234375e+004
 3.217664659023e-001 -1.637860449219e+004
 3.294286131859e-001 -1.601931152344e+004
 3.371739089489e-001 -1.564509179688e+004
 3.449994623661e-001 -1.525948242188e+004
 3.529036641121e-001 -1.486781445313e+004
 3.608870208263e-001 -1.447562792969e+004
 3.689503967762e-001 -1.408688183594e+004
 3.770880401134e-001 -1.370249707031e+004
 3.852986991405e-001 -1.331977636719e+004
 3.935805857182e-001 -1.293518066406e+004
 4.019331932068e-001 -1.254479589844e+004
 4.103582799435e-001 -1.214646484375e+004
 4.188498854637e-001 -1.174147558594e+004
 4.274064302444e-001 -1.133280468750e+004
 4.360260963440e-001 -1.092458886719e+004
 4.447101354599e-001 -1.052119921875e+004
 4.534567594528e-001 -1.012601953125e+004
 4.622621238232e-001 -9.738571289063e+003
 4.711262285709e-001 -9.355267578125e+003
 4.800449609756e-001 -8.969611328125e+003
 4.890190064907e-001 -8.573027343750e+003
 4.980477988720e-001 -8.155645507813e+003
 5.071275234222e-001 -7.711957031250e+003
 5.162561535835e-001 -7.239943359375e+003
 5.254337787628e-001 -6.742383789063e+003
 5.346574783325e-001 -6.226803710938e+003
 5.439276695251e-001 -5.705550781250e+003
 5.532401204109e-001 -5.193131347656e+003
 5.625877380371e-001 -4.702826171875e+003
 5.719696283340e-001 -4.246643554688e+003
 5.813837051392e-001 -3.835168945313e+003
 5.908266305923e-001 -3.478496337891e+003
 6.003007888794e-001 -3.177978515625e+003
 6.098046898842e-001 -2.934064208984e+003
 6.193425655365e-001 -2.744291503906e+003
 6.289157271385e-001 -2.603744384766e+003
 6.385250687599e-001 -2.505713134766e+003
 6.481657624245e-001 -2.438247558594e+003
 6.578363180161e-001 -2.392122558594e+003
 6.675316691399e-001 -2.359040527344e+003
 6.772476434708e-001 -2.332296875000e+003
 6.869810223579e-001 -2.307030273438e+003
 6.967262625694e-001 -2.280564453125e+003
 7.064830064774e-001 -2.252104248047e+003
 7.162557244301e-001 -2.221638916016e+003
 7.260448932648e-001 -2.189540039063e+003
 7.358608245850e-001 -2.156130126953e+003
 7.457044124603e-001 -2.121939453125e+003
 7.555815577507e-001 -2.087259765625e+003
 7.654930353165e-001 -2.052369873047e+003
 7.754383087158e-001 -2.017494140625e+003
 7.854213714600e-001 -1.982847290039e+003
 7.954372167587e-001 -1.948599853516e+003
 8.054803609848e-001 -1.914888793945e+003
 8.155464529991e-001 -1.881830932617e+003
 8.256280422211e-001 -1.849479370117e+003
 8.357217311859e-001 -1.817862670898e+003
 8.458186388016e-001 -1.786933715820e+003
 8.559174537659e-001 -1.756702392578e+003
 8.660144805908e-001 -1.727255859375e+003
 8.761117458344e-001 -1.698764892578e+003
 8.862052559853e-001 -1.671499145508e+003
 8.962955474854e-001 -1.645590209961e+003
 9.063830375671e-001 -1.621146972656e+003
 9.164692759514e-001 -1.598104736328e+003
 9.265521764755e-001 -1.576123413086e+003
 9.366357922554e-001 -1.554477783203e+003
 9.467173814774e-001 -1.532345581055e+003
 9.567977190018e-001 -1.509107299805e+003
 9.668771624565e-001 -1.484362670898e+003
 9.769554138184e-001 -1.457968017578e+003
 9.870318770409e-001 -1.429979858398e+003
 9.971070885658e-001 -1.401222412109e+003
 1.007180571556e+000 -1.373213012695e+003
 1.017256021500e+000 -1.348360229492e+003
 1.027330636978e+000 -1.330008544922e+003
 1.037406444550e+000 -1.323475708008e+003
 1.047484040260e+000 -1.333717041016e+003
 1.057563781738e+000 -1.366392211914e+003
 1.067647457123e+000 -1.426717041016e+003
 1.077733635902e+000 -1.518271728516e+003
 1.087826609612e+000 -1.643202880859e+003
 1.097925901413e+000 -1.793887939453e+003
 1.108032941818e+000 -1.956235229492e+003
 1.118149280548e+000 -2.107070556641e+003
 1.128272533417e+000 -2.211290283203e+003
 1.138403058052e+000 -2.212558349609e+003
 1.148533344269e+000 -2.052269042969e+003
 1.158656477928e+000 -1.665071533203e+003
 1.168762326241e+000 -9.868653564453e+002
 1.178835272789e+000  3.360540008545e+001
 1.188855528831e+000  1.437697509766e+003
 1.198804736137e+000  3.166904052734e+003
 1.208667755127e+000  5.097021972656e+003
 1.218432307243e+000  7.006806152344e+003
 1.228094696999e+000  8.586655273438e+003
 1.237655401230e+000  9.456930664063e+003
 1.247133374214e+000  9.433589843750e+003
 1.256550073624e+000  8.543151367188e+003
 1.265923619270e+000  7.012297363281e+003
 1.275273799896e+000  5.195509277344e+003
 1.284619331360e+000  3.497621582031e+003
 1.293968677521e+000  2.251868896484e+003
 1.303328990936e+000  1.669446411133e+003
 1.312702417374e+000  1.857150634766e+003
 1.322084546089e+000  2.814149169922e+003
 1.331469893456e+000  4.454251464844e+003
 1.340848445892e+000  6.515314453125e+003
 1.350209116936e+000  8.705386718750e+003
 1.359537363052e+000  1.072916601563e+004
 1.368819832802e+000  1.234519335938e+004
 1.378039360046e+000  1.339481542969e+004
 1.387185335159e+000  1.392215722656e+004
 1.396254301071e+000  1.406970703125e+004
 1.405244231224e+000  1.401966406250e+004
 1.414154410362e+000  1.393980761719e+004
 1.422984957695e+000  1.394496582031e+004
 1.431748509407e+000  1.406051464844e+004
 1.440461158752e+000  1.425647070313e+004
 1.449135065079e+000  1.449185937500e+004
 1.457786798477e+000  1.474823437500e+004
 1.466428756714e+000  1.505345605469e+004
 1.475071549416e+000  1.547500000000e+004
 1.483722090721e+000  1.608403613281e+004
 1.492379784584e+000  1.692286328125e+004
 1.501043081284e+000  1.797795898438e+004
 1.509703874588e+000  1.916928515625e+004
 1.518351435661e+000  2.034589257813e+004
 1.526971459389e+000  2.135623437500e+004
 1.535550713539e+000  2.207867578125e+004
 1.544076442719e+000  2.245191015625e+004
 1.552534818649e+000  2.248594335938e+004
 1.560920596123e+000  2.230855273438e+004
 1.569231987000e+000  2.208484960938e+004
 1.577471613884e+000  2.197315625000e+004
 1.585639238358e+000  2.208800585938e+004
 1.593742251396e+000  2.248173632813e+004
 1.601790070534e+000  2.310055273438e+004
 1.609796881676e+000  2.384199804688e+004
 1.617769479752e+000  2.459544335938e+004
 1.625715017319e+000  2.526886523438e+004
 1.633632421494e+000  2.580387695313e+004
 1.641517162323e+000  2.620120703125e+004
 1.649364829063e+000  2.649544335938e+004
 1.657163977623e+000  2.672950390625e+004
 1.664907217026e+000  2.694274804688e+004
 1.672583103180e+000  2.716709179688e+004
 1.680179476738e+000  2.742968164063e+004
 1.687686681747e+000  2.775846679688e+004
 1.695089578629e+000  2.818722070313e+004
 1.702369689941e+000  2.875013867188e+004
 1.709498286247e+000  2.947546093750e+004
 1.716446042061e+000  3.034574414063e+004
 1.723190188408e+000  3.129134765625e+004
 1.729713916779e+000  3.219871289063e+004
 1.736011028290e+000  3.293042187500e+004
 1.742085456848e+000  3.335807421875e+004
 1.747958302498e+000  3.344367578125e+004
 1.753650784492e+000  3.326514843750e+004
 1.759176015854e+000  3.297021093750e+004
 1.764538407326e+000  3.273015234375e+004
 1.769730687141e+000  3.268522265625e+004
 1.774746298790e+000  3.287076953125e+004
 1.779584169388e+000  3.322144531250e+004
 1.784241914749e+000  3.363187109375e+004
 1.788724184036e+000  3.400308203125e+004
 1.793041110039e+000  3.428505078125e+004
 1.797209382057e+000  3.451312890625e+004
 1.801247954369e+000  3.477255078125e+004
 1.805165529251e+000  3.514292187500e+004
 1.808968544006e+000  3.565446484375e+004
 1.812656879425e+000  3.626023046875e+004
 1.816233277321e+000  3.683129296875e+004
 1.819700121880e+000  3.723384765625e+004
 1.823054909706e+000  3.738178125000e+004
 1.826294779778e+000  3.726971093750e+004
 1.829411268234e+000  3.697791015625e+004
 1.832403182983e+000  3.665968750000e+004
 1.835275888443e+000  3.645197265625e+004
 1.838034272194e+000  3.643349609375e+004
 1.840682744980e+000  3.661233593750e+004
 1.843222022057e+000  3.693800000000e+004
 1.845659375191e+000  3.732583984375e+004
 1.848010778427e+000  3.772032812500e+004
 1.850295543671e+000  3.811779296875e+004
 1.852539062500e+000  3.855489062500e+004
 1.854767203331e+000  3.907811718750e+004
 1.857001543045e+000  3.968076171875e+004
 1.859251379967e+000  4.026320312500e+004
 1.861513733864e+000  4.066432812500e+004
 1.863770127296e+000  4.071859375000e+004
 1.865994811058e+000  4.032136718750e+004
 1.868159532547e+000  3.953844140625e+004
 1.870242238045e+000  3.858579296875e+004
 1.872221469879e+000  3.771559375000e+004
 1.874079823494e+000  3.713626171875e+004
 1.875801563263e+000  3.694886718750e+004
 1.877379059792e+000  3.708523437500e+004
 1.878815174103e+000  3.736258593750e+004
 1.880106925964e+000  3.760319140625e+004
 1.881250739098e+000  3.769331250000e+004
 1.882239103317e+000  3.762318359375e+004
 1.883072614670e+000  3.749508593750e+004
 1.883763194084e+000  3.744093750000e+004
 1.884321093559e+000  3.754701171875e+004
 1.884758949280e+000  3.782632421875e+004
 1.885091781616e+000  3.822341796875e+004
 1.885347962379e+000  3.864746484375e+004
 1.885568618774e+000  3.904560546875e+004
 1.885798335075e+000  3.942811328125e+004
 1.886081218719e+000  3.984826953125e+004
 1.886457204819e+000  4.035162890625e+004
 1.886949062347e+000  4.088640625000e+004
 1.887546181679e+000  4.127820703125e+004
 1.888217806816e+000  4.131591406250e+004
 1.888920664787e+000  4.085026562500e+004
 1.889607906342e+000  3.988736328125e+004
 1.890232682228e+000  3.865824609375e+004
 1.890761137009e+000  3.750335546875e+004
 1.891169309616e+000  3.669891406250e+004
 1.891443967819e+000  3.637922265625e+004
 1.891576170921e+000  3.650448046875e+004
 1.891560673714e+000  3.686272265625e+004
 1.891401052475e+000  3.719821875000e+004
 1.891096353531e+000  3.734655859375e+004
 1.890647888184e+000  3.727328906250e+004
 1.890055775642e+000  3.707176171875e+004
 1.889318704605e+000  3.691400781250e+004
 1.888440608978e+000  3.692223437500e+004
 1.887417197227e+000  3.710678906250e+004
 1.886244297028e+000  3.736556640625e+004
 1.884918093681e+000  3.752014843750e+004
 1.883434772491e+000  3.739363671875e+004
 1.881802201271e+000  3.694332421875e+004
 1.880023002625e+000  3.625432812500e+004
 1.878106713295e+000  3.551492968750e+004
 1.876067399979e+000  3.495638671875e+004
 1.873926401138e+000  3.477622265625e+004
 1.871714472771e+000  3.501927734375e+004
 1.869460225105e+000  3.562198437500e+004
 1.867195367813e+000  3.643736328125e+004
 1.864956617355e+000  3.728267187500e+004
 1.862782478333e+000  3.797452343750e+004
 1.860693216324e+000  3.838155859375e+004
 1.858689665794e+000  3.841066406250e+004
 1.856751203537e+000  3.802170312500e+004
 1.854843020439e+000  3.724295312500e+004
 1.852926492691e+000  3.619712890625e+004
 1.850967884064e+000  3.507379296875e+004
 1.848940372467e+000  3.402960156250e+004
 1.846821069717e+000  3.316777343750e+004
 1.844590187073e+000  3.252772265625e+004
 1.842231512070e+000  3.209699218750e+004
 1.839748144150e+000  3.183138671875e+004
 1.837141990662e+000  3.171597656250e+004
 1.834417223930e+000  3.175737500000e+004
 1.831574797630e+000  3.196745703125e+004
 1.828610777855e+000  3.232885742188e+004
 1.825529336929e+000  3.275659570313e+004
 1.822331547737e+000  3.313285546875e+004
 1.819021224976e+000  3.333004296875e+004
 1.815605282784e+000  3.324852734375e+004
 1.812091708183e+000  3.285521875000e+004
 1.808497428894e+000  3.224091015625e+004
 1.804838299751e+000  3.154671875000e+004
 1.801131606102e+000  3.093356250000e+004
 1.797398328781e+000  3.053663671875e+004
 1.793662190437e+000  3.042839453125e+004
 1.789942979813e+000  3.054496679688e+004
 1.786251664162e+000  3.075123828125e+004
 1.782585144043e+000  3.087660156250e+004
 1.778929829597e+000  3.077701171875e+004
 1.775264501572e+000  3.039291406250e+004
 1.771565437317e+000  2.981613671875e+004
 1.767816185951e+000  2.918706445313e+004
 1.764003396034e+000  2.864147265625e+004
 1.760118603706e+000  2.825489843750e+004
 1.756157875061e+000  2.801037890625e+004
 1.752130985260e+000  2.779600390625e+004
 1.748043060303e+000  2.750010937500e+004
 1.743899583817e+000  2.705925390625e+004
 1.739702105522e+000  2.649244921875e+004
 1.735448718071e+000  2.590893554688e+004
 1.731139898300e+000  2.545292382813e+004
 1.726775169373e+000  2.522762500000e+004
 1.722353100777e+000  2.526398046875e+004
 1.717873930931e+000  2.550546484375e+004
 1.713334679604e+000  2.580932617188e+004
 1.708735942841e+000  2.599758007813e+004
 1.704078316689e+000  2.594251562500e+004
 1.699365258217e+000  2.559507812500e+004
 1.694602608681e+000  2.499473632813e+004
 1.689798951149e+000  2.424860156250e+004
 1.684967517853e+000  2.349392578125e+004
 1.680119872093e+000  2.282131054688e+004
 1.675262212753e+000  2.227345312500e+004
 1.670401453972e+000  2.184727929688e+004
 1.665541052818e+000  2.151405468750e+004
 1.660684466362e+000  2.123678125000e+004
 1.655832052231e+000  2.100736718750e+004
 1.650984406471e+000  2.083812890625e+004
 1.646140813828e+000  2.074638281250e+004
 1.641300559044e+000  2.073545703125e+004
 1.636462569237e+000  2.076330859375e+004
 1.631626248360e+000  2.076235156250e+004
 1.626790761948e+000  2.065193164063e+004
 1.621954679489e+000  2.036396289063e+004
 1.617119312286e+000  1.985796484375e+004
 1.612282752991e+000  1.918107031250e+004
 1.607445955276e+000  1.841547070313e+004
 1.602609157562e+000  1.766559960938e+004
 1.597772240639e+000  1.703382617188e+004
 1.592933893204e+000  1.661296875000e+004
 1.588094115257e+000  1.642417187500e+004
 1.583252906799e+000  1.644489257813e+004
 1.578409671783e+000  1.660837109375e+004
 1.573563337326e+000  1.681768359375e+004
 1.568712592125e+000  1.695926953125e+004
 1.563857316971e+000  1.695144140625e+004
 1.558997631073e+000  1.676012890625e+004
 1.554134249687e+000  1.639798632813e+004
 1.549267292023e+000  1.591535546875e+004
 1.544398665428e+000  1.538387207031e+004
 1.539533615112e+000  1.487804882813e+004
 1.534676432610e+000  1.444766894531e+004
 1.529835343361e+000  1.412174511719e+004
 1.525018572807e+000  1.390990332031e+004
 1.520235300064e+000  1.381167382813e+004
 1.515495657921e+000  1.380445703125e+004
 1.510804057121e+000  1.386618066406e+004
 1.506163120270e+000  1.397206738281e+004
 1.501569509506e+000  1.409442871094e+004
 1.497016191483e+000  1.420095996094e+004
 1.492492318153e+000  1.426135253906e+004
 1.487990021706e+000  1.425351660156e+004
 1.483502149582e+000  1.416675292969e+004
 1.479027748108e+000  1.400623632813e+004
 1.474568367004e+000  1.379203125000e+004
 1.470129609108e+000  1.356289453125e+004
 1.465717315674e+000  1.335534472656e+004
 1.461339354515e+000  1.320172656250e+004
 1.457002878189e+000  1.312540039063e+004
 1.452712893486e+000  1.314198632813e+004
 1.448465466499e+000  1.324272851563e+004
 1.444254994392e+000  1.340789648438e+004
 1.440075159073e+000  1.361008691406e+004
 1.435917139053e+000  1.381920117188e+004
 1.431773543358e+000  1.400682421875e+004
 1.427637219429e+000  1.415643164063e+004
 1.423503041267e+000  1.426410351563e+004
 1.419366598129e+000  1.433459667969e+004
 1.415226936340e+000  1.437839453125e+004
 1.411084055901e+000  1.440812207031e+004
 1.406937718391e+000  1.443698242188e+004
 1.402789354324e+000  1.447484863281e+004
 1.398638129234e+000  1.453034863281e+004
 1.394484400749e+000  1.461208398438e+004
 1.390328049660e+000  1.473050000000e+004
 1.386169672012e+000  1.489077832031e+004
 1.382010340691e+000  1.509225781250e+004
 1.377851963043e+000  1.532691503906e+004
 1.373694777489e+000  1.557870312500e+004
 1.369539260864e+000  1.582459375000e+004
 1.365386009216e+000  1.604120996094e+004
 1.361234188080e+000  1.621394042969e+004
 1.357084512711e+000  1.633922070313e+004
 1.352937221527e+000  1.642605273438e+004
 1.348792791367e+000  1.649447265625e+004
 1.344653010368e+000  1.657146484375e+004
 1.340517878532e+000  1.667702539063e+004
 1.336386203766e+000  1.682036132813e+004
 1.332254409790e+000  1.699849414063e+004
 1.328117847443e+000  1.719746484375e+004
 1.323969125748e+000  1.739660937500e+004
 1.319801688194e+000  1.757799218750e+004
 1.315607190132e+000  1.773042773438e+004
 1.311378359795e+000  1.785040820313e+004
 1.307104110718e+000  1.794137890625e+004
 1.302783012390e+000  1.801395507813e+004
 1.298413991928e+000  1.807905468750e+004
 1.293998479843e+000  1.814484375000e+004
 1.289539575577e+000  1.821628125000e+004
 1.285035133362e+000  1.829584765625e+004
 1.280485868454e+000  1.838374218750e+004
 1.275891184807e+000  1.847935546875e+004
 1.271249055862e+000  1.858161132813e+004
 1.266559839249e+000  1.868801562500e+004
 1.261824846268e+000  1.879305273438e+004
 1.257049918175e+000  1.888691210938e+004
 1.252240896225e+000  1.895748828125e+004
 1.247400999069e+000  1.899234765625e+004
 1.242530703545e+000  1.898218554688e+004
 1.237626552582e+000  1.892290234375e+004
 1.232683300972e+000  1.882361718750e+004
 1.227695703506e+000  1.870236718750e+004
 1.222658872604e+000  1.858005859375e+004
 1.217569708824e+000  1.847608007813e+004
 1.212425112724e+000  1.840425585938e+004
 1.207224607468e+000  1.836537109375e+004
 1.201967477798e+000  1.834847460938e+004
 1.196651816368e+000  1.833691406250e+004
 1.191276669502e+000  1.831235546875e+004
 1.185841202736e+000  1.825817773438e+004
 1.180349469185e+000  1.816585546875e+004
 1.174805760384e+000  1.803583984375e+004
 1.169210076332e+000  1.787260742188e+004
 1.163561344147e+000  1.768271875000e+004
 1.157862663269e+000  1.747210546875e+004
 1.152105569839e+000  1.724661132813e+004
 1.146293520927e+000  1.701090820313e+004
 1.140430688858e+000  1.676880078125e+004
 1.134510993958e+000  1.652440625000e+004
 1.128535628319e+000  1.628249707031e+004
 1.122498631477e+000  1.604766210938e+004
 1.116400003433e+000  1.582198925781e+004
 1.110240578651e+000  1.560430371094e+004
 1.104021549225e+000  1.538962792969e+004
 1.097743391991e+000  1.516945117188e+004
 1.091407775879e+000  1.493386425781e+004
 1.085016965866e+000  1.467612695313e+004
 1.078573942184e+000  1.439338476563e+004
 1.072082996368e+000  1.408758593750e+004
 1.065546393394e+000  1.376470996094e+004
 1.058966994286e+000  1.343410351563e+004
 1.052345395088e+000  1.310393847656e+004
 1.045678615570e+000  1.277892578125e+004
 1.038963079453e+000  1.245985742188e+004
 1.032193303108e+000  1.214361425781e+004
 1.025368332863e+000  1.182368457031e+004
 1.018492698669e+000  1.149308398438e+004
 1.011568903923e+000  1.114581347656e+004
 1.004599809647e+000  1.077788671875e+004
 9.975866675377e-001  1.038740527344e+004
 9.905305504799e-001  9.976291992188e+003
 9.834340810776e-001  9.549872070313e+003
 9.762968420982e-001  9.114097656250e+003
 9.691168665886e-001  8.675499023438e+003
 9.618912935257e-001  8.240468750000e+003
 9.546177983284e-001  7.814607421875e+003
 9.472991228104e-001  7.401440917969e+003
 9.399377107620e-001  7.003192382813e+003
 9.325424432755e-001  6.620478027344e+003
 9.251159429550e-001  6.252330566406e+003
 9.176622033119e-001  5.895199707031e+003
 9.101985692978e-001  5.543353515625e+003
 9.027113318443e-001  5.190436035156e+003
 8.952131271362e-001  4.829658691406e+003
 8.876975178719e-001  4.454313476563e+003
 8.801619410515e-001  4.058780029297e+003
 8.726044297218e-001  3.640306396484e+003
 8.650245070457e-001  3.197206054688e+003
 8.574242591858e-001  2.729763427734e+003
 8.498059511185e-001  2.240882324219e+003
 8.421737551689e-001  1.738617675781e+003
 8.345323801041e-001  1.235960327148e+003
 8.268843889236e-001  7.484274291992e+002
 8.192326426506e-001  2.935122985840e+002
 8.115794062614e-001 -1.100096817017e+002
 8.039255738258e-001 -4.452897949219e+002
 7.962723374367e-001 -7.070344238281e+002
 7.886199355125e-001 -8.952872924805e+002
 7.809683680534e-001 -1.016608459473e+003
 7.733180522919e-001 -1.081394897461e+003
 7.656683325768e-001 -1.103209594727e+003
 7.580192089081e-001 -1.097274047852e+003
 7.503707408905e-001 -1.074684448242e+003
 7.427221536636e-001 -1.044317504883e+003
 7.350738048553e-001 -1.012748229980e+003
 7.274259328842e-001 -9.845736083984e+002
 7.197778820992e-001 -9.620086059570e+002
 7.121300697327e-001 -9.460098266602e+002
 7.044826149940e-001 -9.367550048828e+002
 6.968351006508e-001 -9.339924316406e+002
 6.891878843307e-001 -9.371215209961e+002
 6.815403103828e-001 -9.449458007813e+002
 6.738920211792e-001 -9.564814453125e+002
 6.662429571152e-001 -9.707564697266e+002
 6.585919857025e-001 -9.868375244141e+002
 6.509358286858e-001 -1.003809814453e+003
 6.432842612267e-001 -1.020861083984e+003
 6.356245279312e-001 -1.037378295898e+003
 6.279647350311e-001 -1.052885986328e+003
 6.203109025955e-001 -1.066981079102e+003
 6.126511693001e-001 -1.079252929688e+003
 6.050034165382e-001 -1.089511962891e+003
 5.973600745201e-001 -1.097512939453e+003
 5.897322893143e-001 -1.103062622070e+003
 5.821224451065e-001 -1.106015502930e+003
 5.745358467102e-001 -1.106251831055e+003
 5.669730901718e-001 -1.104031616211e+003
 5.594341754913e-001 -1.099613159180e+003
 5.519163608551e-001 -1.093353393555e+003
 5.444152355194e-001 -1.085691894531e+003
 5.369266867638e-001 -1.077128173828e+003
 5.294452905655e-001 -1.068251953125e+003
 5.219678878784e-001 -1.059604125977e+003
 5.144926905632e-001 -1.051720703125e+003
 5.070182681084e-001 -1.045126464844e+003
 4.995452761650e-001 -1.040314697266e+003
 4.920755922794e-001 -1.037425048828e+003
 4.846108555794e-001 -1.036437866211e+003
 4.771539866924e-001 -1.037047119141e+003
 4.697076082230e-001 -1.038609619141e+003
 4.622735381126e-001 -1.039935546875e+003
 4.548518955708e-001 -1.039314819336e+003
 4.474419951439e-001 -1.034531494141e+003
 4.400432705879e-001 -1.022788146973e+003
 4.326559305191e-001 -1.000612243652e+003
 4.252801239491e-001 -9.631746826172e+002
 4.179161190987e-001 -9.070728149414e+002
 4.105648696423e-001 -8.289838256836e+002
 4.032259583473e-001 -7.271539306641e+002
 3.958993852139e-001 -6.025201416016e+002
 3.885855376720e-001 -4.605892944336e+002
 3.812805414200e-001 -3.158001708984e+002
 3.739919364452e-001 -1.893644409180e+002
 3.667123615742e-001 -1.115874481201e+002
 3.594464659691e-001 -1.227386322021e+002
 3.521926105022e-001 -2.817302856445e+002
 3.449514508247e-001 -6.361011962891e+002
 3.377228081226e-001 -1.234261718750e+003
 3.305128812790e-001 -2.110609375000e+003
 3.233226835728e-001 -3.273012207031e+003
 3.161606788635e-001 -4.689751953125e+003
 3.090216815472e-001 -6.227236816406e+003
 3.019201159477e-001 -7.688016113281e+003
 2.948580682278e-001 -8.813256835938e+003
 2.878400981426e-001 -9.352006835938e+003
 2.808705568314e-001 -9.120184570313e+003
 2.739461958408e-001 -8.213373046875e+003
 2.670639455318e-001 -6.833691406250e+003
 2.602182030678e-001 -5.247390136719e+003
 2.534036636353e-001 -3.713210449219e+003
 2.466166615486e-001 -2.464361816406e+003
 2.398504316807e-001 -1.624831298828e+003
 2.331024110317e-001 -1.263740722656e+003
 2.263707816601e-001 -1.402031982422e+003
 2.196562737226e-001 -2.016258544922e+003
 2.129605114460e-001 -3.053486816406e+003
 2.062859833241e-001 -4.351555175781e+003
 1.996388435364e-001 -5.730500488281e+003
 1.930201053619e-001 -6.986489746094e+003
 1.864335536957e-001 -7.934254882813e+003
 1.798853129148e-001 -8.428560546875e+003
 1.733759641647e-001 -8.494364257813e+003
 1.669062674046e-001 -8.241325195313e+003
 1.604751497507e-001 -7.846791992188e+003
 1.540818214417e-001 -7.506580566406e+003
 1.477275788784e-001 -7.406668945313e+003
 1.414103060961e-001 -7.630758300781e+003
 1.351344883442e-001 -8.179675292969e+003
 1.288945376873e-001 -8.974482421875e+003
 1.226968094707e-001 -9.875338867188e+003
 1.165470108390e-001 -1.069869140625e+004
 1.104456037283e-001 -1.128137304688e+004
 1.043944060802e-001 -1.151627832031e+004
 9.839343279600e-002 -1.136163964844e+004
 9.244213253260e-002 -1.084697070313e+004
 8.654364943504e-002 -1.005971972656e+004
 8.068360388279e-002 -9.161917968750e+003
 7.486912608147e-002 -8.302458984375e+003
 6.908711045980e-002 -7.610604980469e+003
 6.333786994219e-002 -7.180634765625e+003
 5.762134864926e-002 -7.080759277344e+003
 5.193425342441e-002 -7.292874023438e+003
 4.627747833729e-002 -7.765522460938e+003
 4.065308719873e-002 -8.415212890625e+003
 3.506292775273e-002 -9.137918945313e+003
 2.951233275235e-002 -9.818131835938e+003
 2.400599233806e-002 -1.036201367188e+004
 1.853942498565e-002 -1.071529589844e+004
 1.311753783375e-002 -1.086139453125e+004
 7.741538807750e-003 -1.082126367188e+004
 2.412882167846e-003 -1.064309863281e+004
-2.870798343793e-003 -1.040535058594e+004
-8.110727183521e-003 -1.017154394531e+004
-1.330844126642e-002 -9.983447265625e+003
-1.846171729267e-002 -9.853297851563e+003
-2.357541210949e-002 -9.761324218750e+003
-2.864871732891e-002 -9.657736328125e+003
-3.368235751987e-002 -9.491438476563e+003
-3.867748007178e-002 -9.223974609375e+003
-4.363501444459e-002 -8.841389648438e+003
-4.855479300022e-002 -8.356883789063e+003
-5.344029515982e-002 -7.821609375000e+003
-5.829234421253e-002 -7.293972167969e+003
-6.311567127705e-002 -6.829537109375e+003
-6.791265308857e-002 -6.472281250000e+003
-7.268267869949e-002 -6.256616210938e+003
-7.742776721716e-002 -6.185222656250e+003
-8.214843273163e-002 -6.245592285156e+003
-8.684483170509e-002 -6.413960449219e+003
-9.151593595743e-002 -6.656829101563e+003
-9.615883231163e-002 -6.933557128906e+003
-1.007737442851e-001 -7.196495117188e+003
-1.053580939770e-001 -7.403757324219e+003
-1.099117621779e-001 -7.519341796875e+003
-1.144359111786e-001 -7.516899414063e+003
-1.189271360636e-001 -7.377769531250e+003
-1.233878284693e-001 -7.111760253906e+003
-1.278191804886e-001 -6.742406250000e+003
-1.322223693132e-001 -6.300886718750e+003
-1.365995854139e-001 -5.822094238281e+003
-1.409516781569e-001 -5.340917968750e+003
-1.452797800303e-001 -4.888363769531e+003
-1.495887637138e-001 -4.485051757813e+003
-1.538795381784e-001 -4.142449218750e+003
-1.581519395113e-001 -3.862249755859e+003
-1.624069660902e-001 -3.638448730469e+003
-1.666459739208e-001 -3.452830566406e+003
-1.708698570728e-001 -3.285795410156e+003
-1.750793606043e-001 -3.120264160156e+003
-1.792744994164e-001 -2.944236816406e+003
-1.834553480148e-001 -2.753158203125e+003
-1.876223832369e-001 -2.553722412109e+003
-1.917792558670e-001 -2.360219726563e+003
-1.959280371666e-001 -2.190544189453e+003
-2.000691890717e-001 -2.062302246094e+003
-2.042030841112e-001 -1.991268066406e+003
-2.083295285702e-001 -1.980070434570e+003
-2.124474942684e-001 -2.022436401367e+003
-2.165561020374e-001 -2.103812744141e+003
-2.206538319588e-001 -2.202122070313e+003
-2.247376888990e-001 -2.288458496094e+003
-2.288126051426e-001 -2.334017089844e+003
-2.328772246838e-001 -2.320379394531e+003
-2.369328588247e-001 -2.241359619141e+003
-2.409801185131e-001 -2.104460937500e+003
-2.450189739466e-001 -1.927312133789e+003
-2.490508109331e-001 -1.735666259766e+003
-2.530760169029e-001 -1.551294189453e+003
-2.570930719376e-001 -1.389579711914e+003
-2.611098289490e-001 -1.258901733398e+003
-2.651188969612e-001 -1.162468017578e+003
-2.691277265549e-001 -1.096508666992e+003
-2.731345891953e-001 -1.055002807617e+003
-2.771391868591e-001 -1.032224731445e+003
-2.811414003372e-001 -1.023052978516e+003
-2.851396501064e-001 -1.023692321777e+003
-2.891319692135e-001 -1.030853637695e+003
-2.931153476238e-001 -1.042176879883e+003
-2.970903217793e-001 -1.055847045898e+003
-3.010514080524e-001 -1.070328002930e+003
-3.050012886524e-001 -1.084280517578e+003
-3.089390099049e-001 -1.096604614258e+003
-3.128663599491e-001 -1.106533447266e+003
-3.167856931686e-001 -1.113475097656e+003
-3.206991851330e-001 -1.117110473633e+003
-3.246088624001e-001 -1.117320556641e+003
-3.285165429115e-001 -1.114530883789e+003
-3.324213325977e-001 -1.109631713867e+003
-3.363286852837e-001 -1.103774780273e+003
-3.402367532253e-001 -1.098233032227e+003
-3.441459238529e-001 -1.094213989258e+003
-3.480561375618e-001 -1.092461669922e+003
-3.519670963287e-001 -1.093089965820e+003
-3.558789193630e-001 -1.095808349609e+003
-3.597910702229e-001 -1.099977416992e+003
-3.637011349201e-001 -1.104685913086e+003
-3.676145970821e-001 -1.108842773438e+003
-3.715232014656e-001 -1.111597534180e+003
-3.754330575466e-001 -1.112371093750e+003
-3.793416917324e-001 -1.110913574219e+003
-3.832487761974e-001 -1.107331176758e+003
-3.871552348137e-001 -1.102222900391e+003
-3.910613656044e-001 -1.096379150391e+003
-3.949679434299e-001 -1.090499389648e+003
-3.988766968250e-001 -1.085074340820e+003
-4.027895331383e-001 -1.080281372070e+003
-4.067065417767e-001 -1.075867431641e+003
-4.106344580650e-001 -1.071311523438e+003
-4.145728051662e-001 -1.065990966797e+003
-4.185233712196e-001 -1.059302124023e+003
-4.224866032600e-001 -1.050791137695e+003
-4.264610409737e-001 -1.040388549805e+003
-4.304443001747e-001 -1.028448730469e+003
-4.344331920147e-001 -1.015562072754e+003
-4.384275078773e-001 -1.002465332031e+003
-4.424210488796e-001 -9.898526000977e+002
-4.464170336723e-001 -9.781868286133e+002
-4.504129588604e-001 -9.674845581055e+002
-4.544084072113e-001 -9.573864746094e+002
-4.584041237831e-001 -9.472506713867e+002
-4.624009430408e-001 -9.362819824219e+002
-4.664001166821e-001 -9.237185058594e+002
-4.704025983810e-001 -9.091170654297e+002
-4.744103848934e-001 -8.922742309570e+002
-4.784258306026e-001 -8.732694702148e+002
-4.824485480785e-001 -8.523756103516e+002
-4.864774942398e-001 -8.300825805664e+002
-4.905096888542e-001 -8.069794311523e+002
-4.945419132710e-001 -7.835437622070e+002
-4.985699951649e-001 -7.601571655273e+002
-5.025904178619e-001 -7.370869140625e+002
-5.066030025482e-001 -7.144111938477e+002
-5.106096863747e-001 -6.919799194336e+002
-5.146119594574e-001 -6.695327148438e+002
-5.186200737953e-001 -6.467681274414e+002
-5.226376652718e-001 -6.234089965820e+002
-5.266726016998e-001 -5.993331909180e+002
-5.307291150093e-001 -5.746509399414e+002
-5.348098874092e-001 -5.495417480469e+002
-5.389156341553e-001 -5.242170410156e+002
-5.430453419685e-001 -4.988849487305e+002
-5.471946001053e-001 -4.737239074707e+002
-5.513660907745e-001 -4.488103637695e+002
-5.555570125580e-001 -4.241268920898e+002
-5.597687959671e-001 -3.995791015625e+002
-5.640032887459e-001 -3.751444702148e+002
-5.682623982430e-001 -3.503771667480e+002
-5.725448727608e-001 -3.251654663086e+002
-5.768482089043e-001 -2.993220214844e+002
-5.811686515808e-001 -2.727833862305e+002
-5.855017304420e-001 -2.456441040039e+002
-5.898398160934e-001 -2.181342315674e+002
-5.941835045815e-001 -1.905663146973e+002
-5.985267758369e-001 -1.632266845703e+002
-6.028674840927e-001 -1.363360900879e+002
-6.072036623955e-001 -1.100341491699e+002
-6.115342974663e-001 -8.431318664551e+001
-6.158608794212e-001 -5.896529388428e+001
-6.201848387718e-001 -3.370458984375e+001
-6.245090961456e-001 -8.203434944153e+000
-6.288367509842e-001  1.784706878662e+001
-6.331781148911e-001  4.466176605225e+001
-6.375380754471e-001  7.222469329834e+001
-6.419243216515e-001  1.003775100708e+002
-6.463432312012e-001  1.288263549805e+002
-6.508002877235e-001  1.571662292480e+002
-6.552998423576e-001  1.849595031738e+002
-6.598396301270e-001  2.119751586914e+002
-6.644149422646e-001  2.381484527588e+002
-6.690273284912e-001  2.635790710449e+002
-6.736681461334e-001  2.884801635742e+002
-6.783308982849e-001  3.131156616211e+002
-6.830064058304e-001  3.376965332031e+002
-6.876880526543e-001  3.622808837891e+002
-6.923714280128e-001  3.867976379395e+002
-6.970534920692e-001  4.110946960449e+002
-7.017336487770e-001  4.349677124023e+002
-7.064126729965e-001  4.582471923828e+002
-7.110987305641e-001  4.807783508301e+002
-7.157937884331e-001  5.024670715332e+002
-7.205103635788e-001  5.233050537109e+002
-7.252573370934e-001  5.434080810547e+002
-7.300419807434e-001  5.630095214844e+002
-7.348699569702e-001  5.823035888672e+002
-7.397438287735e-001  6.014457397461e+002
-7.446621060371e-001  6.205220947266e+002
-7.496195435524e-001  6.395066528320e+002
-7.546064853668e-001  6.582755126953e+002
-7.596107721329e-001  6.766560058594e+002
-7.646306753159e-001  6.944794921875e+002
-7.696576118469e-001  7.116010131836e+002
-7.746881842613e-001  7.278610229492e+002
-7.797234058380e-001  7.431843872070e+002
-7.847663760185e-001  7.575052490234e+002
-7.898227572441e-001  7.708306884766e+002
-7.949015498161e-001  7.832048339844e+002
-8.000127673149e-001  7.946743164063e+002
-8.051624894142e-001  8.053885498047e+002
-8.103596568108e-001  8.154338989258e+002
-8.156023025513e-001  8.248473510742e+002
-8.208862543106e-001  8.336080322266e+002
-8.262056708336e-001  8.416221923828e+002
-8.315494060516e-001  8.488403320313e+002
-8.369097113609e-001  8.551901855469e+002
-8.422813415527e-001  8.606599121094e+002
-8.476636409760e-001  8.653359375000e+002
-8.530538678169e-001  8.693746948242e+002
-8.584629297256e-001  8.730060424805e+002
-8.638943433762e-001  8.764138793945e+002
-8.693569302559e-001  8.796823730469e+002
-8.748587369919e-001  8.827487182617e+002
-8.804075121880e-001  8.854118041992e+002
-8.860009312630e-001  8.874616088867e+002
-8.916329741478e-001  8.886777343750e+002
-8.972995281219e-001  8.888343505859e+002
-9.029874205589e-001  8.876961059570e+002
-9.086968898773e-001  8.850261840820e+002
-9.144201278687e-001  8.808938598633e+002
-9.201567769051e-001  8.754298095703e+002
-9.259101152420e-001  8.688610839844e+002
-9.316860437393e-001  8.614535522461e+002
-9.374939799309e-001  8.534665527344e+002
-9.433419108391e-001  8.451647338867e+002
-9.492353200912e-001  8.366912231445e+002
-9.551723599434e-001  8.280938720703e+002
-9.611576199532e-001  8.192979736328e+002
-9.671828746796e-001  8.100483398438e+002
-9.732401967049e-001  7.999964599609e+002
-9.793236255646e-001  7.887113037109e+002
-9.854291677475e-001  7.757666015625e+002
-9.915555119514e-001  7.608025512695e+002
-9.977030158043e-001  7.434639892578e+002
-1.003868460655e+000  7.239601440430e+002
-1.010053396225e+000  7.027410278320e+002
-1.016252756119e+000  6.807385864258e+002
-1.022469997406e+000  6.594530029297e+002
-1.028705358505e+000  6.413110961914e+002
-1.034961342812e+000  6.289633789063e+002
-1.041244864464e+000  6.251033325195e+002
-1.047564387321e+000  6.326104125977e+002
-1.053929448128e+000  6.537501220703e+002
-1.060352802277e+000  6.901682739258e+002
-1.066835880280e+000  7.388723144531e+002
-1.073393344879e+000  7.939642944336e+002
-1.080031394958e+000  8.448928833008e+002
-1.086760759354e+000  8.757214355469e+002
-1.093598842621e+000  8.601087646484e+002
-1.100546598434e+000  7.710123291016e+002
-1.107600450516e+000  5.770973510742e+002
-1.114741921425e+000  2.472923583984e+002
-1.121923446655e+000 -2.442851104736e+002
-1.129070639610e+000 -9.221771850586e+002
-1.136052966118e+000 -1.763683227539e+003
-1.142712235451e+000 -2.721614990234e+003
-1.148851275444e+000 -3.708703857422e+003
-1.154249548912e+000 -4.607835449219e+003
-1.158615112305e+000 -5.291403320313e+003
-1.161820888519e+000 -5.719079101563e+003
-1.163811326027e+000 -5.922236816406e+003
-1.164705991745e+000 -5.983644042969e+003
-1.164880633354e+000 -5.990775878906e+003
endcurve
