Curveplot
LS-DYNA keyword deck by LS-PrePost
Abscissa
Ordinate
XY data
NBDLHeadzCoo-1 #pts=2000
* Minval=     3.4835098267e+01 at time=       143.9995727539
* Maxval=     1.5358110046e+02 at time=         0.0000000000
    0.0000000000e+00    1.5358110046e+02
    9.9982611835e-02    1.5358110046e+02
    1.9999013841e-01    1.5358110046e+02
    2.9999765754e-01    1.5358110046e+02
    3.9998027682e-01    1.5358110046e+02
    4.9998307228e-01    1.5358110046e+02
    5.9997904301e-01    1.5358110046e+02
    6.9997501373e-01    1.5358110046e+02
    7.9999744892e-01    1.5358110046e+02
    8.9999294281e-01    1.5358110046e+02
    9.9999505281e-01    1.5358110046e+02
    1.0999777317e+00    1.5358110046e+02
    1.1999851465e+00    1.5358110046e+02
    1.2999964952e+00    1.5358110046e+02
    1.3999924660e+00    1.5358110046e+02
    1.4999971390e+00    1.5358110046e+02
    1.5999842882e+00    1.5358110046e+02
    1.6999974251e+00    1.5358110046e+02
    1.7999792099e+00    1.5358110046e+02
    1.8999910355e+00    1.5358110046e+02
    1.9999946356e+00    1.5358110046e+02
    2.0999753475e+00    1.5358110046e+02
    2.1999874115e+00    1.5358110046e+02
    2.2999742031e+00    1.5358110046e+02
    2.3999938965e+00    1.5358110046e+02
    2.4999840260e+00    1.5358110046e+02
    2.5999917984e+00    1.5358110046e+02
    2.6999990940e+00    1.5358110046e+02
    2.7999818325e+00    1.5358110046e+02
    2.8999893665e+00    1.5358110046e+02
    2.9999969006e+00    1.5358110046e+02
    3.0999794006e+00    1.5358110046e+02
    3.1999869347e+00    1.5358110046e+02
    3.2999944687e+00    1.5358110046e+02
    3.3999772072e+00    1.5358110046e+02
    3.4999847412e+00    1.5358110046e+02
    3.5999922752e+00    1.5358110046e+02
    3.6999747753e+00    1.5358110046e+02
    3.7999823093e+00    1.5358110046e+02
    3.8999898434e+00    1.5358110046e+02
    3.9999971390e+00    1.5358110046e+02
    4.0999794006e+00    1.5358110046e+02
    4.1999869347e+00    1.5358110046e+02
    4.2999854088e+00    1.5358110046e+02
    4.3999938965e+00    1.5358110046e+02
    4.4999737740e+00    1.5358110046e+02
    4.5999808311e+00    1.5358110046e+02
    4.6999878883e+00    1.5358110046e+02
    4.7999944687e+00    1.5358110046e+02
    4.8999762535e+00    1.5358110046e+02
    4.9999828339e+00    1.5358110046e+02
    5.0999894142e+00    1.5358110046e+02
    5.1999955177e+00    1.5358110046e+02
    5.2999763489e+00    1.5358110046e+02
    5.3999824524e+00    1.5358110046e+02
    5.4999880791e+00    1.5358110046e+02
    5.5999941826e+00    1.5358110046e+02
    5.6999759674e+00    1.5358110046e+02
    5.7999825478e+00    1.5358110046e+02
    5.8999886513e+00    1.5358110046e+02
    5.9999947548e+00    1.5358110046e+02
    6.0999770164e+00    1.5358110046e+02
    6.1999835968e+00    1.5358110046e+02
    6.2999906540e+00    1.5358110046e+02
    6.3999729156e+00    1.5358110046e+02
    6.4999799728e+00    1.5358110046e+02
    6.5999860764e+00    1.5358110046e+02
    6.6999917030e+00    1.5358110046e+02
    6.7999734879e+00    1.5358110046e+02
    6.8999810219e+00    1.5358110046e+02
    6.9999871254e+00    1.5358110046e+02
    7.0999941826e+00    1.5358110046e+02
    7.1999754906e+00    1.5358110046e+02
    7.2999820709e+00    1.5358110046e+02
    7.3999896049e+00    1.5358110046e+02
    7.4999704361e+00    1.5358110046e+02
    7.5999774933e+00    1.5358110046e+02
    7.6999840736e+00    1.5358110046e+02
    7.7999911308e+00    1.5358110046e+02
    7.8999729156e+00    1.5358110046e+02
    7.9999799728e+00    1.5358110046e+02
    8.0999860764e+00    1.5358110046e+02
    8.1999931335e+00    1.5358110046e+02
    8.2999753952e+00    1.5358110046e+02
    8.3999824524e+00    1.5358110046e+02
    8.4999895096e+00    1.5358110046e+02
    8.5999956131e+00    1.5358110046e+02
    8.6999778748e+00    1.5358110046e+02
    8.7999849319e+00    1.5358110046e+02
    8.8999919891e+00    1.5358110046e+02
    8.9999742508e+00    1.5358110046e+02
    9.0999803543e+00    1.5358110046e+02
    9.1999883652e+00    1.5358110046e+02
    9.2999944687e+00    1.5358110046e+02
    9.3999767303e+00    1.5358110046e+02
    9.4999837875e+00    1.5358110046e+02
    9.5999908447e+00    1.5358110046e+02
    9.6999988556e+00    1.5358110046e+02
    9.7999801636e+00    1.5358110046e+02
    9.8999872208e+00    1.5358110046e+02
    9.9999942780e+00    1.5358110046e+02
    1.0099976540e+01    1.5358110046e+02
    1.0199983597e+01    1.5358110046e+02
    1.0299990654e+01    1.5358110046e+02
    1.0399998665e+01    1.5358110046e+02
    1.0499980927e+01    1.5358110046e+02
    1.0599987984e+01    1.5358110046e+02
    1.0699995041e+01    1.5358110046e+02
    1.0800003052e+01    1.5358110046e+02
    1.0899985313e+01    1.5358110046e+02
    1.0999992371e+01    1.5358110046e+02
    1.1100000381e+01    1.5358110046e+02
    1.1199981689e+01    1.5358110046e+02
    1.1299989700e+01    1.5358110046e+02
    1.1399996758e+01    1.5358110046e+02
    1.1500003815e+01    1.5358110046e+02
    1.1599987030e+01    1.5358110046e+02
    1.1699994087e+01    1.5358110046e+02
    1.1800002098e+01    1.5358110046e+02
    1.1899984360e+01    1.5358110046e+02
    1.1999992371e+01    1.5358110046e+02
    1.2099999428e+01    1.5358110046e+02
    1.2200007439e+01    1.5358110046e+02
    1.2299988747e+01    1.5358110046e+02
    1.2399996758e+01    1.5358110046e+02
    1.2500003815e+01    1.5358110046e+02
    1.2599987030e+01    1.5358110046e+02
    1.2699994087e+01    1.5358110046e+02
    1.2800002098e+01    1.5358110046e+02
    1.2900009155e+01    1.5358110046e+02
    1.2999992371e+01    1.5358110046e+02
    1.3100000381e+01    1.5358110046e+02
    1.3200007439e+01    1.5358110046e+02
    1.3299989700e+01    1.5358110046e+02
    1.3399997711e+01    1.5358110046e+02
    1.3500004768e+01    1.5358110046e+02
    1.3600012779e+01    1.5358110046e+02
    1.3699995995e+01    1.5358110046e+02
    1.3800004005e+01    1.5358110046e+02
    1.3900011063e+01    1.5358110046e+02
    1.3999994278e+01    1.5358110046e+02
    1.4100002289e+01    1.5358110046e+02
    1.4200010300e+01    1.5358110046e+02
    1.4300017357e+01    1.5358110046e+02
    1.4399999619e+01    1.5358110046e+02
    1.4500007629e+01    1.5358110046e+02
    1.4600015640e+01    1.5358110046e+02
    1.4699998856e+01    1.5358110046e+02
    1.4800006866e+01    1.5358110046e+02
    1.4900013924e+01    1.5358110046e+02
    1.4999997139e+01    1.5358110046e+02
    1.5100005150e+01    1.5358110046e+02
    1.5200013161e+01    1.5358110046e+02
    1.5300021172e+01    1.5358110046e+02
    1.5400004387e+01    1.5358110046e+02
    1.5500012398e+01    1.5358110046e+02
    1.5600020409e+01    1.5358110046e+02
    1.5700002670e+01    1.5358110046e+02
    1.5800010681e+01    1.5358110046e+02
    1.5900018692e+01    1.5358110046e+02
    1.6000001907e+01    1.5358110046e+02
    1.6100009918e+01    1.5358110046e+02
    1.6200017929e+01    1.5358110046e+02
    1.6300001144e+01    1.5358110046e+02
    1.6400009155e+01    1.5358110046e+02
    1.6500017166e+01    1.5358110046e+02
    1.6600021362e+01    1.5358110046e+02
    1.6700004578e+01    1.5358110046e+02
    1.6800012589e+01    1.5358110046e+02
    1.6900020599e+01    1.5358110046e+02
    1.7000005722e+01    1.5358110046e+02
    1.7100013733e+01    1.5358110046e+02
    1.7200021744e+01    1.5358110046e+02
    1.7300029755e+01    1.5358110046e+02
    1.7400026321e+01    1.5358110046e+02
    1.7500009537e+01    1.5358110046e+02
    1.7600023270e+01    1.5358110046e+02
    1.7700006485e+01    1.5358110046e+02
    1.7800006866e+01    1.5358110046e+02
    1.7900014877e+01    1.5358110046e+02
    1.8000022888e+01    1.5358110046e+02
    1.8100021362e+01    1.5358110046e+02
    1.8200017929e+01    1.5358110046e+02
    1.8300025940e+01    1.5358110046e+02
    1.8400007248e+01    1.5358110046e+02
    1.8500017166e+01    1.5358110046e+02
    1.8600025177e+01    1.5358110046e+02
    1.8700033188e+01    1.5358110046e+02
    1.8800016403e+01    1.5358110046e+02
    1.8900028229e+01    1.5358110046e+02
    1.9000019073e+01    1.5358110046e+02
    1.9100019455e+01    1.5358110046e+02
    1.9200027466e+01    1.5358110046e+02
    1.9300022125e+01    1.5358110046e+02
    1.9400030136e+01    1.5358110046e+02
    1.9500013351e+01    1.5358110046e+02
    1.9600023270e+01    1.5358110046e+02
    1.9700031281e+01    1.5358110046e+02
    1.9800014496e+01    1.5358110046e+02
    1.9900022507e+01    1.5358110046e+02
    2.0000032425e+01    1.5358110046e+02
    2.0100015640e+01    1.5358110046e+02
    2.0200021744e+01    1.5358110046e+02
    2.0300029755e+01    1.5358110046e+02
    2.0400037766e+01    1.5358110046e+02
    2.0500020981e+01    1.5358110046e+02
    2.0600023270e+01    1.5358110046e+02
    2.0700021744e+01    1.5358110046e+02
    2.0800016403e+01    1.5358110046e+02
    2.0900037766e+01    1.5358110046e+02
    2.1000024796e+01    1.5358110046e+02
    2.1100040436e+01    1.5358110046e+02
    2.1200025558e+01    1.5358110046e+02
    2.1300033569e+01    1.5358110046e+02
    2.1400041580e+01    1.5358110046e+02
    2.1500038147e+01    1.5358110046e+02
    2.1600021362e+01    1.5358110046e+02
    2.1700029373e+01    1.5358110046e+02
    2.1800039291e+01    1.5358110046e+02
    2.1900022507e+01    1.5358110046e+02
    2.2000030518e+01    1.5358110046e+02
    2.2100038528e+01    1.5358110046e+02
    2.2200023651e+01    1.5358110046e+02
    2.2300031662e+01    1.5358110046e+02
    2.2400039673e+01    1.5358110046e+02
    2.2500024796e+01    1.5358110046e+02
    2.2600032806e+01    1.5358110046e+02
    2.2700040817e+01    1.5358110046e+02
    2.2800025940e+01    1.5358110046e+02
    2.2900030136e+01    1.5358110046e+02
    2.3000034332e+01    1.5358110046e+02
    2.3100046158e+01    1.5358110046e+02
    2.3200031281e+01    1.5358110046e+02
    2.3300039291e+01    1.5358110046e+02
    2.3400039673e+01    1.5358110046e+02
    2.3500040054e+01    1.5358110046e+02
    2.3600051880e+01    1.5358110046e+02
    2.3700035095e+01    1.5358110046e+02
    2.3800043106e+01    1.5358110046e+02
    2.3900053024e+01    1.5358110046e+02
    2.4000036240e+01    1.5358110046e+02
    2.4100046158e+01    1.5358110046e+02
    2.4200054169e+01    1.5358110046e+02
    2.4300037384e+01    1.5358110046e+02
    2.4400041580e+01    1.5358110046e+02
    2.4500051498e+01    1.5358110046e+02
    2.4600042343e+01    1.5358110046e+02
    2.4700037003e+01    1.5358110046e+02
    2.4800046921e+01    1.5358110046e+02
    2.4900049210e+01    1.5358110046e+02
    2.5000036240e+01    1.5358110046e+02
    2.5100042343e+01    1.5358110046e+02
    2.5200054169e+01    1.5358110046e+02
    2.5300050735e+01    1.5358110046e+02
    2.5400056839e+01    1.5358110046e+02
    2.5500055313e+01    1.5358110046e+02
    2.5600044250e+01    1.5358110046e+02
    2.5700050354e+01    1.5358110046e+02
    2.5800056458e+01    1.5358110046e+02
    2.5900045395e+01    1.5358110046e+02
    2.6000040054e+01    1.5358110046e+02
    2.6100040436e+01    1.5358110046e+02
    2.6200061798e+01    1.5358110046e+02
    2.6300060272e+01    1.5358110046e+02
    2.6400062561e+01    1.5358110046e+02
    2.6500062943e+01    1.5358110046e+02
    2.6600055695e+01    1.5358110046e+02
    2.6700040817e+01    1.5358110046e+02
    2.6800060272e+01    1.5358110046e+02
    2.6900051117e+01    1.5358110046e+02
    2.7000059128e+01    1.5358110046e+02
    2.7100048065e+01    1.5358110046e+02
    2.7200056076e+01    1.5358110046e+02
    2.7300045013e+01    1.5358110046e+02
    2.7400045395e+01    1.5358110046e+02
    2.7500057220e+01    1.5358110046e+02
    2.7600046158e+01    1.5358110046e+02
    2.7700067520e+01    1.5358110046e+02
    2.7800048828e+01    1.5358110046e+02
    2.7900058746e+01    1.5358110046e+02
    2.8000062943e+01    1.5358110046e+02
    2.8100055695e+01    1.5358110046e+02
    2.8200048447e+01    1.5358110046e+02
    2.8300069809e+01    1.5358110046e+02
    2.8400068283e+01    1.5358110046e+02
    2.8500057220e+01    1.5358110046e+02
    2.8600049973e+01    1.5358110046e+02
    2.8700048447e+01    1.5358110046e+02
    2.8800048828e+01    1.5358110046e+02
    2.8900062561e+01    1.5358110046e+02
    2.9000064850e+01    1.5358110046e+02
    2.9100065231e+01    1.5358110046e+02
    2.9200063705e+01    1.5358110046e+02
    2.9300060272e+01    1.5358110046e+02
    2.9400054932e+01    1.5358009338e+02
    2.9500053406e+01    1.5358009338e+02
    2.9600063324e+01    1.5358009338e+02
    2.9700071335e+01    1.5358009338e+02
    2.9800060272e+01    1.5358009338e+02
    2.9900058746e+01    1.5358009338e+02
    3.0000059128e+01    1.5358009338e+02
    3.0100061417e+01    1.5358009338e+02
    3.0200065613e+01    1.5358009338e+02
    3.0300073624e+01    1.5358009338e+02
    3.0400074005e+01    1.5358009338e+02
    3.0500059128e+01    1.5358009338e+02
    3.0600065231e+01    1.5358009338e+02
    3.0700059891e+01    1.5358009338e+02
    3.0800069809e+01    1.5358009338e+02
    3.0900072098e+01    1.5358009338e+02
    3.1000062943e+01    1.5358009338e+02
    3.1100072861e+01    1.5358009338e+02
    3.1200059891e+01    1.5358009338e+02
    3.1300067902e+01    1.5358009338e+02
    3.1400064468e+01    1.5358009338e+02
    3.1500057220e+01    1.5358009338e+02
    3.1600065231e+01    1.5358009338e+02
    3.1700059891e+01    1.5358009338e+02
    3.1800079346e+01    1.5358009338e+02
    3.1900079727e+01    1.5358009338e+02
    3.2000064850e+01    1.5358009338e+02
    3.2100059509e+01    1.5358009338e+02
    3.2200057983e+01    1.5358009338e+02
    3.2300052643e+01    1.5358009338e+02
    3.2400066376e+01    1.5358009338e+02
    3.2500061035e+01    1.5358009338e+02
    3.2600063324e+01    1.5358009338e+02
    3.2700061798e+01    1.5358009338e+02
    3.2800064087e+01    1.5358009338e+02
    3.2900062561e+01    1.5358009338e+02
    3.3000049591e+01    1.5358009338e+02
    3.3100040436e+01    1.5358009338e+02
    3.3200054169e+01    1.5358009338e+02
    3.3300048828e+01    1.5358009338e+02
    3.3400054932e+01    1.5358009338e+02
    3.3500038147e+01    1.5358009338e+02
    3.3600048065e+01    1.5358009338e+02
    3.3700042725e+01    1.5358009338e+02
    3.3800048828e+01    1.5358009338e+02
    3.3900035858e+01    1.5358009338e+02
    3.4000034332e+01    1.5358009338e+02
    3.4100032806e+01    1.5358009338e+02
    3.4200027466e+01    1.5358009338e+02
    3.4300029755e+01    1.5358009338e+02
    3.4400020599e+01    1.5358009338e+02
    3.4500026703e+01    1.5358009338e+02
    3.4600017548e+01    1.5358009338e+02
    3.4700023651e+01    1.5358009338e+02
    3.4800037384e+01    1.5358009338e+02
    3.4900035858e+01    1.5358009338e+02
    3.5000011444e+01    1.5358009338e+02
    3.5100013733e+01    1.5358009338e+02
    3.5200027466e+01    1.5358009338e+02
    3.5300025940e+01    1.5358009338e+02
    3.5400016785e+01    1.5358009338e+02
    3.5500007629e+01    1.5358009338e+02
    3.5600002289e+01    1.5358009338e+02
    3.5700019836e+01    1.5358009338e+02
    3.5800003052e+01    1.5358009338e+02
    3.5900001526e+01    1.5358009338e+02
    3.5999996185e+01    1.5358009338e+02
    3.6100013733e+01    1.5358009338e+02
    3.6199993134e+01    1.5358009338e+02
    3.6299999237e+01    1.5358009338e+02
    3.6400009155e+01    1.5358009338e+02
    3.6500003815e+01    1.5358009338e+02
    3.6599990845e+01    1.5358009338e+02
    3.6699996948e+01    1.5358009338e+02
    3.6800006866e+01    1.5358009338e+02
    3.6899990082e+01    1.5358009338e+02
    3.6999992371e+01    1.5358009338e+02
    3.7100002289e+01    1.5358009338e+02
    3.7199993134e+01    1.5358009338e+02
    3.7299980164e+01    1.5358009338e+02
    3.7399986267e+01    1.5358009338e+02
    3.7499980927e+01    1.5358009338e+02
    3.7599990845e+01    1.5358009338e+02
    3.7699981689e+01    1.5358009338e+02
    3.7799991608e+01    1.5358009338e+02
    3.7899974823e+01    1.5358009338e+02
    3.7999984741e+01    1.5358009338e+02
    3.8099964142e+01    1.5358009338e+02
    3.8199974060e+01    1.5358009338e+02
    3.8299968719e+01    1.5358009338e+02
    3.8399963379e+01    1.5358009338e+02
    3.8499969482e+01    1.5358009338e+02
    3.8599971771e+01    1.5358009338e+02
    3.8699958801e+01    1.5358009338e+02
    3.8799964905e+01    1.5358009338e+02
    3.8899974823e+01    1.5358009338e+02
    3.8999958038e+01    1.5358009338e+02
    3.9099967957e+01    1.5358009338e+02
    3.9199962616e+01    1.5358009338e+02
    3.9299949646e+01    1.5358009338e+02
    3.9399955750e+01    1.5358009338e+02
    3.9499942780e+01    1.5358009338e+02
    3.9599952698e+01    1.5358009338e+02
    3.9699954987e+01    1.5358009338e+02
    3.9799949646e+01    1.5358009338e+02
    3.9899959564e+01    1.5358009338e+02
    3.9999942780e+01    1.5358009338e+02
    4.0099952698e+01    1.5358009338e+02
    4.0199935913e+01    1.5358009338e+02
    4.0299934387e+01    1.5358009338e+02
    4.0399944305e+01    1.5358009338e+02
    4.0499927521e+01    1.5358009338e+02
    4.0599937439e+01    1.5358009338e+02
    4.0699924469e+01    1.5358009338e+02
    4.0799926758e+01    1.5358009338e+02
    4.0899932861e+01    1.5358009338e+02
    4.0999935150e+01    1.5358009338e+02
    4.1099918365e+01    1.5358009338e+02
    4.1199920654e+01    1.5358009338e+02
    4.1299926758e+01    1.5358009338e+02
    4.1399917603e+01    1.5358009338e+02
    4.1499923706e+01    1.5358009338e+02
    4.1599929810e+01    1.5358009338e+02
    4.1699909210e+01    1.5358009338e+02
    4.1799919128e+01    1.5358009338e+02
    4.1899925232e+01    1.5358009338e+02
    4.1999904633e+01    1.5358009338e+02
    4.2099910736e+01    1.5358009338e+02
    4.2199913025e+01    1.5358009338e+02
    4.2299919128e+01    1.5358009338e+02
    4.2399898529e+01    1.5358009338e+02
    4.2499904633e+01    1.5358009338e+02
    4.2599910736e+01    1.5358009338e+02
    4.2699916840e+01    1.5358009338e+02
    4.2799896240e+01    1.5358009338e+02
    4.2899902344e+01    1.5358009338e+02
    4.2999908447e+01    1.5358009338e+02
    4.3099887848e+01    1.5358009338e+02
    4.3199893951e+01    1.5358009338e+02
    4.3299900055e+01    1.5358009338e+02
    4.3399902344e+01    1.5358009338e+02
    4.3499881744e+01    1.5358009338e+02
    4.3599887848e+01    1.5358009338e+02
    4.3699893951e+01    1.5358009338e+02
    4.3799900055e+01    1.5358009338e+02
    4.3899894714e+01    1.5358009338e+02
    4.3999885559e+01    1.5358009338e+02
    4.4099891663e+01    1.5358009338e+02
    4.4199874878e+01    1.5358009338e+02
    4.4299880981e+01    1.5358009338e+02
    4.4399871826e+01    1.5358009338e+02
    4.4499877930e+01    1.5358009338e+02
    4.4599884033e+01    1.5358009338e+02
    4.4699863434e+01    1.5358009338e+02
    4.4799884796e+01    1.5358009338e+02
    4.4899864197e+01    1.5358009338e+02
    4.4999870300e+01    1.5358009338e+02
    4.5099876404e+01    1.5357910156e+02
    4.5199859619e+01    1.5357910156e+02
    4.5299865723e+01    1.5357910156e+02
    4.5399871826e+01    1.5357910156e+02
    4.5499855042e+01    1.5357910156e+02
    4.5599861145e+01    1.5357910156e+02
    4.5699867249e+01    1.5357910156e+02
    4.5799850464e+01    1.5357910156e+02
    4.5899856567e+01    1.5357910156e+02
    4.5999862671e+01    1.5357910156e+02
    4.6099845886e+01    1.5357910156e+02
    4.6199851990e+01    1.5357910156e+02
    4.6299858093e+01    1.5357910156e+02
    4.6399860382e+01    1.5357910156e+02
    4.6499839783e+01    1.5357910156e+02
    4.6599853516e+01    1.5357910156e+02
    4.6699855804e+01    1.5357910156e+02
    4.6799846649e+01    1.5357910156e+02
    4.6899848938e+01    1.5357910156e+02
    4.6999828339e+01    1.5357910156e+02
    4.7099826813e+01    1.5357910156e+02
    4.7199840546e+01    1.5357910156e+02
    4.7299842834e+01    1.5357910156e+02
    4.7399826050e+01    1.5357910156e+02
    4.7499835968e+01    1.5357910156e+02
    4.7599830627e+01    1.5357910156e+02
    4.7699829102e+01    1.5357910156e+02
    4.7799839020e+01    1.5357910156e+02
    4.7899818420e+01    1.5357910156e+02
    4.7999832153e+01    1.5357910156e+02
    4.8099830627e+01    1.5357910156e+02
    4.8199810028e+01    1.5357910156e+02
    4.8299816132e+01    1.5357910156e+02
    4.8399826050e+01    1.5357910156e+02
    4.8499828339e+01    1.5357910156e+02
    4.8599807739e+01    1.5357910156e+02
    4.8699810028e+01    1.5357910156e+02
    4.8799812317e+01    1.5357910156e+02
    4.8899810791e+01    1.5357910156e+02
    4.8999805450e+01    1.5357910156e+02
    4.9099800110e+01    1.5357910156e+02
    4.9199794769e+01    1.5357910156e+02
    4.9299800873e+01    1.5357910156e+02
    4.9399791718e+01    1.5357809448e+02
    4.9499797821e+01    1.5357809448e+02
    4.9599811554e+01    1.5357809448e+02
    4.9699794769e+01    1.5357809448e+02
    4.9799804688e+01    1.5357809448e+02
    4.9899791718e+01    1.5357809448e+02
    4.9999782562e+01    1.5357809448e+02
    5.0099781036e+01    1.5357809448e+02
    5.0199790955e+01    1.5357710266e+02
    5.0299785614e+01    1.5357710266e+02
    5.0399784088e+01    1.5357710266e+02
    5.0499786377e+01    1.5357710266e+02
    5.0599773407e+01    1.5357710266e+02
    5.0699783325e+01    1.5357710266e+02
    5.0799781799e+01    1.5357609558e+02
    5.0899791718e+01    1.5357609558e+02
    5.0999774933e+01    1.5357609558e+02
    5.1099769592e+01    1.5357609558e+02
    5.1199779510e+01    1.5357510376e+02
    5.1299762726e+01    1.5357510376e+02
    5.1399776459e+01    1.5357510376e+02
    5.1499771118e+01    1.5357510376e+02
    5.1599765778e+01    1.5357409668e+02
    5.1699760437e+01    1.5357409668e+02
    5.1799766541e+01    1.5357409668e+02
    5.1899772644e+01    1.5357310486e+02
    5.1999752045e+01    1.5357310486e+02
    5.2099761963e+01    1.5357310486e+02
    5.2199748993e+01    1.5357209778e+02
    5.2299747467e+01    1.5357209778e+02
    5.2399749756e+01    1.5357209778e+02
    5.2499748230e+01    1.5357110596e+02
    5.2599754333e+01    1.5357110596e+02
    5.2699764252e+01    1.5357009888e+02
    5.2799743652e+01    1.5357009888e+02
    5.2899753571e+01    1.5356910706e+02
    5.2999740601e+01    1.5356910706e+02
    5.3099739075e+01    1.5356809998e+02
    5.3199737549e+01    1.5356809998e+02
    5.3299751282e+01    1.5356709290e+02
    5.3399738312e+01    1.5356709290e+02
    5.3499748230e+01    1.5356610107e+02
    5.3599746704e+01    1.5356509399e+02
    5.3699745178e+01    1.5356509399e+02
    5.3799739838e+01    1.5356410217e+02
    5.3899723053e+01    1.5356410217e+02
    5.3999729156e+01    1.5356309509e+02
    5.4099739075e+01    1.5356210327e+02
    5.4199733734e+01    1.5356210327e+02
    5.4299720764e+01    1.5356109619e+02
    5.4399730682e+01    1.5356010437e+02
    5.4499732971e+01    1.5355909729e+02
    5.4599716187e+01    1.5355909729e+02
    5.4699726105e+01    1.5355810547e+02
    5.4799724579e+01    1.5355709839e+02
    5.4899707794e+01    1.5355610657e+02
    5.4999717712e+01    1.5355509949e+02
    5.5099708557e+01    1.5355410767e+02
    5.5199718475e+01    1.5355310059e+02
    5.5299701691e+01    1.5355209351e+02
    5.5399703979e+01    1.5355110168e+02
    5.5499713898e+01    1.5355009460e+02
    5.5599697113e+01    1.5354910278e+02
    5.5699714661e+01    1.5354809570e+02
    5.5799701691e+01    1.5354710388e+02
    5.5899692535e+01    1.5354609680e+02
    5.5999702454e+01    1.5354510498e+02
    5.6099700928e+01    1.5354409790e+02
    5.6199703217e+01    1.5354310608e+02
    5.6299694061e+01    1.5354209900e+02
    5.6399692535e+01    1.5354110718e+02
    5.6499694824e+01    1.5353909302e+02
    5.6599685669e+01    1.5353810120e+02
    5.6699680328e+01    1.5353709412e+02
    5.6799678802e+01    1.5353509521e+02
    5.6899700165e+01    1.5353410339e+02
    5.6999698639e+01    1.5353309631e+02
    5.7099681854e+01    1.5353109741e+02
    5.7199672699e+01    1.5353010559e+02
    5.7299678802e+01    1.5352909851e+02
    5.7399669647e+01    1.5352709961e+02
    5.7499687195e+01    1.5352610779e+02
    5.7599685669e+01    1.5352409363e+02
    5.7699672699e+01    1.5352209473e+02
    5.7799674988e+01    1.5352110291e+02
    5.7899681091e+01    1.5351910400e+02
    5.7999679565e+01    1.5351809692e+02
    5.8099670410e+01    1.5351609802e+02
    5.8199657440e+01    1.5351409912e+02
    5.8299674988e+01    1.5351210022e+02
    5.8399673462e+01    1.5351109314e+02
    5.8499660492e+01    1.5350909424e+02
    5.8599655151e+01    1.5350709534e+02
    5.8699653625e+01    1.5350509644e+02
    5.8799667358e+01    1.5350309753e+02
    5.8899646759e+01    1.5350109863e+02
    5.8999668121e+01    1.5349909973e+02
    5.9099643707e+01    1.5349710083e+02
    5.9199642181e+01    1.5349510193e+02
    5.9299655914e+01    1.5349310303e+02
    5.9399658203e+01    1.5349110413e+02
    5.9499649048e+01    1.5348910522e+02
    5.9599632263e+01    1.5348609924e+02
    5.9699634552e+01    1.5348410034e+02
    5.9799644470e+01    1.5348210144e+02
    5.9899639130e+01    1.5347909546e+02
    5.9999652863e+01    1.5347709656e+02
    6.0099647522e+01    1.5347509766e+02
    6.0199638367e+01    1.5347210693e+02
    6.0299644470e+01    1.5347010803e+02
    6.0399639130e+01    1.5346710205e+02
    6.0499645233e+01    1.5346510315e+02
    6.0599624634e+01    1.5346209717e+02
    6.0699630737e+01    1.5345910645e+02
    6.0799621582e+01    1.5345710754e+02
    6.0899616241e+01    1.5345410156e+02
    6.0999614716e+01    1.5345109558e+02
    6.1099624634e+01    1.5344810486e+02
    6.1199626923e+01    1.5344509888e+02
    6.1299617767e+01    1.5344209290e+02
    6.1399608612e+01    1.5343910217e+02
    6.1499607086e+01    1.5343609619e+02
    6.1599628448e+01    1.5343310547e+02
    6.1699615479e+01    1.5343009949e+02
    6.1799602509e+01    1.5342709351e+02
    6.1899600983e+01    1.5342410278e+02
    6.1999599457e+01    1.5342109680e+02
    6.2099617004e+01    1.5341709900e+02
    6.2199600220e+01    1.5341409302e+02
    6.2299594879e+01    1.5341110229e+02
    6.2399604797e+01    1.5340710449e+02
    6.2499595642e+01    1.5340409851e+02
    6.2599594116e+01    1.5340010071e+02
    6.2699604034e+01    1.5339610291e+02
    6.2799606323e+01    1.5339309692e+02
    6.2899600983e+01    1.5338909912e+02
    6.2999599457e+01    1.5338510132e+02
    6.3099582672e+01    1.5338110352e+02
    6.3199581146e+01    1.5337809753e+02
    6.3299602509e+01    1.5337409973e+02
    6.3399585724e+01    1.5337010193e+02
    6.3499599457e+01    1.5336610413e+02
    6.3599582672e+01    1.5336109924e+02
    6.3699596405e+01    1.5335710144e+02
    6.3799575806e+01    1.5335310364e+02
    6.3899578094e+01    1.5334910583e+02
    6.3999591827e+01    1.5334410095e+02
    6.4099578857e+01    1.5334010315e+02
    6.4199592590e+01    1.5333610535e+02
    6.4299591064e+01    1.5333110046e+02
    6.4399589539e+01    1.5332609558e+02
    6.4499588013e+01    1.5332209778e+02
    6.4599563599e+01    1.5331709290e+02
    6.4699577332e+01    1.5331210327e+02
    6.4799568176e+01    1.5330810547e+02
    6.4899574280e+01    1.5330310059e+02
    6.4999565125e+01    1.5329809570e+02
    6.5099571228e+01    1.5329310608e+02
    6.5199562073e+01    1.5328810120e+02
    6.5299552917e+01    1.5328210449e+02
    6.5399566650e+01    1.5327709961e+02
    6.5499565125e+01    1.5327209473e+02
    6.5599555969e+01    1.5326710510e+02
    6.5699554443e+01    1.5326109314e+02
    6.5799545288e+01    1.5325610352e+02
    6.5899566650e+01    1.5325010681e+02
    6.5999565125e+01    1.5324409485e+02
    6.6099540710e+01    1.5323910522e+02
    6.6199562073e+01    1.5323309326e+02
    6.6299552917e+01    1.5322709656e+02
    6.6399536133e+01    1.5322109985e+02
    6.6499534607e+01    1.5321510315e+02
    6.6599540710e+01    1.5320910645e+02
    6.6699531555e+01    1.5320309448e+02
    6.6799552917e+01    1.5319709778e+02
    6.6899543762e+01    1.5319110107e+02
    6.6999526978e+01    1.5318409729e+02
    6.7099525452e+01    1.5317810059e+02
    6.7199539185e+01    1.5317109680e+02
    6.7299530029e+01    1.5316510010e+02
    6.7399536133e+01    1.5315809631e+02
    6.7499526978e+01    1.5315110779e+02
    6.7599525452e+01    1.5314410400e+02
    6.7699523926e+01    1.5313710022e+02
    6.7799514771e+01    1.5313009644e+02
    6.7899513245e+01    1.5312310791e+02
    6.7999526978e+01    1.5311610413e+02
    6.8099525452e+01    1.5310910034e+02
    6.8199523926e+01    1.5310209656e+02
    6.8299522400e+01    1.5309410095e+02
    6.8399520874e+01    1.5308709717e+02
    6.8499519348e+01    1.5307910156e+02
    6.8599510193e+01    1.5307209778e+02
    6.8699508667e+01    1.5306410217e+02
    6.8799514771e+01    1.5305610657e+02
    6.8899497986e+01    1.5304809570e+02
    6.8999496460e+01    1.5304010010e+02
    6.9099502563e+01    1.5303210449e+02
    6.9199493408e+01    1.5302409363e+02
    6.9299507141e+01    1.5301510620e+02
    6.9399505615e+01    1.5300709534e+02
    6.9499511719e+01    1.5299909973e+02
    6.9599510193e+01    1.5299009705e+02
    6.9699493408e+01    1.5298109436e+02
    6.9799491882e+01    1.5297309875e+02
    6.9899490356e+01    1.5296409607e+02
    6.9999504089e+01    1.5295509338e+02
    7.0099487305e+01    1.5294610596e+02
    7.0199493408e+01    1.5293710327e+02
    7.0299484253e+01    1.5292709351e+02
    7.0399482727e+01    1.5291810608e+02
    7.0499473572e+01    1.5290809631e+02
    7.0599487305e+01    1.5289909363e+02
    7.0699485779e+01    1.5288909912e+02
    7.0799484253e+01    1.5287910461e+02
    7.0899475098e+01    1.5287010193e+02
    7.0999488831e+01    1.5286010742e+02
    7.1099472046e+01    1.5284910583e+02
    7.1199470520e+01    1.5283909607e+02
    7.1299468994e+01    1.5282910156e+02
    7.1399459839e+01    1.5281809998e+02
    7.1499458313e+01    1.5280810547e+02
    7.1599456787e+01    1.5279710388e+02
    7.1699455261e+01    1.5278610229e+02
    7.1799453735e+01    1.5277610779e+02
    7.1899467468e+01    1.5276409912e+02
    7.1999458313e+01    1.5275309753e+02
    7.2099464417e+01    1.5274209595e+02
    7.2199462891e+01    1.5273109436e+02
    7.2299453735e+01    1.5271910095e+02
    7.2399444580e+01    1.5270809937e+02
    7.2499443054e+01    1.5269610596e+02
    7.2599449158e+01    1.5268409729e+02
    7.2699440002e+01    1.5267210388e+02
    7.2799446106e+01    1.5266009521e+02
    7.2899452209e+01    1.5264709473e+02
    7.2999450684e+01    1.5263510132e+02
    7.3099441528e+01    1.5262210083e+02
    7.3199440002e+01    1.5261010742e+02
    7.3299453735e+01    1.5259710693e+02
    7.3399429321e+01    1.5258410645e+02
    7.3499443054e+01    1.5257110596e+02
    7.3599441528e+01    1.5255709839e+02
    7.3699447632e+01    1.5254409790e+02
    7.3799446106e+01    1.5253010559e+02
    7.3899436951e+01    1.5251710510e+02
    7.3999427795e+01    1.5250309753e+02
    7.4099433899e+01    1.5248910522e+02
    7.4199417114e+01    1.5247410583e+02
    7.4299423218e+01    1.5246009827e+02
    7.4399429321e+01    1.5244610596e+02
    7.4499420166e+01    1.5243110657e+02
    7.4599418640e+01    1.5241610718e+02
    7.4699417114e+01    1.5240110779e+02
    7.4799415588e+01    1.5238609314e+02
    7.4899421692e+01    1.5237010193e+02
    7.4999404907e+01    1.5235510254e+02
    7.5099418640e+01    1.5233909607e+02
    7.5199417114e+01    1.5232310486e+02
    7.5299423218e+01    1.5230709839e+02
    7.5399398804e+01    1.5229110718e+02
    7.5499404907e+01    1.5227409363e+02
    7.5599411011e+01    1.5225810242e+02
    7.5699401855e+01    1.5224110413e+02
    7.5799400330e+01    1.5222410583e+02
    7.5899398804e+01    1.5220710754e+02
    7.5999404907e+01    1.5218910217e+02
    7.6099403381e+01    1.5217109680e+02
    7.6199394226e+01    1.5215409851e+02
    7.6299392700e+01    1.5213510132e+02
    7.6399406433e+01    1.5211709595e+02
    7.6499389648e+01    1.5209910583e+02
    7.6599395752e+01    1.5208009338e+02
    7.6699394226e+01    1.5206109619e+02
    7.6799392700e+01    1.5204209900e+02
    7.6899391174e+01    1.5202209473e+02
    7.6999382019e+01    1.5200210571e+02
    7.7099388123e+01    1.5198210144e+02
    7.7199394226e+01    1.5196209717e+02
    7.7299377441e+01    1.5194209290e+02
    7.7399368286e+01    1.5192109680e+02
    7.7499366760e+01    1.5190010071e+02
    7.7599380493e+01    1.5187910461e+02
    7.7699386597e+01    1.5185710144e+02
    7.7799377441e+01    1.5183509827e+02
    7.7899368286e+01    1.5181309509e+02
    7.7999374390e+01    1.5179110718e+02
    7.8099357605e+01    1.5176809692e+02
    7.8199371338e+01    1.5174510193e+02
    7.8299377441e+01    1.5172210693e+02
    7.8399368286e+01    1.5169909668e+02
    7.8499351501e+01    1.5167509460e+02
    7.8599349976e+01    1.5165110779e+02
    7.8699363708e+01    1.5162609863e+02
    7.8799354553e+01    1.5160110474e+02
    7.8899353027e+01    1.5157609558e+02
    7.8999343872e+01    1.5155110168e+02
    7.9099357605e+01    1.5152510071e+02
    7.9199348450e+01    1.5149909973e+02
    7.9299339294e+01    1.5147309875e+02
    7.9399345398e+01    1.5144610596e+02
    7.9499343872e+01    1.5141810608e+02
    7.9599334717e+01    1.5139109802e+02
    7.9699340820e+01    1.5136309814e+02
    7.9799331665e+01    1.5133509827e+02
    7.9899330139e+01    1.5130610657e+02
    7.9999328613e+01    1.5127709961e+02
    8.0099334717e+01    1.5124710083e+02
    8.0199333191e+01    1.5121710205e+02
    8.0299339294e+01    1.5118710327e+02
    8.0399337769e+01    1.5115609741e+02
    8.0499336243e+01    1.5112510681e+02
    8.0599334717e+01    1.5109410095e+02
    8.0699325562e+01    1.5106210327e+02
    8.0799331665e+01    1.5102909851e+02
    8.0899330139e+01    1.5099609375e+02
    8.0999305725e+01    1.5096310425e+02
    8.1099311829e+01    1.5092910767e+02
    8.1199302673e+01    1.5089509583e+02
    8.1299324036e+01    1.5086109924e+02
    8.1399299622e+01    1.5082609558e+02
    8.1499320984e+01    1.5079010010e+02
    8.1599311829e+01    1.5075509644e+02
    8.1699287415e+01    1.5071910095e+02
    8.1799308777e+01    1.5068209839e+02
    8.1899291992e+01    1.5064509583e+02
    8.1999290466e+01    1.5060809326e+02
    8.2099304199e+01    1.5057110596e+02
    8.2199302673e+01    1.5053309631e+02
    8.2299285889e+01    1.5049409485e+02
    8.2399307251e+01    1.5045509338e+02
    8.2499282837e+01    1.5041610718e+02
    8.2599281311e+01    1.5037609863e+02
    8.2699287415e+01    1.5033610535e+02
    8.2799293518e+01    1.5029409790e+02
    8.2899299622e+01    1.5025309753e+02
    8.2999282837e+01    1.5021110535e+02
    8.3099296570e+01    1.5016810608e+02
    8.3199287415e+01    1.5012409973e+02
    8.3299278259e+01    1.5008009338e+02
    8.3399284363e+01    1.5003610229e+02
    8.3499267578e+01    1.4999110413e+02
    8.3599266052e+01    1.4994509888e+02
    8.3699272156e+01    1.4989909363e+02
    8.3799285889e+01    1.4985310364e+02
    8.3899284363e+01    1.4980610657e+02
    8.3999267578e+01    1.4975810242e+02
    8.4099273682e+01    1.4971110535e+02
    8.4199264526e+01    1.4966310120e+02
    8.4299270630e+01    1.4961410522e+02
    8.4399269104e+01    1.4956509399e+02
    8.4499252319e+01    1.4951609802e+02
    8.4599273682e+01    1.4946609497e+02
    8.4699272156e+01    1.4941610718e+02
    8.4799247742e+01    1.4936509705e+02
    8.4899269104e+01    1.4931309509e+02
    8.4999244690e+01    1.4926109314e+02
    8.5099243164e+01    1.4920910645e+02
    8.5199249268e+01    1.4915609741e+02
    8.5299255371e+01    1.4910209656e+02
    8.5399238586e+01    1.4904710388e+02
    8.5499237061e+01    1.4899209595e+02
    8.5599250793e+01    1.4893710327e+02
    8.5699241638e+01    1.4888009644e+02
    8.5799255371e+01    1.4882409668e+02
    8.5899230957e+01    1.4876609802e+02
    8.5999237061e+01    1.4870809937e+02
    8.6099250793e+01    1.4865010071e+02
    8.6199241638e+01    1.4859109497e+02
    8.6299217224e+01    1.4853109741e+02
    8.6399246216e+01    1.4847109985e+02
    8.6499229431e+01    1.4841009521e+02
    8.6599243164e+01    1.4834910583e+02
    8.6699241638e+01    1.4828810120e+02
    8.6799217224e+01    1.4822610474e+02
    8.6899215698e+01    1.4816310120e+02
    8.6999214172e+01    1.4809910583e+02
    8.7099212646e+01    1.4803610229e+02
    8.7199211121e+01    1.4797109985e+02
    8.7299224854e+01    1.4790609741e+02
    8.7399208069e+01    1.4784010315e+02
    8.7499214172e+01    1.4777409363e+02
    8.7599220276e+01    1.4770610046e+02
    8.7699203491e+01    1.4763909912e+02
    8.7799194336e+01    1.4757009888e+02
    8.7899200439e+01    1.4750109863e+02
    8.7999198914e+01    1.4743110657e+02
    8.8099220276e+01    1.4736010742e+02
    8.8199218750e+01    1.4728909302e+02
    8.8299209595e+01    1.4721710205e+02
    8.8399215698e+01    1.4714509583e+02
    8.8499206543e+01    1.4707209778e+02
    8.8599205017e+01    1.4699810791e+02
    8.8699188232e+01    1.4692309570e+02
    8.8799201965e+01    1.4684809875e+02
    8.8899208069e+01    1.4677209473e+02
    8.8999198914e+01    1.4669610596e+02
    8.9099189758e+01    1.4661911011e+02
    8.9199195862e+01    1.4654110718e+02
    8.9299201965e+01    1.4646310425e+02
    8.9399200439e+01    1.4638310242e+02
    8.9499191284e+01    1.4630410767e+02
    8.9599174500e+01    1.4622309875e+02
    8.9699172974e+01    1.4614208984e+02
    8.9799171448e+01    1.4605909729e+02
    8.9899169922e+01    1.4597610474e+02
    8.9999168396e+01    1.4589309692e+02
    9.0099189758e+01    1.4580810547e+02
    9.0199165344e+01    1.4572309875e+02
    9.0299179077e+01    1.4563710022e+02
    9.0399177551e+01    1.4555010986e+02
    9.0499183655e+01    1.4546209717e+02
    9.0599182129e+01    1.4537310791e+02
    9.0699172974e+01    1.4528410339e+02
    9.0799179077e+01    1.4519409180e+02
    9.0899162292e+01    1.4510310364e+02
    9.0999168396e+01    1.4501110840e+02
    9.1099174500e+01    1.4491809082e+02
    9.1199157715e+01    1.4482510376e+02
    9.1299156189e+01    1.4473010254e+02
    9.1399169922e+01    1.4463510132e+02
    9.1499145508e+01    1.4453909302e+02
    9.1599166870e+01    1.4444210815e+02
    9.1699157715e+01    1.4434509277e+02
    9.1799163818e+01    1.4424609375e+02
    9.1899162292e+01    1.4414709473e+02
    9.1999145508e+01    1.4404609680e+02
    9.2099159241e+01    1.4394509888e+02
    9.2199134827e+01    1.4384210205e+02
    9.2299156189e+01    1.4373910522e+02
    9.2399147034e+01    1.4363510132e+02
    9.2499145508e+01    1.4353009033e+02
    9.2599128723e+01    1.4342309570e+02
    9.2699134827e+01    1.4331610107e+02
    9.2799148560e+01    1.4320809937e+02
    9.2899131775e+01    1.4309909058e+02
    9.2999137878e+01    1.4298910522e+02
    9.3099136353e+01    1.4287809753e+02
    9.3199142456e+01    1.4276609802e+02
    9.3299125671e+01    1.4265310669e+02
    9.3399139404e+01    1.4253810120e+02
    9.3499137878e+01    1.4242309570e+02
    9.3599128723e+01    1.4230709839e+02
    9.3699134827e+01    1.4219009399e+02
    9.3799140930e+01    1.4207209778e+02
    9.3899131775e+01    1.4195309448e+02
    9.3999122620e+01    1.4183209229e+02
    9.4099105835e+01    1.4171109009e+02
    9.4199104309e+01    1.4158810425e+02
    9.4299110413e+01    1.4146510315e+02
    9.4399101257e+01    1.4134010315e+02
    9.4499099731e+01    1.4121510315e+02
    9.4599113464e+01    1.4108810425e+02
    9.4699111938e+01    1.4096009827e+02
    9.4799102783e+01    1.4083110046e+02
    9.4899108887e+01    1.4070010376e+02
    9.4999107361e+01    1.4056909180e+02
    9.5099105835e+01    1.4043609619e+02
    9.5199119568e+01    1.4030310059e+02
    9.5299110413e+01    1.4016809082e+02
    9.5399093628e+01    1.4003210449e+02
    9.5499107361e+01    1.3989410400e+02
    9.5599098206e+01    1.3975610352e+02
    9.5699096680e+01    1.3961610413e+02
    9.5799087524e+01    1.3947509766e+02
    9.5899093628e+01    1.3933309937e+02
    9.5999099731e+01    1.3919009399e+02
    9.6099075317e+01    1.3904609680e+02
    9.6199096680e+01    1.3890010071e+02
    9.6299095154e+01    1.3875408936e+02
    9.6399085999e+01    1.3860610962e+02
    9.6499069214e+01    1.3845610046e+02
    9.6599075317e+01    1.3830609131e+02
    9.6699081421e+01    1.3815409851e+02
    9.6799064636e+01    1.3800109863e+02
    9.6899085999e+01    1.3784710693e+02
    9.6999084473e+01    1.3769210815e+02
    9.7099052429e+01    1.3753509521e+02
    9.7199066162e+01    1.3737710571e+02
    9.7299064636e+01    1.3721710205e+02
    9.7399055481e+01    1.3705709839e+02
    9.7499053955e+01    1.3689511108e+02
    9.7599060059e+01    1.3673110962e+02
    9.7699050903e+01    1.3656710815e+02
    9.7799057007e+01    1.3640109253e+02
    9.7899063110e+01    1.3623410034e+02
    9.7999061584e+01    1.3606610107e+02
    9.8099052429e+01    1.3589610291e+02
    9.8199058533e+01    1.3572509766e+02
    9.8299064636e+01    1.3555310059e+02
    9.8399047852e+01    1.3537908936e+02
    9.8499053955e+01    1.3520410156e+02
    9.8599044800e+01    1.3502810669e+02
    9.8699043274e+01    1.3485009766e+02
    9.8799041748e+01    1.3467109680e+02
    9.8899055481e+01    1.3449110413e+02
    9.8999031067e+01    1.3431008911e+02
    9.9099029541e+01    1.3412710571e+02
    9.9199050903e+01    1.3394309998e+02
    9.9299034119e+01    1.3375711060e+02
    9.9399032593e+01    1.3357009888e+02
    9.9499038696e+01    1.3338211060e+02
    9.9599029541e+01    1.3319210815e+02
    9.9699043274e+01    1.3300210571e+02
    9.9799041748e+01    1.3280909729e+02
    9.9899032593e+01    1.3261610413e+02
    9.9999023438e+01    1.3242109680e+02
    1.0009902954e+02    1.3222509766e+02
    1.0019902802e+02    1.3202709961e+02
    1.0029902649e+02    1.3182809448e+02
    1.0039903259e+02    1.3162809753e+02
    1.0049900818e+02    1.3142610168e+02
    1.0059902191e+02    1.3122309875e+02
    1.0069902802e+02    1.3101910400e+02
    1.0079901123e+02    1.3081311035e+02
    1.0089901733e+02    1.3060610962e+02
    1.0099902344e+02    1.3039810181e+02
    1.0109899902e+02    1.3018811035e+02
    1.0119901276e+02    1.2997711182e+02
    1.0129901123e+02    1.2976510620e+02
    1.0139900208e+02    1.2955110168e+02
    1.0149900055e+02    1.2933609009e+02
    1.0159899902e+02    1.2912010193e+02
    1.0169901276e+02    1.2890310669e+02
    1.0179898834e+02    1.2868409729e+02
    1.0189900970e+02    1.2846310425e+02
    1.0199900055e+02    1.2824209595e+02
    1.0209900665e+02    1.2801910400e+02
    1.0219901276e+02    1.2779509735e+02
    1.0229900360e+02    1.2756909943e+02
    1.0239897919e+02    1.2734310150e+02
    1.0249897766e+02    1.2711509705e+02
    1.0259898376e+02    1.2688510132e+02
    1.0269898987e+02    1.2665509796e+02
    1.0279898071e+02    1.2642310333e+02
    1.0289898682e+02    1.2619010162e+02
    1.0299897766e+02    1.2595510101e+02
    1.0309899139e+02    1.2572010040e+02
    1.0319898987e+02    1.2548310089e+02
    1.0329898071e+02    1.2524410248e+02
    1.0339897156e+02    1.2500510406e+02
    1.0349897766e+02    1.2476409912e+02
    1.0359898376e+02    1.2452210236e+02
    1.0369895935e+02    1.2427809906e+02
    1.0379897308e+02    1.2403410339e+02
    1.0389897156e+02    1.2378810120e+02
    1.0399897003e+02    1.2354109955e+02
    1.0409895325e+02    1.2329309845e+02
    1.0419896698e+02    1.2304309845e+02
    1.0429895020e+02    1.2279209900e+02
    1.0439897156e+02    1.2254010010e+02
    1.0449894714e+02    1.2228710175e+02
    1.0459896088e+02    1.2203209686e+02
    1.0469895935e+02    1.2177709961e+02
    1.0479897308e+02    1.2152010345e+02
    1.0489894867e+02    1.2126210022e+02
    1.0499893951e+02    1.2100209808e+02
    1.0509895325e+02    1.2074210358e+02
    1.0519895172e+02    1.2048010254e+02
    1.0529894257e+02    1.2021710205e+02
    1.0539894867e+02    1.1995310211e+02
    1.0549893951e+02    1.1968810272e+02
    1.0559895325e+02    1.1942210388e+02
    1.0569893646e+02    1.1915509796e+02
    1.0579892731e+02    1.1888629913e+02
    1.0589893341e+02    1.1861669922e+02
    1.0599894714e+02    1.1834590149e+02
    1.0609893799e+02    1.1807409668e+02
    1.0619892120e+02    1.1780120087e+02
    1.0629892731e+02    1.1752729797e+02
    1.0639894104e+02    1.1725219727e+02
    1.0649893188e+02    1.1697620392e+02
    1.0659892273e+02    1.1669909668e+02
    1.0669893646e+02    1.1642099762e+02
    1.0679891205e+02    1.1614189911e+02
    1.0689893341e+02    1.1586180115e+02
    1.0699891663e+02    1.1558080292e+02
    1.0709893036e+02    1.1529879761e+02
    1.0719891357e+02    1.1501599884e+02
    1.0729891205e+02    1.1473210144e+02
    1.0739890289e+02    1.1444740295e+02
    1.0749891663e+02    1.1416169739e+02
    1.0759890747e+02    1.1387529755e+02
    1.0769892120e+02    1.1358789825e+02
    1.0779889679e+02    1.1329979706e+02
    1.0789891052e+02    1.1301070404e+02
    1.0799891663e+02    1.1272080231e+02
    1.0809889221e+02    1.1243029785e+02
    1.0819889832e+02    1.1213880157e+02
    1.0829889679e+02    1.1184670258e+02
    1.0839888763e+02    1.1155370331e+02
    1.0849890137e+02    1.1126000214e+02
    1.0859889221e+02    1.1096559906e+02
    1.0869889069e+02    1.1067050171e+02
    1.0879888153e+02    1.1037470245e+02
    1.0889890289e+02    1.1007820129e+02
    1.0899887848e+02    1.0978099823e+02
    1.0909886932e+02    1.0948320007e+02
    1.0919888306e+02    1.0918470001e+02
    1.0929888916e+02    1.0888549805e+02
    1.0939888763e+02    1.0858580017e+02
    1.0949887085e+02    1.0828549957e+02
    1.0959887695e+02    1.0798460388e+02
    1.0969886780e+02    1.0768309784e+02
    1.0979888916e+02    1.0738089752e+02
    1.0989885712e+02    1.0707839966e+02
    1.0999887085e+02    1.0677529907e+02
    1.1009886932e+02    1.0647160339e+02
    1.1019886780e+02    1.0616740417e+02
    1.1029885864e+02    1.0586280060e+02
    1.1039885712e+02    1.0555770111e+02
    1.1049887085e+02    1.0525209808e+02
    1.1059886932e+02    1.0494599915e+02
    1.1069886017e+02    1.0463960266e+02
    1.1079885864e+02    1.0433270264e+02
    1.1089887238e+02    1.0402539825e+02
    1.1099886322e+02    1.0371780396e+02
    1.1109886169e+02    1.0340969849e+02
    1.1119886017e+02    1.0310130310e+02
    1.1129885864e+02    1.0279250336e+02
    1.1139884949e+02    1.0248349762e+02
    1.1149886322e+02    1.0217400360e+02
    1.1159886932e+02    1.0186419678e+02
    1.1169885254e+02    1.0155419922e+02
    1.1179882812e+02    1.0124390411e+02
    1.1189884186e+02    1.0093330383e+02
    1.1199884796e+02    1.0062239838e+02
    1.1209886169e+02    1.0031120300e+02
    1.1219885254e+02    9.9999900818e+01
    1.1229885101e+02    9.9688301086e+01
    1.1239884186e+02    9.9376602173e+01
    1.1249881744e+02    9.9064598083e+01
    1.1259883881e+02    9.8752403259e+01
    1.1269883728e+02    9.8440299988e+01
    1.1279884338e+02    9.8127998352e+01
    1.1289882660e+02    9.7815696716e+01
    1.1299881744e+02    9.7503303528e+01
    1.1309883118e+02    9.7190902710e+01
    1.1319882965e+02    9.6878501892e+01
    1.1329882812e+02    9.6566101074e+01
    1.1339881897e+02    9.6253799438e+01
    1.1349883270e+02    9.5941299438e+01
    1.1359880829e+02    9.5628997803e+01
    1.1369880676e+02    9.5316596985e+01
    1.1379882812e+02    9.5004203796e+01
    1.1389881134e+02    9.4692001343e+01
    1.1399880219e+02    9.4379699707e+01
    1.1409883118e+02    9.4067398071e+01
    1.1419879913e+02    9.3755401611e+01
    1.1429882050e+02    9.3443397522e+01
    1.1439881134e+02    9.3131500244e+01
    1.1449880981e+02    9.2819702148e+01
    1.1459880066e+02    9.2508003235e+01
    1.1469879150e+02    9.2196502686e+01
    1.1479878998e+02    9.1885200500e+01
    1.1489880371e+02    9.1573898315e+01
    1.1499878693e+02    9.1262901306e+01
    1.1509880066e+02    9.0952102661e+01
    1.1519880676e+02    9.0641502380e+01
    1.1529881287e+02    9.0331199646e+01
    1.1539880371e+02    9.0021202087e+01
    1.1549877930e+02    8.9711502075e+01
    1.1559877777e+02    8.9402000427e+01
    1.1569877625e+02    8.9092903137e+01
    1.1579878998e+02    8.8784004211e+01
    1.1589878845e+02    8.8475601196e+01
    1.1599877167e+02    8.8167602539e+01
    1.1609877014e+02    8.7859901428e+01
    1.1619879913e+02    8.7552597046e+01
    1.1629878235e+02    8.7245903015e+01
    1.1639877319e+02    8.6939697266e+01
    1.1649877167e+02    8.6633903503e+01
    1.1659879303e+02    8.6328697205e+01
    1.1669877625e+02    8.6024002075e+01
    1.1679875946e+02    8.5720001221e+01
    1.1689878082e+02    8.5416397095e+01
    1.1699875641e+02    8.5113601685e+01
    1.1709877777e+02    8.4811302185e+01
    1.1719875336e+02    8.4509803772e+01
    1.1729875946e+02    8.4208900452e+01
    1.1739877319e+02    8.3908599854e+01
    1.1749874878e+02    8.3609100342e+01
    1.1759874725e+02    8.3310203552e+01
    1.1769875336e+02    8.3012001038e+01
    1.1779875946e+02    8.2714599609e+01
    1.1789875031e+02    8.2417900085e+01
    1.1799874878e+02    8.2121902466e+01
    1.1809874725e+02    8.1826705933e+01
    1.1819875336e+02    8.1532302856e+01
    1.1829875183e+02    8.1238601685e+01
    1.1839875793e+02    8.0945602417e+01
    1.1849873352e+02    8.0653305054e+01
    1.1859874725e+02    8.0361206055e+01
    1.1869873047e+02    8.0069702148e+01
    1.1879875183e+02    7.9778396606e+01
    1.1889875031e+02    7.9487602234e+01
    1.1899873352e+02    7.9197097778e+01
    1.1909873199e+02    7.8907104492e+01
    1.1919873810e+02    7.8617599487e+01
    1.1929872894e+02    7.8328796387e+01
    1.1939874268e+02    7.8040695190e+01
    1.1949874115e+02    7.7753501892e+01
    1.1959871674e+02    7.7467201233e+01
    1.1969872284e+02    7.7181701660e+01
    1.1979872894e+02    7.6897102356e+01
    1.1989871216e+02    7.6613601685e+01
    1.1999874115e+02    7.6331001282e+01
    1.2009873199e+02    7.6049598694e+01
    1.2019870758e+02    7.5769195557e+01
    1.2029871368e+02    7.5489898682e+01
    1.2039871979e+02    7.5211502075e+01
    1.2049871826e+02    7.4934295654e+01
    1.2059870148e+02    7.4658203125e+01
    1.2069869995e+02    7.4383102417e+01
    1.2079869843e+02    7.4109199524e+01
    1.2089871979e+02    7.3836303711e+01
    1.2099871826e+02    7.3564498901e+01
    1.2109868622e+02    7.3293701172e+01
    1.2119869232e+02    7.3023895264e+01
    1.2129872131e+02    7.2754898071e+01
    1.2139869690e+02    7.2486602783e+01
    1.2149870300e+02    7.2218795776e+01
    1.2159868622e+02    7.1951400757e+01
    1.2169869995e+02    7.1684295654e+01
    1.2179869080e+02    7.1417495728e+01
    1.2189871216e+02    7.1150695801e+01
    1.2199868774e+02    7.0884201050e+01
    1.2209868622e+02    7.0617797852e+01
    1.2219869232e+02    7.0351699829e+01
    1.2229869080e+02    7.0085899353e+01
    1.2239868164e+02    6.9820602417e+01
    1.2249870300e+02    6.9555900574e+01
    1.2259867859e+02    6.9291900635e+01
    1.2269869232e+02    6.9028800964e+01
    1.2279869080e+02    6.8766403198e+01
    1.2289868164e+02    6.8505004883e+01
    1.2299867249e+02    6.8244400024e+01
    1.2309867859e+02    6.7984695435e+01
    1.2319867706e+02    6.7725700378e+01
    1.2329868317e+02    6.7467605591e+01
    1.2339865875e+02    6.7210296631e+01
    1.2349865723e+02    6.6953498840e+01
    1.2359867096e+02    6.6697296143e+01
    1.2369866180e+02    6.6441696167e+01
    1.2379866028e+02    6.6186599731e+01
    1.2389866638e+02    6.5931701660e+01
    1.2399864960e+02    6.5677200317e+01
    1.2409864807e+02    6.5422897339e+01
    1.2419864655e+02    6.5168899536e+01
    1.2429866028e+02    6.4915100098e+01
    1.2439865875e+02    6.4661697388e+01
    1.2449865723e+02    6.4408500671e+01
    1.2459864044e+02    6.4155700684e+01
    1.2469863892e+02    6.3903099060e+01
    1.2479863739e+02    6.3650798798e+01
    1.2489865875e+02    6.3398700714e+01
    1.2499865723e+02    6.3146900177e+01
    1.2509866333e+02    6.2895401001e+01
    1.2519863129e+02    6.2644100189e+01
    1.2529865265e+02    6.2393001556e+01
    1.2539865112e+02    6.2142101288e+01
    1.2549864960e+02    6.1891498566e+01
    1.2559863281e+02    6.1641201019e+01
    1.2569863892e+02    6.1390998840e+01
    1.2579863739e+02    6.1141201019e+01
    1.2589864349e+02    6.0891700745e+01
    1.2599861908e+02    6.0642700195e+01
    1.2609863281e+02    6.0394001007e+01
    1.2619863129e+02    6.0145900726e+01
    1.2629862976e+02    5.9898300171e+01
    1.2639862061e+02    5.9651100159e+01
    1.2649861145e+02    5.9404399872e+01
    1.2659863281e+02    5.9158000946e+01
    1.2669862366e+02    5.8911998749e+01
    1.2679862213e+02    5.8666301727e+01
    1.2689859772e+02    5.8420700073e+01
    1.2699862671e+02    5.8175102234e+01
    1.2709861755e+02    5.7929599762e+01
    1.2719862366e+02    5.7684101105e+01
    1.2729862213e+02    5.7438301086e+01
    1.2739859772e+02    5.7192501068e+01
    1.2749861908e+02    5.6946498871e+01
    1.2759858704e+02    5.6700401306e+01
    1.2769860840e+02    5.6454101562e+01
    1.2779859161e+02    5.6207801819e+01
    1.2789859009e+02    5.5961502075e+01
    1.2799859619e+02    5.5715202332e+01
    1.2809858704e+02    5.5469001770e+01
    1.2819859314e+02    5.5223098755e+01
    1.2829859924e+02    5.4977199554e+01
    1.2839860535e+02    5.4731700897e+01
    1.2849861145e+02    5.4486301422e+01
    1.2859861755e+02    5.4241199493e+01
    1.2869862366e+02    5.3996299744e+01
    1.2879864502e+02    5.3751602173e+01
    1.2889866638e+02    5.3507202148e+01
    1.2899865723e+02    5.3262901306e+01
    1.2909864807e+02    5.3018798828e+01
    1.2919866943e+02    5.2774600983e+01
    1.2929864502e+02    5.2530700684e+01
    1.2939868164e+02    5.2286800385e+01
    1.2949867249e+02    5.2042999268e+01
    1.2959869385e+02    5.1799098969e+01
    1.2969868469e+02    5.1555500031e+01
    1.2979869080e+02    5.1311901093e+01
    1.2989872742e+02    5.1068302155e+01
    1.2999870300e+02    5.0824897766e+01
    1.3009872437e+02    5.0581501007e+01
    1.3019871521e+02    5.0338302612e+01
    1.3029873657e+02    5.0095001221e+01
    1.3039874268e+02    4.9851799011e+01
    1.3049873352e+02    4.9608699799e+01
    1.3059875488e+02    4.9365699768e+01
    1.3069876099e+02    4.9122901917e+01
    1.3079876709e+02    4.8880302429e+01
    1.3089874268e+02    4.8637901306e+01
    1.3099877930e+02    4.8395698547e+01
    1.3109878540e+02    4.8153800964e+01
    1.3119877625e+02    4.7912399292e+01
    1.3129879761e+02    4.7671302795e+01
    1.3139878845e+02    4.7430801392e+01
    1.3149879456e+02    4.7190799713e+01
    1.3159880066e+02    4.6951301575e+01
    1.3169880676e+02    4.6712303162e+01
    1.3179881287e+02    4.6473899841e+01
    1.3189881897e+02    4.6236099243e+01
    1.3199882507e+02    4.5998802185e+01
    1.3209884644e+02    4.5762001038e+01
    1.3219885254e+02    4.5525802612e+01
    1.3229884338e+02    4.5291198730e+01
    1.3239886475e+02    4.5056999207e+01
    1.3249885559e+02    4.4823501587e+01
    1.3259887695e+02    4.4590599060e+01
    1.3269888306e+02    4.4366401672e+01
    1.3279888916e+02    4.4223602295e+01
    1.3289888000e+02    4.4148498535e+01
    1.3299888611e+02    4.4083602905e+01
    1.3309890747e+02    4.4018501282e+01
    1.3319889832e+02    4.3953201294e+01
    1.3329890442e+02    4.3887500763e+01
    1.3339892578e+02    4.3821502686e+01
    1.3349893188e+02    4.3755599976e+01
    1.3359893799e+02    4.3689399719e+01
    1.3369892883e+02    4.3623500824e+01
    1.3379893494e+02    4.3557300568e+01
    1.3389895630e+02    4.3491699219e+01
    1.3399894714e+02    4.3426200867e+01
    1.3409895325e+02    4.3361099243e+01
    1.3419897461e+02    4.3296199799e+01
    1.3429899597e+02    4.3231903076e+01
    1.3439898682e+02    4.3167701721e+01
    1.3449896240e+02    4.3103698730e+01
    1.3459898376e+02    4.3039501190e+01
    1.3469900513e+02    4.2975502014e+01
    1.3479901123e+02    4.2911201477e+01
    1.3489900208e+02    4.2846500397e+01
    1.3499899292e+02    4.2781200409e+01
    1.3509904480e+02    4.2715499878e+01
    1.3519903564e+02    4.2649002075e+01
    1.3529904175e+02    4.2581703186e+01
    1.3539904785e+02    4.2513900757e+01
    1.3549903870e+02    4.2445503235e+01
    1.3559904480e+02    4.2376701355e+01
    1.3569906616e+02    4.2307399750e+01
    1.3579905701e+02    4.2237800598e+01
    1.3589906311e+02    4.2167701721e+01
    1.3599905396e+02    4.2097099304e+01
    1.3609907532e+02    4.2025901794e+01
    1.3619908142e+02    4.1954299927e+01
    1.3629908752e+02    4.1882102966e+01
    1.3639909363e+02    4.1809402466e+01
    1.3649911499e+02    4.1736000061e+01
    1.3659910583e+02    4.1661899567e+01
    1.3669912720e+02    4.1587100983e+01
    1.3679911804e+02    4.1511501312e+01
    1.3689912415e+02    4.1435001373e+01
    1.3699914551e+02    4.1357902527e+01
    1.3709915161e+02    4.1280200958e+01
    1.3719914246e+02    4.1201801300e+01
    1.3729916382e+02    4.1122901917e+01
    1.3739918518e+02    4.1043399811e+01
    1.3749917603e+02    4.0963500977e+01
    1.3759916687e+02    4.0883102417e+01
    1.3769917297e+02    4.0802299500e+01
    1.3779917908e+02    4.0721000671e+01
    1.3789918518e+02    4.0639198303e+01
    1.3799920654e+02    4.0556800842e+01
    1.3809919739e+02    4.0473701477e+01
    1.3819923401e+02    4.0389701843e+01
    1.3829922485e+02    4.0304901123e+01
    1.3839924622e+02    4.0219100952e+01
    1.3849923706e+02    4.0132301331e+01
    1.3859924316e+02    4.0044700623e+01
    1.3869924927e+02    3.9956100464e+01
    1.3879924011e+02    3.9866798401e+01
    1.3889924622e+02    3.9776599884e+01
    1.3899926758e+02    3.9685699463e+01
    1.3909925842e+02    3.9594001770e+01
    1.3919926453e+02    3.9501800537e+01
    1.3929927063e+02    3.9409000397e+01
    1.3939927673e+02    3.9315902710e+01
    1.3949928284e+02    3.9222198486e+01
    1.3959927368e+02    3.9128101349e+01
    1.3969929504e+02    3.9033500671e+01
    1.3979931641e+02    3.8938301086e+01
    1.3989930725e+02    3.8842597961e+01
    1.3999931335e+02    3.8746200562e+01
    1.4009933472e+02    3.8649299622e+01
    1.4019934082e+02    3.8551799774e+01
    1.4029933167e+02    3.8453903198e+01
    1.4039935303e+02    3.8355201721e+01
    1.4049935913e+02    3.8256301880e+01
    1.4059936523e+02    3.8156898499e+01
    1.4069938660e+02    3.8057098389e+01
    1.4079937744e+02    3.7957000732e+01
    1.4089936829e+02    3.7856700897e+01
    1.4099937439e+02    3.7756099701e+01
    1.4109939575e+02    3.7655200958e+01
    1.4119940186e+02    3.7554000854e+01
    1.4129939270e+02    3.7452598572e+01
    1.4139939880e+02    3.7350997925e+01
    1.4149940491e+02    3.7249000549e+01
    1.4159942627e+02    3.7146800995e+01
    1.4169941711e+02    3.7044300079e+01
    1.4179943848e+02    3.6941802979e+01
    1.4189941406e+02    3.6839099884e+01
    1.4199945068e+02    3.6736602783e+01
    1.4209945679e+02    3.6634300232e+01
    1.4219943237e+02    3.6532402039e+01
    1.4229945374e+02    3.6430801392e+01
    1.4239947510e+02    3.6329700470e+01
    1.4249949646e+02    3.6229202271e+01
    1.4259948730e+02    3.6130302429e+01
    1.4269949341e+02    3.6032100677e+01
    1.4279949951e+02    3.5934600830e+01
    1.4289950562e+02    3.5837699890e+01
    1.4299952698e+02    3.5741100311e+01
    1.4309950256e+02    3.5645202637e+01
    1.4319950867e+02    3.5550003052e+01
    1.4329951477e+02    3.5455699921e+01
    1.4339952087e+02    3.5362098694e+01
    1.4349954224e+02    3.5269302368e+01
    1.4359956360e+02    3.5177497864e+01
    1.4369953918e+02    3.5086601257e+01
    1.4379956055e+02    3.4996902466e+01
    1.4389956665e+02    3.4908401489e+01
    1.4399957275e+02    3.4835098267e+01
    1.4409956360e+02    3.4850601196e+01
    1.4419956970e+02    3.4910400391e+01
    1.4429957581e+02    3.4972602844e+01
    1.4439959717e+02    3.5034999847e+01
    1.4449960327e+02    3.5097297668e+01
    1.4459960938e+02    3.5159797668e+01
    1.4469961548e+02    3.5222000122e+01
    1.4479960632e+02    3.5284698486e+01
    1.4489961243e+02    3.5347198486e+01
    1.4499961853e+02    3.5410400391e+01
    1.4509965515e+02    3.5473602295e+01
    1.4519963074e+02    3.5537902832e+01
    1.4529963684e+02    3.5602699280e+01
    1.4539964294e+02    3.5668800354e+01
    1.4549964905e+02    3.5735599518e+01
    1.4559965515e+02    3.5803703308e+01
    1.4569966125e+02    3.5872398376e+01
    1.4579968262e+02    3.5941802979e+01
    1.4589967346e+02    3.6011699677e+01
    1.4599966431e+02    3.6082401276e+01
    1.4609970093e+02    3.6153301239e+01
    1.4619970703e+02    3.6224098206e+01
    1.4629968262e+02    3.6294998169e+01
    1.4639971924e+02    3.6365798950e+01
    1.4649971008e+02    3.6436401367e+01
    1.4659971619e+02    3.6506401062e+01
    1.4669973755e+02    3.6576400757e+01
    1.4679971313e+02    3.6646202087e+01
    1.4689973450e+02    3.6716102600e+01
    1.4699974060e+02    3.6785697937e+01
    1.4709974670e+02    3.6855598450e+01
    1.4719976807e+02    3.6925300598e+01
    1.4729975891e+02    3.6995201111e+01
    1.4739976501e+02    3.7064598083e+01
    1.4749977112e+02    3.7134201050e+01
    1.4759977722e+02    3.7203701019e+01
    1.4769978333e+02    3.7273200989e+01
    1.4779978943e+02    3.7342399597e+01
    1.4789981079e+02    3.7411499023e+01
    1.4799981689e+02    3.7480300903e+01
    1.4809980774e+02    3.7548698425e+01
    1.4819981384e+02    3.7616699219e+01
    1.4829981995e+02    3.7684501648e+01
    1.4839982605e+02    3.7752300262e+01
    1.4849984741e+02    3.7819702148e+01
    1.4859985352e+02    3.7887397766e+01
    1.4869985962e+02    3.7954902649e+01
    1.4879986572e+02    3.8022598267e+01
    1.4889985657e+02    3.8090202332e+01
    1.4899986267e+02    3.8158000946e+01
    1.4909985352e+02    3.8225898743e+01
    1.4919987488e+02    3.8294200897e+01
    1.4929988098e+02    3.8362197876e+01
    1.4939990234e+02    3.8430400848e+01
    1.4949989319e+02    3.8498298645e+01
    1.4959991455e+02    3.8566101074e+01
    1.4969992065e+02    3.8633701324e+01
    1.4979992676e+02    3.8700901031e+01
    1.4989993286e+02    3.8767997742e+01
    1.4999993896e+02    3.8834602356e+01
    1.5009994507e+02    3.8901000977e+01
    1.5019995117e+02    3.8966899872e+01
    1.5029995728e+02    3.9032798767e+01
    1.5039993286e+02    3.9098300934e+01
    1.5049996948e+02    3.9164001465e+01
    1.5059997559e+02    3.9229801178e+01
    1.5069996643e+02    3.9295997620e+01
    1.5079997253e+02    3.9362503052e+01
    1.5089999390e+02    3.9429401398e+01
    1.5100000000e+02    3.9496803284e+01
    1.5110000610e+02    3.9564598083e+01
    1.5120001221e+02    3.9632900238e+01
    1.5130000305e+02    3.9701599121e+01
    1.5140002441e+02    3.9770900726e+01
    1.5150001526e+02    3.9840499878e+01
    1.5160002136e+02    3.9910598755e+01
    1.5170002747e+02    3.9981002808e+01
    1.5180004883e+02    4.0051902771e+01
    1.5190003967e+02    4.0123100281e+01
    1.5200006104e+02    4.0194900513e+01
    1.5210006714e+02    4.0266998291e+01
    1.5220007324e+02    4.0339797974e+01
    1.5230006409e+02    4.0413200378e+01
    1.5240008545e+02    4.0486999512e+01
    1.5250007629e+02    4.0561401367e+01
    1.5260009766e+02    4.0636398315e+01
    1.5270010376e+02    4.0711997986e+01
    1.5280009460e+02    4.0788299561e+01
    1.5290010071e+02    4.0865303040e+01
    1.5300012207e+02    4.0943099976e+01
    1.5310012817e+02    4.1021697998e+01
    1.5320011902e+02    4.1100997925e+01
    1.5330012512e+02    4.1181098938e+01
    1.5340014648e+02    4.1262199402e+01
    1.5350015259e+02    4.1344398499e+01
    1.5360015869e+02    4.1427600861e+01
    1.5370016479e+02    4.1512100220e+01
    1.5380017090e+02    4.1597900391e+01
    1.5390017700e+02    4.1685100555e+01
    1.5400015259e+02    4.1773498535e+01
    1.5410017395e+02    4.1863403320e+01
    1.5420019531e+02    4.1954601288e+01
    1.5430018616e+02    4.2058502197e+01
    1.5440020752e+02    4.2190200806e+01
    1.5450018311e+02    4.2334503174e+01
    1.5460023499e+02    4.2480800629e+01
    1.5470022583e+02    4.2628101349e+01
    1.5480021667e+02    4.2776000977e+01
    1.5490022278e+02    4.2924800873e+01
    1.5500024414e+02    4.3074302673e+01
    1.5510023499e+02    4.3224700928e+01
    1.5520024109e+02    4.3375900269e+01
    1.5530026245e+02    4.3527900696e+01
    1.5540026855e+02    4.3681098938e+01
    1.5550025940e+02    4.3835098267e+01
    1.5560028076e+02    4.3990303040e+01
    1.5570028687e+02    4.4146499634e+01
    1.5580027771e+02    4.4304000854e+01
    1.5590031433e+02    4.4462699890e+01
    1.5600030518e+02    4.4622501373e+01
    1.5610029602e+02    4.4783401489e+01
    1.5620031738e+02    4.4945602417e+01
    1.5630032349e+02    4.5108802795e+01
    1.5640031433e+02    4.5273002625e+01
    1.5650032043e+02    4.5438201904e+01
    1.5660034180e+02    4.5604499817e+01
    1.5670033264e+02    4.5771499634e+01
    1.5680033875e+02    4.5939598083e+01
    1.5690037537e+02    4.6108600616e+01
    1.5700035095e+02    4.6278400421e+01
    1.5710035706e+02    4.6449100494e+01
    1.5720036316e+02    4.6620700836e+01
    1.5730036926e+02    4.6793197632e+01
    1.5740039062e+02    4.6966697693e+01
    1.5750039673e+02    4.7141098022e+01
    1.5760038757e+02    4.7316299438e+01
    1.5770042419e+02    4.7492401123e+01
    1.5780039978e+02    4.7669300079e+01
    1.5790043640e+02    4.7847000122e+01
    1.5800042725e+02    4.8025199890e+01
    1.5810043335e+02    4.8204299927e+01
    1.5820042419e+02    4.8384002686e+01
    1.5830044556e+02    4.8564300537e+01
    1.5840045166e+02    4.8745201111e+01
    1.5850044250e+02    4.8926700592e+01
    1.5860046387e+02    4.9108901978e+01
    1.5870048523e+02    4.9291801453e+01
    1.5880047607e+02    4.9475402832e+01
    1.5890046692e+02    4.9659797668e+01
    1.5900047302e+02    4.9845199585e+01
    1.5910047913e+02    5.0031501770e+01
    1.5920050049e+02    5.0218601227e+01
    1.5930049133e+02    5.0406501770e+01
    1.5940051270e+02    5.0595397949e+01
    1.5950050354e+02    5.0785202026e+01
    1.5960052490e+02    5.0975799561e+01
    1.5970053101e+02    5.1167201996e+01
    1.5980053711e+02    5.1359401703e+01
    1.5990054321e+02    5.1552200317e+01
    1.6000054932e+02    5.1745498657e+01
    1.6010054016e+02    5.1939300537e+01
    1.6020054626e+02    5.2133602142e+01
    1.6030056763e+02    5.2333099365e+01
    1.6040054321e+02    5.2533500671e+01
    1.6050056458e+02    5.2734199524e+01
    1.6060058594e+02    5.2935100555e+01
    1.6070057678e+02    5.3136299133e+01
    1.6080058289e+02    5.3338001251e+01
    1.6090057373e+02    5.3539901733e+01
    1.6100061035e+02    5.3742500305e+01
    1.6110060120e+02    5.3945499420e+01
    1.6120062256e+02    5.4149101257e+01
    1.6130061340e+02    5.4353000641e+01
    1.6140063477e+02    5.4557498932e+01
    1.6150062561e+02    5.4762199402e+01
    1.6160066223e+02    5.4967300415e+01
    1.6170065308e+02    5.5172801971e+01
    1.6180065918e+02    5.5378700256e+01
    1.6190066528e+02    5.5584899902e+01
    1.6200065613e+02    5.5791599274e+01
    1.6210067749e+02    5.5998600006e+01
    1.6220068359e+02    5.6206100464e+01
    1.6230068970e+02    5.6414001465e+01
    1.6240069580e+02    5.6622299194e+01
    1.6250068665e+02    5.6830902100e+01
    1.6260069275e+02    5.7039901733e+01
    1.6270071411e+02    5.7249401093e+01
    1.6280070496e+02    5.7458999634e+01
    1.6290072632e+02    5.7668899536e+01
    1.6300073242e+02    5.7878898621e+01
    1.6310072327e+02    5.8089199066e+01
    1.6320074463e+02    5.8299598694e+01
    1.6330073547e+02    5.8510200500e+01
    1.6340075684e+02    5.8720901489e+01
    1.6350073242e+02    5.8931800842e+01
    1.6360076904e+02    5.9142799377e+01
    1.6370075989e+02    5.9353900909e+01
    1.6380076599e+02    5.9565200806e+01
    1.6390078735e+02    5.9776699066e+01
    1.6400079346e+02    5.9988601685e+01
    1.6410081482e+02    6.0200801849e+01
    1.6420080566e+02    6.0413299561e+01
    1.6430081177e+02    6.0626300812e+01
    1.6440080261e+02    6.0839698792e+01
    1.6450080872e+02    6.1053699493e+01
    1.6460081482e+02    6.1268100739e+01
    1.6470083618e+02    6.1482898712e+01
    1.6480085754e+02    6.1698200226e+01
    1.6490084839e+02    6.1913902283e+01
    1.6500083923e+02    6.2130001068e+01
    1.6510087585e+02    6.2346500397e+01
    1.6520086670e+02    6.2563201904e+01
    1.6530085754e+02    6.2780200958e+01
    1.6540086365e+02    6.2997600555e+01
    1.6550086975e+02    6.3215099335e+01
    1.6560087585e+02    6.3432800293e+01
    1.6570088196e+02    6.3650798798e+01
    1.6580090332e+02    6.3869098663e+01
    1.6590089417e+02    6.4087501526e+01
    1.6600091553e+02    6.4306304932e+01
    1.6610092163e+02    6.4525405884e+01
    1.6620092773e+02    6.4744796753e+01
    1.6630090332e+02    6.4964401245e+01
    1.6640092468e+02    6.5184600830e+01
    1.6650091553e+02    6.5404998779e+01
    1.6660096741e+02    6.5625900269e+01
    1.6670094299e+02    6.5847099304e+01
    1.6680096436e+02    6.6068801880e+01
    1.6690095520e+02    6.6290802002e+01
    1.6700096130e+02    6.6513198853e+01
    1.6710096741e+02    6.6736000061e+01
    1.6720098877e+02    6.6959304810e+01
    1.6730099487e+02    6.7182899475e+01
    1.6740098572e+02    6.7406906128e+01
    1.6750100708e+02    6.7631401062e+01
    1.6760101318e+02    6.7856201172e+01
    1.6770100403e+02    6.8081405640e+01
    1.6780102539e+02    6.8307098389e+01
    1.6790104675e+02    6.8533302307e+01
    1.6800102234e+02    6.8759796143e+01
    1.6810104370e+02    6.8986900330e+01
    1.6820103455e+02    6.9214202881e+01
    1.6830105591e+02    6.9442001343e+01
    1.6840104675e+02    6.9670196533e+01
    1.6850105286e+02    6.9898696899e+01
    1.6860104370e+02    7.0127601624e+01
    1.6870108032e+02    7.0357002258e+01
    1.6880108643e+02    7.0586601257e+01
    1.6890107727e+02    7.0816604614e+01
    1.6900108337e+02    7.1046905518e+01
    1.6910110474e+02    7.1277702332e+01
    1.6920109558e+02    7.1508804321e+01
    1.6930111694e+02    7.1740295410e+01
    1.6940112305e+02    7.1972305298e+01
    1.6950111389e+02    7.2204696655e+01
    1.6960110474e+02    7.2437599182e+01
    1.6970112610e+02    7.2670898438e+01
    1.6980114746e+02    7.2904800415e+01
    1.6990115356e+02    7.3139099121e+01
    1.7000115967e+02    7.3374000549e+01
    1.7010115051e+02    7.3609298706e+01
    1.7020117188e+02    7.3845199585e+01
    1.7030119324e+02    7.4081604004e+01
    1.7040116882e+02    7.4318496704e+01
    1.7050117493e+02    7.4555801392e+01
    1.7060119629e+02    7.4793601990e+01
    1.7070118713e+02    7.5031799316e+01
    1.7080119324e+02    7.5270401001e+01
    1.7090121460e+02    7.5509597778e+01
    1.7100123596e+02    7.5749099731e+01
    1.7110121155e+02    7.5988998413e+01
    1.7120120239e+02    7.6229400635e+01
    1.7130122375e+02    7.6470199585e+01
    1.7140124512e+02    7.6711395264e+01
    1.7150125122e+02    7.6953002930e+01
    1.7160125732e+02    7.7194999695e+01
    1.7170124817e+02    7.7437500000e+01
    1.7180128479e+02    7.7680404663e+01
    1.7190127563e+02    7.7923797607e+01
    1.7200126648e+02    7.8167701721e+01
    1.7210125732e+02    7.8412002563e+01
    1.7220129395e+02    7.8656997681e+01
    1.7230130005e+02    7.8902297974e+01
    1.7240129089e+02    7.9148200989e+01
    1.7250129700e+02    7.9394599915e+01
    1.7260131836e+02    7.9641494751e+01
    1.7270130920e+02    7.9888900757e+01
    1.7280134583e+02    8.0136795044e+01
    1.7290133667e+02    8.0385200500e+01
    1.7300134277e+02    8.0634101868e+01
    1.7310133362e+02    8.0883300781e+01
    1.7320135498e+02    8.1133201599e+01
    1.7330134583e+02    8.1383300781e+01
    1.7340135193e+02    8.1633895874e+01
    1.7350135803e+02    8.1884902954e+01
    1.7360136414e+02    8.2136299133e+01
    1.7370138550e+02    8.2388099670e+01
    1.7380137634e+02    8.2640197754e+01
    1.7390139771e+02    8.2892898560e+01
    1.7400138855e+02    8.3145797729e+01
    1.7410140991e+02    8.3399200439e+01
    1.7420140076e+02    8.3652999878e+01
    1.7430142212e+02    8.3907203674e+01
    1.7440141296e+02    8.4161804199e+01
    1.7450140381e+02    8.4416900635e+01
    1.7460142517e+02    8.4672401428e+01
    1.7470144653e+02    8.4928497314e+01
    1.7480143738e+02    8.5184898376e+01
    1.7490144348e+02    8.5441802979e+01
    1.7500146484e+02    8.5699203491e+01
    1.7510148621e+02    8.5957000732e+01
    1.7520147705e+02    8.6215202332e+01
    1.7530146790e+02    8.6473800659e+01
    1.7540147400e+02    8.6732803345e+01
    1.7550149536e+02    8.6992301941e+01
    1.7560151672e+02    8.7252098083e+01
    1.7570149231e+02    8.7512199402e+01
    1.7580149841e+02    8.7772804260e+01
    1.7590150452e+02    8.8033699036e+01
    1.7600149536e+02    8.8294898987e+01
    1.7610151672e+02    8.8556404114e+01
    1.7620153809e+02    8.8818298340e+01
    1.7630154419e+02    8.9080497742e+01
    1.7640153503e+02    8.9342903137e+01
    1.7650155640e+02    8.9605796814e+01
    1.7660154724e+02    8.9868797302e+01
    1.7670155334e+02    9.0132202148e+01
    1.7680157471e+02    9.0395896912e+01
    1.7690156555e+02    9.0659896851e+01
    1.7700157166e+02    9.0924201965e+01
    1.7710156250e+02    9.1188903809e+01
    1.7720158386e+02    9.1453804016e+01
    1.7730160522e+02    9.1719100952e+01
    1.7740159607e+02    9.1984603882e+01
    1.7750161743e+02    9.2250503540e+01
    1.7760162354e+02    9.2516601562e+01
    1.7770161438e+02    9.2782997131e+01
    1.7780163574e+02    9.3049797058e+01
    1.7790162659e+02    9.3316703796e+01
    1.7800163269e+02    9.3583999634e+01
    1.7810165405e+02    9.3851402283e+01
    1.7820167542e+02    9.4119102478e+01
    1.7830165100e+02    9.4387001038e+01
    1.7840165710e+02    9.4655097961e+01
    1.7850166321e+02    9.4923400879e+01
    1.7860166931e+02    9.5191802979e+01
    1.7870167542e+02    9.5460403442e+01
    1.7880169678e+02    9.5729103088e+01
    1.7890168762e+02    9.5997901917e+01
    1.7900170898e+02    9.6266899109e+01
    1.7910171509e+02    9.6535903931e+01
    1.7920170593e+02    9.6804901123e+01
    1.7930171204e+02    9.7074096680e+01
    1.7940173340e+02    9.7343498230e+01
    1.7950173950e+02    9.7612899780e+01
    1.7960173035e+02    9.7882400513e+01
    1.7970173645e+02    9.8152000427e+01
    1.7980174255e+02    9.8421699524e+01
    1.7990174866e+02    9.8691398621e+01
    1.8000175476e+02    9.8961196899e+01
    1.8010176086e+02    9.9231201172e+01
    1.8020176697e+02    9.9501098633e+01
    1.8030177307e+02    9.9771202087e+01
    1.8040179443e+02    1.0004129791e+02
    1.8050180054e+02    1.0031140137e+02
    1.8060180664e+02    1.0058139801e+02
    1.8070179749e+02    1.0085150146e+02
    1.8080180359e+02    1.0112159729e+02
    1.8090182495e+02    1.0139160156e+02
    1.8100184631e+02    1.0166149902e+02
    1.8110183716e+02    1.0193140411e+02
    1.8120182800e+02    1.0220110321e+02
    1.8130183411e+02    1.0247080231e+02
    1.8140185547e+02    1.0274040222e+02
    1.8150184631e+02    1.0300980377e+02
    1.8160185242e+02    1.0327919769e+02
    1.8170187378e+02    1.0354840088e+02
    1.8180187988e+02    1.0381739807e+02
    1.8190188599e+02    1.0408630371e+02
    1.8200187683e+02    1.0435500336e+02
    1.8210188293e+02    1.0462360382e+02
    1.8220187378e+02    1.0489199829e+02
    1.8230191040e+02    1.0516040039e+02
    1.8240191650e+02    1.0542839813e+02
    1.8250190735e+02    1.0569629669e+02
    1.8260191345e+02    1.0596399689e+02
    1.8270191956e+02    1.0623139954e+02
    1.8280192566e+02    1.0649860382e+02
    1.8290194702e+02    1.0676560211e+02
    1.8300195312e+02    1.0703230286e+02
    1.8310194397e+02    1.0729869843e+02
    1.8320196533e+02    1.0756500244e+02
    1.8330197144e+02    1.0783080292e+02
    1.8340196228e+02    1.0809629822e+02
    1.8350198364e+02    1.0836160278e+02
    1.8360197449e+02    1.0862640381e+02
    1.8370199585e+02    1.0889099884e+02
    1.8380200195e+02    1.0915509796e+02
    1.8390200806e+02    1.0941880035e+02
    1.8400199890e+02    1.0968209839e+02
    1.8410203552e+02    1.0994509888e+02
    1.8420202637e+02    1.1020760345e+02
    1.8430201721e+02    1.1046970367e+02
    1.8440202332e+02    1.1073139954e+02
    1.8450201416e+02    1.1099259949e+02
    1.8460203552e+02    1.1125340271e+02
    1.8470204163e+02    1.1151380157e+02
    1.8480203247e+02    1.1177369690e+02
    1.8490205383e+02    1.1203310394e+02
    1.8500207520e+02    1.1229209900e+02
    1.8510208130e+02    1.1255049896e+02
    1.8520207214e+02    1.1280850220e+02
    1.8530209351e+02    1.1306600189e+02
    1.8540208435e+02    1.1332289886e+02
    1.8550210571e+02    1.1357929993e+02
    1.8560209656e+02    1.1383519745e+02
    1.8570210266e+02    1.1409049988e+02
    1.8580212402e+02    1.1434529877e+02
    1.8590211487e+02    1.1459940338e+02
    1.8600213623e+02    1.1485299683e+02
    1.8610212708e+02    1.1510590363e+02
    1.8620213318e+02    1.1535820007e+02
    1.8630215454e+02    1.1560990143e+02
    1.8640214539e+02    1.1586100006e+02
    1.8650216675e+02    1.1611139679e+02
    1.8660217285e+02    1.1636109924e+02
    1.8670216370e+02    1.1661009979e+02
    1.8680216980e+02    1.1685849762e+02
    1.8690217590e+02    1.1710610199e+02
    1.8700219727e+02    1.1735310364e+02
    1.8710217285e+02    1.1759940338e+02
    1.8720219421e+02    1.1784500122e+02
    1.8730221558e+02    1.1808989716e+02
    1.8740220642e+02    1.1833399963e+02
    1.8750221252e+02    1.1857740021e+02
    1.8760223389e+02    1.1882009888e+02
    1.8770223999e+02    1.1906210327e+02
    1.8780224609e+02    1.1930310059e+02
    1.8790223694e+02    1.1954409790e+02
    1.8800225830e+02    1.1978310394e+02
    1.8810224915e+02    1.2002210236e+02
    1.8820225525e+02    1.2026010132e+02
    1.8830227661e+02    1.2049810028e+02
    1.8840228271e+02    1.2073410034e+02
    1.8850228882e+02    1.2097010040e+02
    1.8860229492e+02    1.2120510101e+02
    1.8870228577e+02    1.2143910217e+02
    1.8880229187e+02    1.2167210388e+02
    1.8890231323e+02    1.2190509796e+02
    1.8900230408e+02    1.2213610077e+02
    1.8910232544e+02    1.2236710358e+02
    1.8920231628e+02    1.2259709930e+02
    1.8930232239e+02    1.2282610321e+02
    1.8940234375e+02    1.2305410004e+02
    1.8950234985e+02    1.2328109741e+02
    1.8960235596e+02    1.2350710297e+02
    1.8970234680e+02    1.2373310089e+02
    1.8980236816e+02    1.2395709991e+02
    1.8990235901e+02    1.2418109894e+02
    1.9000238037e+02    1.2440409851e+02
    1.9010238647e+02    1.2462509918e+02
    1.9020237732e+02    1.2484609985e+02
    1.9030238342e+02    1.2506610107e+02
    1.9040240479e+02    1.2528610229e+02
    1.9050239563e+02    1.2550409698e+02
    1.9060243225e+02    1.2572109985e+02
    1.9070239258e+02    1.2593710327e+02
    1.9080241394e+02    1.2615309906e+02
    1.9090243530e+02    1.2636710358e+02
    1.9100242615e+02    1.2658110046e+02
    1.9110244751e+02    1.2679409790e+02
    1.9120245361e+02    1.2700510406e+02
    1.9130245972e+02    1.2721610260e+02
    1.9140245056e+02    1.2742610168e+02
    1.9150247192e+02    1.2763510132e+02
    1.9160247803e+02    1.2784210205e+02
    1.9170248413e+02    1.2804910278e+02
    1.9180247498e+02    1.2825509644e+02
    1.9190246582e+02    1.2846009827e+02
    1.9200250244e+02    1.2866409302e+02
    1.9210249329e+02    1.2886709595e+02
    1.9220251465e+02    1.2906909180e+02
    1.9230250549e+02    1.2927011108e+02
    1.9240252686e+02    1.2947109985e+02
    1.9250250244e+02    1.2967010498e+02
    1.9260252380e+02    1.2986810303e+02
    1.9270254517e+02    1.3006509399e+02
    1.9280255127e+02    1.3026110840e+02
    1.9290255737e+02    1.3045610046e+02
    1.9300256348e+02    1.3065010071e+02
    1.9310256958e+02    1.3084310913e+02
    1.9320257568e+02    1.3103509521e+02
    1.9330259705e+02    1.3122610474e+02
    1.9340257263e+02    1.3141610718e+02
    1.9350259399e+02    1.3160510254e+02
    1.9360261536e+02    1.3179209900e+02
    1.9370260620e+02    1.3197909546e+02
    1.9380259705e+02    1.3216510010e+02
    1.9390261841e+02    1.3235009766e+02
    1.9400262451e+02    1.3253311157e+02
    1.9410264587e+02    1.3271609497e+02
    1.9420263672e+02    1.3289709473e+02
    1.9430264282e+02    1.3307710266e+02
    1.9440263367e+02    1.3325711060e+02
    1.9450263977e+02    1.3343508911e+02
    1.9460264587e+02    1.3361209106e+02
    1.9470265198e+02    1.3378810120e+02
    1.9480264282e+02    1.3396310425e+02
    1.9490266418e+02    1.3413710022e+02
    1.9500267029e+02    1.3431008911e+02
    1.9510270691e+02    1.3448110962e+02
    1.9520269775e+02    1.3465209961e+02
    1.9530268860e+02    1.3482110596e+02
    1.9540270996e+02    1.3498910522e+02
    1.9550270081e+02    1.3515609741e+02
    1.9560270691e+02    1.3532209778e+02
    1.9570271301e+02    1.3548709106e+02
    1.9580271912e+02    1.3565109253e+02
    1.9590272522e+02    1.3581311035e+02
    1.9600274658e+02    1.3597509766e+02
    1.9610273743e+02    1.3613510132e+02
    1.9620275879e+02    1.3629409790e+02
    1.9630276489e+02    1.3645210266e+02
    1.9640278625e+02    1.3660809326e+02
    1.9650277710e+02    1.3676409912e+02
    1.9660276794e+02    1.3691809082e+02
    1.9670278931e+02    1.3707110596e+02
    1.9680276489e+02    1.3722309875e+02
    1.9690281677e+02    1.3737409973e+02
    1.9700280762e+02    1.3752310181e+02
    1.9710278320e+02    1.3767210388e+02
    1.9720280457e+02    1.3781909180e+02
    1.9730282593e+02    1.3796510315e+02
    1.9740281677e+02    1.3811010742e+02
    1.9750282288e+02    1.3825309753e+02
    1.9760284424e+02    1.3839610291e+02
    1.9770283508e+02    1.3853710938e+02
    1.9780284119e+02    1.3867709351e+02
    1.9790286255e+02    1.3881610107e+02
    1.9800286865e+02    1.3895309448e+02
    1.9810285950e+02    1.3908911133e+02
    1.9820286560e+02    1.3922509766e+02
    1.9830287170e+02    1.3935910034e+02
    1.9840289307e+02    1.3949110413e+02
    1.9850288391e+02    1.3962310791e+02
    1.9860289001e+02    1.3975309753e+02
    1.9870289612e+02    1.3988310242e+02
    1.9880290222e+02    1.4001110840e+02
    1.9890292358e+02    1.4013710022e+02
    1.9900291443e+02    1.4026309204e+02
    1.9910293579e+02    1.4038809204e+02
    1.9920294189e+02    1.4051110840e+02
    1.9930293274e+02    1.4063310242e+02
    1.9940293884e+02    1.4075408936e+02
    1.9950297546e+02    1.4087409973e+02
    1.9960296631e+02    1.4099209595e+02
    1.9970297241e+02    1.4111010742e+02
    1.9980296326e+02    1.4122610474e+02
    1.9990298462e+02    1.4134109497e+02
endcurve
