Curveplot
LS-DYNA keyword deck by LS-PrePost
Abscissa
Ordinate
XY data
NBDLHeadxCoo-1 #pts=2000
* Minval=     3.8422401428e+01 at time=         0.0000000000
* Maxval=     1.5276300049e+02 at time=       145.9996643066
    0.0000000000e+00    3.8422401428e+01
    9.9982611835e-02    3.8422401428e+01
    1.9999013841e-01    3.8422401428e+01
    2.9999765754e-01    3.8422401428e+01
    3.9998027682e-01    3.8422401428e+01
    4.9998307228e-01    3.8422401428e+01
    5.9997904301e-01    3.8422401428e+01
    6.9997501373e-01    3.8422401428e+01
    7.9999744892e-01    3.8422401428e+01
    8.9999294281e-01    3.8422401428e+01
    9.9999505281e-01    3.8422401428e+01
    1.0999777317e+00    3.8422500610e+01
    1.1999851465e+00    3.8422500610e+01
    1.2999964952e+00    3.8422500610e+01
    1.3999924660e+00    3.8422500610e+01
    1.4999971390e+00    3.8422599792e+01
    1.5999842882e+00    3.8422599792e+01
    1.6999974251e+00    3.8422599792e+01
    1.7999792099e+00    3.8422698975e+01
    1.8999910355e+00    3.8422698975e+01
    1.9999946356e+00    3.8422798157e+01
    2.0999753475e+00    3.8422798157e+01
    2.1999874115e+00    3.8422798157e+01
    2.2999742031e+00    3.8422897339e+01
    2.3999938965e+00    3.8423000336e+01
    2.4999840260e+00    3.8423000336e+01
    2.5999917984e+00    3.8423099518e+01
    2.6999990940e+00    3.8423099518e+01
    2.7999818325e+00    3.8423202515e+01
    2.8999893665e+00    3.8423301697e+01
    2.9999969006e+00    3.8423400879e+01
    3.0999794006e+00    3.8423400879e+01
    3.1999869347e+00    3.8423500061e+01
    3.2999944687e+00    3.8423599243e+01
    3.3999772072e+00    3.8423698425e+01
    3.4999847412e+00    3.8423797607e+01
    3.5999922752e+00    3.8423900604e+01
    3.6999747753e+00    3.8423999786e+01
    3.7999823093e+00    3.8424098969e+01
    3.8999898434e+00    3.8424201965e+01
    3.9999971390e+00    3.8424301147e+01
    4.0999794006e+00    3.8424400330e+01
    4.1999869347e+00    3.8424499512e+01
    4.2999854088e+00    3.8424697876e+01
    4.3999938965e+00    3.8424797058e+01
    4.4999737740e+00    3.8424900055e+01
    4.5999808311e+00    3.8424999237e+01
    4.6999878883e+00    3.8425201416e+01
    4.7999944687e+00    3.8425300598e+01
    4.8999762535e+00    3.8425399780e+01
    4.9999828339e+00    3.8425598145e+01
    5.0999894142e+00    3.8425697327e+01
    5.1999955177e+00    3.8425899506e+01
    5.2999763489e+00    3.8426002502e+01
    5.3999824524e+00    3.8426200867e+01
    5.4999880791e+00    3.8426399231e+01
    5.5999941826e+00    3.8426498413e+01
    5.6999759674e+00    3.8426700592e+01
    5.7999825478e+00    3.8426898956e+01
    5.8999886513e+00    3.8427001953e+01
    5.9999947548e+00    3.8427200317e+01
    6.0999770164e+00    3.8427398682e+01
    6.1999835968e+00    3.8427597046e+01
    6.2999906540e+00    3.8427799225e+01
    6.3999729156e+00    3.8428001404e+01
    6.4999799728e+00    3.8428199768e+01
    6.5999860764e+00    3.8428398132e+01
    6.6999917030e+00    3.8428600311e+01
    6.7999734879e+00    3.8428802490e+01
    6.8999810219e+00    3.8429000854e+01
    6.9999871254e+00    3.8429199219e+01
    7.0999941826e+00    3.8429500580e+01
    7.1999754906e+00    3.8429698944e+01
    7.2999820709e+00    3.8429901123e+01
    7.3999896049e+00    3.8430198669e+01
    7.4999704361e+00    3.8430397034e+01
    7.5999774933e+00    3.8430599213e+01
    7.6999840736e+00    3.8430900574e+01
    7.7999911308e+00    3.8431098938e+01
    7.8999729156e+00    3.8431400299e+01
    7.9999799728e+00    3.8431701660e+01
    8.0999860764e+00    3.8431900024e+01
    8.1999931335e+00    3.8432197571e+01
    8.2999753952e+00    3.8432498932e+01
    8.3999824524e+00    3.8432701111e+01
    8.4999895096e+00    3.8432998657e+01
    8.5999956131e+00    3.8433300018e+01
    8.6999778748e+00    3.8433601379e+01
    8.7999849319e+00    3.8433898926e+01
    8.8999919891e+00    3.8434200287e+01
    8.9999742508e+00    3.8434501648e+01
    9.0999803543e+00    3.8434799194e+01
    9.1999883652e+00    3.8435100555e+01
    9.2999944687e+00    3.8435401917e+01
    9.3999767303e+00    3.8435699463e+01
    9.4999837875e+00    3.8436000824e+01
    9.5999908447e+00    3.8436401367e+01
    9.6999988556e+00    3.8436698914e+01
    9.7999801636e+00    3.8437000275e+01
    9.8999872208e+00    3.8437400818e+01
    9.9999942780e+00    3.8437698364e+01
    1.0099976540e+01    3.8437999725e+01
    1.0199983597e+01    3.8438400269e+01
    1.0299990654e+01    3.8438800812e+01
    1.0399998665e+01    3.8439102173e+01
    1.0499980927e+01    3.8439498901e+01
    1.0599987984e+01    3.8439899445e+01
    1.0699995041e+01    3.8440200806e+01
    1.0800003052e+01    3.8440597534e+01
    1.0899985313e+01    3.8441001892e+01
    1.0999992371e+01    3.8441398621e+01
    1.1100000381e+01    3.8441799164e+01
    1.1199981689e+01    3.8442199707e+01
    1.1299989700e+01    3.8442600250e+01
    1.1399996758e+01    3.8443000793e+01
    1.1500003815e+01    3.8443397522e+01
    1.1599987030e+01    3.8443801880e+01
    1.1699994087e+01    3.8444198608e+01
    1.1800002098e+01    3.8444599152e+01
    1.1899984360e+01    3.8445098877e+01
    1.1999992371e+01    3.8445499420e+01
    1.2099999428e+01    3.8445899963e+01
    1.2200007439e+01    3.8446399689e+01
    1.2299988747e+01    3.8446800232e+01
    1.2399996758e+01    3.8447299957e+01
    1.2500003815e+01    3.8447700500e+01
    1.2599987030e+01    3.8448200226e+01
    1.2699994087e+01    3.8448699951e+01
    1.2800002098e+01    3.8449100494e+01
    1.2900009155e+01    3.8449699402e+01
    1.2999992371e+01    3.8450199127e+01
    1.3100000381e+01    3.8450698853e+01
    1.3200007439e+01    3.8451198578e+01
    1.3299989700e+01    3.8451698303e+01
    1.3399997711e+01    3.8452201843e+01
    1.3500004768e+01    3.8452701569e+01
    1.3600012779e+01    3.8453201294e+01
    1.3699995995e+01    3.8453701019e+01
    1.3800004005e+01    3.8454200745e+01
    1.3900011063e+01    3.8454700470e+01
    1.3999994278e+01    3.8455299377e+01
    1.4100002289e+01    3.8455799103e+01
    1.4200010300e+01    3.8456401825e+01
    1.4300017357e+01    3.8456901550e+01
    1.4399999619e+01    3.8457401276e+01
    1.4500007629e+01    3.8458000183e+01
    1.4600015640e+01    3.8458599091e+01
    1.4699998856e+01    3.8459098816e+01
    1.4800006866e+01    3.8459701538e+01
    1.4900013924e+01    3.8460300446e+01
    1.4999997139e+01    3.8460899353e+01
    1.5100005150e+01    3.8461399078e+01
    1.5200013161e+01    3.8462001801e+01
    1.5300021172e+01    3.8462600708e+01
    1.5400004387e+01    3.8463199615e+01
    1.5500012398e+01    3.8463798523e+01
    1.5600020409e+01    3.8464500427e+01
    1.5700002670e+01    3.8465099335e+01
    1.5800010681e+01    3.8465698242e+01
    1.5900018692e+01    3.8466300964e+01
    1.6000001907e+01    3.8466999054e+01
    1.6100009918e+01    3.8467601776e+01
    1.6200017929e+01    3.8468200684e+01
    1.6300001144e+01    3.8468898773e+01
    1.6400009155e+01    3.8469501495e+01
    1.6500017166e+01    3.8470199585e+01
    1.6600021362e+01    3.8470901489e+01
    1.6700004578e+01    3.8471500397e+01
    1.6800012589e+01    3.8472198486e+01
    1.6900020599e+01    3.8472900391e+01
    1.7000005722e+01    3.8473598480e+01
    1.7100013733e+01    3.8474300385e+01
    1.7200021744e+01    3.8474998474e+01
    1.7300029755e+01    3.8475700378e+01
    1.7400026321e+01    3.8476398468e+01
    1.7500009537e+01    3.8477100372e+01
    1.7600023270e+01    3.8477798462e+01
    1.7700006485e+01    3.8478599548e+01
    1.7800006866e+01    3.8479301453e+01
    1.7900014877e+01    3.8479999542e+01
    1.8000022888e+01    3.8480800629e+01
    1.8100021362e+01    3.8481498718e+01
    1.8200017929e+01    3.8482299805e+01
    1.8300025940e+01    3.8483001709e+01
    1.8400007248e+01    3.8483798981e+01
    1.8500017166e+01    3.8484600067e+01
    1.8600025177e+01    3.8485298157e+01
    1.8700033188e+01    3.8486099243e+01
    1.8800016403e+01    3.8486900330e+01
    1.8900028229e+01    3.8487701416e+01
    1.9000019073e+01    3.8488498688e+01
    1.9100019455e+01    3.8489299774e+01
    1.9200027466e+01    3.8490100861e+01
    1.9300022125e+01    3.8490898132e+01
    1.9400030136e+01    3.8491798401e+01
    1.9500013351e+01    3.8492599487e+01
    1.9600023270e+01    3.8493400574e+01
    1.9700031281e+01    3.8494300842e+01
    1.9800014496e+01    3.8495098114e+01
    1.9900022507e+01    3.8495998383e+01
    2.0000032425e+01    3.8496799469e+01
    2.0100015640e+01    3.8497699738e+01
    2.0200021744e+01    3.8498600006e+01
    2.0300029755e+01    3.8499401093e+01
    2.0400037766e+01    3.8500301361e+01
    2.0500020981e+01    3.8501201630e+01
    2.0600023270e+01    3.8502101898e+01
    2.0700021744e+01    3.8502998352e+01
    2.0800016403e+01    3.8503898621e+01
    2.0900037766e+01    3.8504798889e+01
    2.1000024796e+01    3.8505798340e+01
    2.1100040436e+01    3.8506698608e+01
    2.1200025558e+01    3.8507598877e+01
    2.1300033569e+01    3.8508499146e+01
    2.1400041580e+01    3.8509498596e+01
    2.1500038147e+01    3.8510398865e+01
    2.1600021362e+01    3.8511398315e+01
    2.1700029373e+01    3.8512401581e+01
    2.1800039291e+01    3.8513301849e+01
    2.1900022507e+01    3.8514301300e+01
    2.2000030518e+01    3.8515300751e+01
    2.2100038528e+01    3.8516300201e+01
    2.2200023651e+01    3.8517299652e+01
    2.2300031662e+01    3.8518299103e+01
    2.2400039673e+01    3.8519298553e+01
    2.2500024796e+01    3.8520301819e+01
    2.2600032806e+01    3.8521301270e+01
    2.2700040817e+01    3.8522300720e+01
    2.2800025940e+01    3.8523399353e+01
    2.2900030136e+01    3.8524398804e+01
    2.3000034332e+01    3.8525398254e+01
    2.3100046158e+01    3.8526500702e+01
    2.3200031281e+01    3.8527500153e+01
    2.3300039291e+01    3.8528598785e+01
    2.3400039673e+01    3.8529701233e+01
    2.3500040054e+01    3.8530799866e+01
    2.3600051880e+01    3.8531799316e+01
    2.3700035095e+01    3.8532901764e+01
    2.3800043106e+01    3.8534000397e+01
    2.3900053024e+01    3.8535099030e+01
    2.4000036240e+01    3.8536201477e+01
    2.4100046158e+01    3.8537399292e+01
    2.4200054169e+01    3.8538501740e+01
    2.4300037384e+01    3.8539600372e+01
    2.4400041580e+01    3.8540699005e+01
    2.4500051498e+01    3.8541900635e+01
    2.4600042343e+01    3.8542999268e+01
    2.4700037003e+01    3.8544200897e+01
    2.4800046921e+01    3.8545398712e+01
    2.4900049210e+01    3.8546501160e+01
    2.5000036240e+01    3.8547698975e+01
    2.5100042343e+01    3.8548900604e+01
    2.5200054169e+01    3.8550098419e+01
    2.5300050735e+01    3.8551300049e+01
    2.5400056839e+01    3.8552501678e+01
    2.5500055313e+01    3.8553699493e+01
    2.5600044250e+01    3.8554901123e+01
    2.5700050354e+01    3.8556098938e+01
    2.5800056458e+01    3.8557399750e+01
    2.5900045395e+01    3.8558601379e+01
    2.6000040054e+01    3.8559799194e+01
    2.6100040436e+01    3.8561100006e+01
    2.6200061798e+01    3.8562301636e+01
    2.6300060272e+01    3.8563598633e+01
    2.6400062561e+01    3.8564899445e+01
    2.6500062943e+01    3.8566200256e+01
    2.6600055695e+01    3.8567401886e+01
    2.6700040817e+01    3.8568698883e+01
    2.6800060272e+01    3.8569999695e+01
    2.6900051117e+01    3.8571300507e+01
    2.7000059128e+01    3.8572700500e+01
    2.7100048065e+01    3.8574001312e+01
    2.7200056076e+01    3.8575298309e+01
    2.7300045013e+01    3.8576599121e+01
    2.7400045395e+01    3.8577999115e+01
    2.7500057220e+01    3.8579299927e+01
    2.7600046158e+01    3.8580699921e+01
    2.7700067520e+01    3.8582099915e+01
    2.7800048828e+01    3.8583400726e+01
    2.7900058746e+01    3.8584800720e+01
    2.8000062943e+01    3.8586200714e+01
    2.8100055695e+01    3.8587600708e+01
    2.8200048447e+01    3.8589000702e+01
    2.8300069809e+01    3.8590400696e+01
    2.8400068283e+01    3.8591800690e+01
    2.8500057220e+01    3.8593200684e+01
    2.8600049973e+01    3.8594699860e+01
    2.8700048447e+01    3.8596099854e+01
    2.8800048828e+01    3.8597499847e+01
    2.8900062561e+01    3.8598999023e+01
    2.9000064850e+01    3.8600399017e+01
    2.9100065231e+01    3.8601898193e+01
    2.9200063705e+01    3.8603401184e+01
    2.9300060272e+01    3.8604900360e+01
    2.9400054932e+01    3.8606399536e+01
    2.9500053406e+01    3.8607799530e+01
    2.9600063324e+01    3.8609401703e+01
    2.9700071335e+01    3.8610900879e+01
    2.9800060272e+01    3.8612400055e+01
    2.9900058746e+01    3.8613899231e+01
    3.0000059128e+01    3.8615398407e+01
    3.0100061417e+01    3.8617000580e+01
    3.0200065613e+01    3.8618499756e+01
    3.0300073624e+01    3.8620098114e+01
    3.0400074005e+01    3.8621700287e+01
    3.0500059128e+01    3.8623298645e+01
    3.0600065231e+01    3.8624801636e+01
    3.0700059891e+01    3.8626399994e+01
    3.0800069809e+01    3.8627998352e+01
    3.0900072098e+01    3.8629699707e+01
    3.1000062943e+01    3.8631301880e+01
    3.1100072861e+01    3.8632900238e+01
    3.1200059891e+01    3.8634601593e+01
    3.1300067902e+01    3.8636199951e+01
    3.1400064468e+01    3.8637901306e+01
    3.1500057220e+01    3.8639598846e+01
    3.1600065231e+01    3.8641300201e+01
    3.1700059891e+01    3.8643001556e+01
    3.1800079346e+01    3.8644699097e+01
    3.1900079727e+01    3.8646400452e+01
    3.2000064850e+01    3.8648101807e+01
    3.2100059509e+01    3.8649898529e+01
    3.2200057983e+01    3.8651599884e+01
    3.2300052643e+01    3.8653400421e+01
    3.2400066376e+01    3.8655200958e+01
    3.2500061035e+01    3.8657001495e+01
    3.2600063324e+01    3.8658798218e+01
    3.2700061798e+01    3.8660598755e+01
    3.2800064087e+01    3.8662399292e+01
    3.2900062561e+01    3.8664299011e+01
    3.3000049591e+01    3.8666198730e+01
    3.3100040436e+01    3.8667999268e+01
    3.3200054169e+01    3.8669898987e+01
    3.3300048828e+01    3.8671798706e+01
    3.3400054932e+01    3.8673698425e+01
    3.3500038147e+01    3.8675701141e+01
    3.3600048065e+01    3.8677600861e+01
    3.3700042725e+01    3.8679599762e+01
    3.3800048828e+01    3.8681499481e+01
    3.3900035858e+01    3.8683498383e+01
    3.4000034332e+01    3.8685501099e+01
    3.4100032806e+01    3.8687500000e+01
    3.4200027466e+01    3.8689601898e+01
    3.4300029755e+01    3.8691600800e+01
    3.4400020599e+01    3.8693599701e+01
    3.4500026703e+01    3.8695701599e+01
    3.4600017548e+01    3.8697799683e+01
    3.4700023651e+01    3.8699897766e+01
    3.4800037384e+01    3.8701999664e+01
    3.4900035858e+01    3.8704200745e+01
    3.5000011444e+01    3.8706298828e+01
    3.5100013733e+01    3.8708499908e+01
    3.5200027466e+01    3.8710700989e+01
    3.5300025940e+01    3.8712898254e+01
    3.5400016785e+01    3.8715202332e+01
    3.5500007629e+01    3.8717399597e+01
    3.5600002289e+01    3.8719699860e+01
    3.5700019836e+01    3.8722000122e+01
    3.5800003052e+01    3.8724300385e+01
    3.5900001526e+01    3.8726600647e+01
    3.5999996185e+01    3.8728897095e+01
    3.6100013733e+01    3.8731300354e+01
    3.6199993134e+01    3.8733699799e+01
    3.6299999237e+01    3.8736099243e+01
    3.6400009155e+01    3.8738502502e+01
    3.6500003815e+01    3.8740997314e+01
    3.6599990845e+01    3.8743400574e+01
    3.6699996948e+01    3.8745899200e+01
    3.6800006866e+01    3.8748397827e+01
    3.6899990082e+01    3.8750900269e+01
    3.6999992371e+01    3.8753501892e+01
    3.7100002289e+01    3.8756000519e+01
    3.7199993134e+01    3.8758499146e+01
    3.7299980164e+01    3.8761100769e+01
    3.7399986267e+01    3.8763801575e+01
    3.7499980927e+01    3.8766399384e+01
    3.7599990845e+01    3.8769100189e+01
    3.7699981689e+01    3.8771800995e+01
    3.7799991608e+01    3.8774497986e+01
    3.7899974823e+01    3.8777297974e+01
    3.7999984741e+01    3.8780097961e+01
    3.8099964142e+01    3.8782897949e+01
    3.8199974060e+01    3.8785697937e+01
    3.8299968719e+01    3.8788497925e+01
    3.8399963379e+01    3.8791400909e+01
    3.8499969482e+01    3.8794300079e+01
    3.8599971771e+01    3.8797199249e+01
    3.8699958801e+01    3.8800201416e+01
    3.8799964905e+01    3.8803199768e+01
    3.8899974823e+01    3.8806198120e+01
    3.8999958038e+01    3.8809200287e+01
    3.9099967957e+01    3.8812099457e+01
    3.9199962616e+01    3.8815200806e+01
    3.9299949646e+01    3.8818298340e+01
    3.9399955750e+01    3.8821498871e+01
    3.9499942780e+01    3.8824600220e+01
    3.9599952698e+01    3.8827796936e+01
    3.9699954987e+01    3.8831001282e+01
    3.9799949646e+01    3.8834297180e+01
    3.9899959564e+01    3.8837600708e+01
    3.9999942780e+01    3.8840900421e+01
    4.0099952698e+01    3.8844200134e+01
    4.0199935913e+01    3.8847599030e+01
    4.0299934387e+01    3.8850997925e+01
    4.0399944305e+01    3.8854400635e+01
    4.0499927521e+01    3.8857799530e+01
    4.0599937439e+01    3.8861198425e+01
    4.0699924469e+01    3.8864700317e+01
    4.0799926758e+01    3.8868301392e+01
    4.0899932861e+01    3.8871902466e+01
    4.0999935150e+01    3.8875499725e+01
    4.1099918365e+01    3.8879100800e+01
    4.1199920654e+01    3.8882801056e+01
    4.1299926758e+01    3.8886501312e+01
    4.1399917603e+01    3.8890197754e+01
    4.1499923706e+01    3.8894001007e+01
    4.1599929810e+01    3.8897800446e+01
    4.1699909210e+01    3.8901599884e+01
    4.1799919128e+01    3.8905502319e+01
    4.1899925232e+01    3.8909301758e+01
    4.1999904633e+01    3.8913200378e+01
    4.2099910736e+01    3.8917201996e+01
    4.2199913025e+01    3.8921199799e+01
    4.2299919128e+01    3.8925201416e+01
    4.2399898529e+01    3.8929298401e+01
    4.2499904633e+01    3.8933399200e+01
    4.2599910736e+01    3.8937500000e+01
    4.2699916840e+01    3.8941699982e+01
    4.2799896240e+01    3.8945899963e+01
    4.2899902344e+01    3.8950199127e+01
    4.2999908447e+01    3.8954299927e+01
    4.3099887848e+01    3.8958702087e+01
    4.3199893951e+01    3.8962997437e+01
    4.3299900055e+01    3.8967399597e+01
    4.3399902344e+01    3.8971801758e+01
    4.3499881744e+01    3.8976299286e+01
    4.3599887848e+01    3.8980800629e+01
    4.3699893951e+01    3.8985298157e+01
    4.3799900055e+01    3.8989898682e+01
    4.3899894714e+01    3.8994499207e+01
    4.3999885559e+01    3.8999099731e+01
    4.4099891663e+01    3.9003799438e+01
    4.4199874878e+01    3.9008499146e+01
    4.4299880981e+01    3.9013301849e+01
    4.4399871826e+01    3.9018100739e+01
    4.4499877930e+01    3.9022899628e+01
    4.4599884033e+01    3.9027801514e+01
    4.4699863434e+01    3.9032798767e+01
    4.4799884796e+01    3.9037700653e+01
    4.4899864197e+01    3.9042800903e+01
    4.4999870300e+01    3.9047698975e+01
    4.5099876404e+01    3.9052799225e+01
    4.5199859619e+01    3.9057998657e+01
    4.5299865723e+01    3.9063201904e+01
    4.5399871826e+01    3.9068397522e+01
    4.5499855042e+01    3.9073699951e+01
    4.5599861145e+01    3.9079002380e+01
    4.5699867249e+01    3.9084400177e+01
    4.5799850464e+01    3.9089797974e+01
    4.5899856567e+01    3.9095199585e+01
    4.5999862671e+01    3.9100700378e+01
    4.6099845886e+01    3.9106300354e+01
    4.6199851990e+01    3.9111999512e+01
    4.6299858093e+01    3.9117599487e+01
    4.6399860382e+01    3.9123401642e+01
    4.6499839783e+01    3.9129199982e+01
    4.6599853516e+01    3.9134998322e+01
    4.6699855804e+01    3.9140899658e+01
    4.6799846649e+01    3.9146697998e+01
    4.6899848938e+01    3.9152801514e+01
    4.6999828339e+01    3.9158798218e+01
    4.7099826813e+01    3.9164901733e+01
    4.7199840546e+01    3.9171096802e+01
    4.7299842834e+01    3.9177398682e+01
    4.7399826050e+01    3.9183700562e+01
    4.7499835968e+01    3.9190002441e+01
    4.7599830627e+01    3.9196399689e+01
    4.7699829102e+01    3.9202800751e+01
    4.7799839020e+01    3.9209400177e+01
    4.7899818420e+01    3.9215999603e+01
    4.7999832153e+01    3.9222702026e+01
    4.8099830627e+01    3.9229301453e+01
    4.8199810028e+01    3.9236099243e+01
    4.8299816132e+01    3.9243000031e+01
    4.8399826050e+01    3.9249900818e+01
    4.8499828339e+01    3.9256900787e+01
    4.8599807739e+01    3.9263900757e+01
    4.8699810028e+01    3.9271102905e+01
    4.8799812317e+01    3.9278198242e+01
    4.8899810791e+01    3.9285499573e+01
    4.8999805450e+01    3.9292800903e+01
    4.9099800110e+01    3.9300300598e+01
    4.9199794769e+01    3.9307701111e+01
    4.9299800873e+01    3.9315299988e+01
    4.9399791718e+01    3.9322898865e+01
    4.9499797821e+01    3.9330699921e+01
    4.9599811554e+01    3.9338500977e+01
    4.9699794769e+01    3.9346401215e+01
    4.9799804688e+01    3.9354400635e+01
    4.9899791718e+01    3.9362400055e+01
    4.9999782562e+01    3.9370601654e+01
    5.0099781036e+01    3.9378799438e+01
    5.0199790955e+01    3.9387100220e+01
    5.0299785614e+01    3.9395599365e+01
    5.0399784088e+01    3.9404098511e+01
    5.0499786377e+01    3.9412700653e+01
    5.0599773407e+01    3.9421401978e+01
    5.0699783325e+01    3.9430099487e+01
    5.0799781799e+01    3.9438999176e+01
    5.0899791718e+01    3.9447998047e+01
    5.0999774933e+01    3.9457099915e+01
    5.1099769592e+01    3.9466201782e+01
    5.1199779510e+01    3.9475601196e+01
    5.1299762726e+01    3.9484901428e+01
    5.1399776459e+01    3.9494499207e+01
    5.1499771118e+01    3.9504100800e+01
    5.1599765778e+01    3.9513900757e+01
    5.1699760437e+01    3.9523700714e+01
    5.1799766541e+01    3.9533599854e+01
    5.1899772644e+01    3.9543701172e+01
    5.1999752045e+01    3.9554000854e+01
    5.2099761963e+01    3.9564300537e+01
    5.2199748993e+01    3.9574699402e+01
    5.2299747467e+01    3.9585300446e+01
    5.2399749756e+01    3.9596000671e+01
    5.2499748230e+01    3.9606800079e+01
    5.2599754333e+01    3.9617698669e+01
    5.2699764252e+01    3.9628898621e+01
    5.2799743652e+01    3.9639999390e+01
    5.2899753571e+01    3.9651500702e+01
    5.2999740601e+01    3.9662899017e+01
    5.3099739075e+01    3.9674499512e+01
    5.3199737549e+01    3.9686298370e+01
    5.3299751282e+01    3.9698200226e+01
    5.3399738312e+01    3.9710300446e+01
    5.3499748230e+01    3.9722499847e+01
    5.3599746704e+01    3.9734802246e+01
    5.3699745178e+01    3.9747398376e+01
    5.3799739838e+01    3.9760002136e+01
    5.3899723053e+01    3.9772800446e+01
    5.3999729156e+01    3.9785800934e+01
    5.4099739075e+01    3.9798999786e+01
    5.4199733734e+01    3.9812301636e+01
    5.4299720764e+01    3.9825798035e+01
    5.4399730682e+01    3.9839401245e+01
    5.4499732971e+01    3.9853302002e+01
    5.4599716187e+01    3.9867301941e+01
    5.4699726105e+01    3.9881500244e+01
    5.4799724579e+01    3.9895797729e+01
    5.4899707794e+01    3.9910301208e+01
    5.4999717712e+01    3.9925098419e+01
    5.5099708557e+01    3.9939998627e+01
    5.5199718475e+01    3.9955200195e+01
    5.5299701691e+01    3.9970500946e+01
    5.5399703979e+01    3.9986000061e+01
    5.5499713898e+01    4.0001701355e+01
    5.5599697113e+01    4.0017700195e+01
    5.5699714661e+01    4.0033798218e+01
    5.5799701691e+01    4.0050102234e+01
    5.5899692535e+01    4.0066699982e+01
    5.5999702454e+01    4.0083400726e+01
    5.6099700928e+01    4.0100399017e+01
    5.6199703217e+01    4.0117599487e+01
    5.6299694061e+01    4.0135002136e+01
    5.6399692535e+01    4.0152599335e+01
    5.6499694824e+01    4.0170501709e+01
    5.6599685669e+01    4.0188499451e+01
    5.6699680328e+01    4.0206897736e+01
    5.6799678802e+01    4.0225399017e+01
    5.6899700165e+01    4.0244201660e+01
    5.6999698639e+01    4.0263198853e+01
    5.7099681854e+01    4.0282299042e+01
    5.7199672699e+01    4.0301898956e+01
    5.7299678802e+01    4.0321601868e+01
    5.7399669647e+01    4.0341499329e+01
    5.7499687195e+01    4.0361698151e+01
    5.7599685669e+01    4.0382198334e+01
    5.7699672699e+01    4.0402900696e+01
    5.7799674988e+01    4.0423900604e+01
    5.7899681091e+01    4.0445201874e+01
    5.7999679565e+01    4.0466697693e+01
    5.8099670410e+01    4.0488399506e+01
    5.8199657440e+01    4.0510498047e+01
    5.8299674988e+01    4.0532699585e+01
    5.8399673462e+01    4.0555301666e+01
    5.8499660492e+01    4.0578201294e+01
    5.8599655151e+01    4.0601299286e+01
    5.8699653625e+01    4.0624698639e+01
    5.8799667358e+01    4.0648300171e+01
    5.8899646759e+01    4.0672302246e+01
    5.8999668121e+01    4.0696601868e+01
    5.9099643707e+01    4.0721099854e+01
    5.9199642181e+01    4.0745899200e+01
    5.9299655914e+01    4.0770999908e+01
    5.9399658203e+01    4.0796401978e+01
    5.9499649048e+01    4.0821998596e+01
    5.9599632263e+01    4.0847999573e+01
    5.9699634552e+01    4.0874198914e+01
    5.9799644470e+01    4.0900699615e+01
    5.9899639130e+01    4.0927501678e+01
    5.9999652863e+01    4.0954700470e+01
    6.0099647522e+01    4.0982101440e+01
    6.0199638367e+01    4.1009799957e+01
    6.0299644470e+01    4.1037799835e+01
    6.0399639130e+01    4.1066101074e+01
    6.0499645233e+01    4.1094699860e+01
    6.0599624634e+01    4.1123600006e+01
    6.0699630737e+01    4.1152702332e+01
    6.0799621582e+01    4.1182197571e+01
    6.0899616241e+01    4.1212001801e+01
    6.0999614716e+01    4.1242099762e+01
    6.1099624634e+01    4.1272499084e+01
    6.1199626923e+01    4.1303199768e+01
    6.1299617767e+01    4.1334197998e+01
    6.1399608612e+01    4.1365501404e+01
    6.1499607086e+01    4.1397102356e+01
    6.1599628448e+01    4.1429000854e+01
    6.1699615479e+01    4.1461200714e+01
    6.1799602509e+01    4.1493797302e+01
    6.1899600983e+01    4.1526599884e+01
    6.1999599457e+01    4.1559700012e+01
    6.2099617004e+01    4.1593299866e+01
    6.2199600220e+01    4.1626998901e+01
    6.2299594879e+01    4.1661102295e+01
    6.2399604797e+01    4.1695499420e+01
    6.2499595642e+01    4.1730201721e+01
    6.2599594116e+01    4.1765201569e+01
    6.2699604034e+01    4.1800598145e+01
    6.2799606323e+01    4.1836299896e+01
    6.2899600983e+01    4.1872299194e+01
    6.2999599457e+01    4.1908599854e+01
    6.3099582672e+01    4.1945301056e+01
    6.3199581146e+01    4.1982200623e+01
    6.3299602509e+01    4.2019500732e+01
    6.3399585724e+01    4.2057098389e+01
    6.3499599457e+01    4.2095001221e+01
    6.3599582672e+01    4.2133300781e+01
    6.3699596405e+01    4.2171897888e+01
    6.3799575806e+01    4.2210800171e+01
    6.3899578094e+01    4.2250099182e+01
    6.3999591827e+01    4.2289699554e+01
    6.4099578857e+01    4.2329601288e+01
    6.4199592590e+01    4.2369800568e+01
    6.4299591064e+01    4.2410400391e+01
    6.4399589539e+01    4.2451301575e+01
    6.4499588013e+01    4.2492599487e+01
    6.4599563599e+01    4.2534198761e+01
    6.4699577332e+01    4.2576202393e+01
    6.4799568176e+01    4.2618499756e+01
    6.4899574280e+01    4.2661201477e+01
    6.4999565125e+01    4.2704299927e+01
    6.5099571228e+01    4.2747703552e+01
    6.5199562073e+01    4.2791397095e+01
    6.5299552917e+01    4.2835498810e+01
    6.5399566650e+01    4.2879997253e+01
    6.5499565125e+01    4.2924900055e+01
    6.5599555969e+01    4.2970199585e+01
    6.5699554443e+01    4.3015800476e+01
    6.5799545288e+01    4.3061801910e+01
    6.5899566650e+01    4.3108200073e+01
    6.5999565125e+01    4.3155002594e+01
    6.6099540710e+01    4.3202201843e+01
    6.6199562073e+01    4.3249801636e+01
    6.6299552917e+01    4.3297798157e+01
    6.6399536133e+01    4.3346202850e+01
    6.6499534607e+01    4.3395099640e+01
    6.6599540710e+01    4.3444301605e+01
    6.6699531555e+01    4.3493896484e+01
    6.6799552917e+01    4.3543998718e+01
    6.6899543762e+01    4.3594501495e+01
    6.6999526978e+01    4.3645500183e+01
    6.7099525452e+01    4.3696899414e+01
    6.7199539185e+01    4.3748699188e+01
    6.7299530029e+01    4.3800998688e+01
    6.7399536133e+01    4.3853702545e+01
    6.7499526978e+01    4.3906997681e+01
    6.7599525452e+01    4.3960700989e+01
    6.7699523926e+01    4.4014900208e+01
    6.7799514771e+01    4.4069499969e+01
    6.7899513245e+01    4.4124698639e+01
    6.7999526978e+01    4.4180198669e+01
    6.8099525452e+01    4.4236400604e+01
    6.8199523926e+01    4.4292999268e+01
    6.8299522400e+01    4.4350101471e+01
    6.8399520874e+01    4.4407699585e+01
    6.8499519348e+01    4.4465896606e+01
    6.8599510193e+01    4.4524600983e+01
    6.8699508667e+01    4.4583801270e+01
    6.8799514771e+01    4.4643600464e+01
    6.8899497986e+01    4.4703903198e+01
    6.8999496460e+01    4.4764801025e+01
    6.9099502563e+01    4.4826198578e+01
    6.9199493408e+01    4.4888301849e+01
    6.9299507141e+01    4.4950901031e+01
    6.9399505615e+01    4.5013999939e+01
    6.9499511719e+01    4.5077701569e+01
    6.9599510193e+01    4.5142097473e+01
    6.9699493408e+01    4.5207099915e+01
    6.9799491882e+01    4.5272701263e+01
    6.9899490356e+01    4.5338901520e+01
    6.9999504089e+01    4.5405799866e+01
    7.0099487305e+01    4.5473197937e+01
    7.0199493408e+01    4.5541397095e+01
    7.0299484253e+01    4.5610099792e+01
    7.0399482727e+01    4.5679603577e+01
    7.0499473572e+01    4.5749698639e+01
    7.0599487305e+01    4.5820602417e+01
    7.0699485779e+01    4.5892101288e+01
    7.0799484253e+01    4.5964302063e+01
    7.0899475098e+01    4.6037300110e+01
    7.0999488831e+01    4.6110900879e+01
    7.1099472046e+01    4.6185199738e+01
    7.1199470520e+01    4.6260398865e+01
    7.1299468994e+01    4.6336299896e+01
    7.1399459839e+01    4.6412899017e+01
    7.1499458313e+01    4.6490299225e+01
    7.1599456787e+01    4.6568496704e+01
    7.1699455261e+01    4.6647499084e+01
    7.1799453735e+01    4.6727302551e+01
    7.1899467468e+01    4.6807899475e+01
    7.1999458313e+01    4.6889297485e+01
    7.2099464417e+01    4.6971599579e+01
    7.2199462891e+01    4.7054771423e+01
    7.2299453735e+01    4.7138717651e+01
    7.2399444580e+01    4.7223640442e+01
    7.2499443054e+01    4.7309322357e+01
    7.2599449158e+01    4.7396060944e+01
    7.2699440002e+01    4.7483669281e+01
    7.2799446106e+01    4.7572242737e+01
    7.2899452209e+01    4.7661659241e+01
    7.2999450684e+01    4.7752147675e+01
    7.3099441528e+01    4.7843589783e+01
    7.3199440002e+01    4.7935977936e+01
    7.3299453735e+01    4.8029418945e+01
    7.3399429321e+01    4.8123821259e+01
    7.3499443054e+01    4.8219261169e+01
    7.3599441528e+01    4.8315849304e+01
    7.3699447632e+01    4.8413379669e+01
    7.3799446106e+01    4.8511959076e+01
    7.3899436951e+01    4.8611679077e+01
    7.3999427795e+01    4.8712429047e+01
    7.4099433899e+01    4.8814327240e+01
    7.4199417114e+01    4.8917259216e+01
    7.4299423218e+01    4.9021419525e+01
    7.4399429321e+01    4.9126609802e+01
    7.4499420166e+01    4.9233028412e+01
    7.4599418640e+01    4.9340583801e+01
    7.4699417114e+01    4.9449249268e+01
    7.4799415588e+01    4.9559139252e+01
    7.4899421692e+01    4.9670150757e+01
    7.4999404907e+01    4.9782382965e+01
    7.5099418640e+01    4.9895820618e+01
    7.5199417114e+01    5.0010482788e+01
    7.5299423218e+01    5.0126338959e+01
    7.5399398804e+01    5.0243419647e+01
    7.5499404907e+01    5.0361801147e+01
    7.5599411011e+01    5.0481380463e+01
    7.5699401855e+01    5.0602260590e+01
    7.5799400330e+01    5.0724441528e+01
    7.5899398804e+01    5.0847923279e+01
    7.5999404907e+01    5.0972686768e+01
    7.6099403381e+01    5.1098842621e+01
    7.6199394226e+01    5.1226287842e+01
    7.6299392700e+01    5.1355010986e+01
    7.6399406433e+01    5.1485221863e+01
    7.6499389648e+01    5.1616600037e+01
    7.6599395752e+01    5.1749557495e+01
    7.6699394226e+01    5.1883781433e+01
    7.6799392700e+01    5.2019378662e+01
    7.6899391174e+01    5.2156433105e+01
    7.6999382019e+01    5.2294849396e+01
    7.7099388123e+01    5.2434730530e+01
    7.7199394226e+01    5.2575958252e+01
    7.7299377441e+01    5.2718650818e+01
    7.7399368286e+01    5.2862880707e+01
    7.7499366760e+01    5.3008453369e+01
    7.7599380493e+01    5.3155559540e+01
    7.7699386597e+01    5.3304210663e+01
    7.7799377441e+01    5.3454200745e+01
    7.7899368286e+01    5.3605819702e+01
    7.7999374390e+01    5.3758861542e+01
    7.8099357605e+01    5.3913421631e+01
    7.8199371338e+01    5.4069492340e+01
    7.8299377441e+01    5.4227081299e+01
    7.8399368286e+01    5.4386280060e+01
    7.8499351501e+01    5.4546890259e+01
    7.8599349976e+01    5.4709091187e+01
    7.8699363708e+01    5.4872886658e+01
    7.8799354553e+01    5.5038177490e+01
    7.8899353027e+01    5.5205150604e+01
    7.8999343872e+01    5.5373519897e+01
    7.9099357605e+01    5.5543647766e+01
    7.9199348450e+01    5.5715160370e+01
    7.9299339294e+01    5.5888343811e+01
    7.9399345398e+01    5.6063171387e+01
    7.9499343872e+01    5.6239570618e+01
    7.9599334717e+01    5.6417621613e+01
    7.9699340820e+01    5.6597309113e+01
    7.9799331665e+01    5.6778549194e+01
    7.9899330139e+01    5.6961429596e+01
    7.9999328613e+01    5.7145927429e+01
    8.0099334717e+01    5.7332046509e+01
    8.0199333191e+01    5.7519798279e+01
    8.0299339294e+01    5.7709239960e+01
    8.0399337769e+01    5.7900390625e+01
    8.0499336243e+01    5.8093139648e+01
    8.0599334717e+01    5.8287582397e+01
    8.0699325562e+01    5.8483703613e+01
    8.0799331665e+01    5.8681499481e+01
    8.0899330139e+01    5.8880970001e+01
    8.0999305725e+01    5.9082118988e+01
    8.1099311829e+01    5.9284980774e+01
    8.1199302673e+01    5.9489532471e+01
    8.1299324036e+01    5.9695812225e+01
    8.1399299622e+01    5.9903503418e+01
    8.1499320984e+01    6.0112792969e+01
    8.1599311829e+01    6.0323600769e+01
    8.1699287415e+01    6.0535991669e+01
    8.1799308777e+01    6.0749832153e+01
    8.1899291992e+01    6.0965270996e+01
    8.1999290466e+01    6.1182296753e+01
    8.2099304199e+01    6.1400966644e+01
    8.2199302673e+01    6.1621330261e+01
    8.2299285889e+01    6.1843338013e+01
    8.2399307251e+01    6.2067119598e+01
    8.2499282837e+01    6.2292602539e+01
    8.2599281311e+01    6.2519889832e+01
    8.2699287415e+01    6.2748970032e+01
    8.2799293518e+01    6.2979869843e+01
    8.2899299622e+01    6.3212577820e+01
    8.2999282837e+01    6.3447139740e+01
    8.3099296570e+01    6.3683578491e+01
    8.3199287415e+01    6.3921741486e+01
    8.3299278259e+01    6.4161766052e+01
    8.3399284363e+01    6.4403778076e+01
    8.3499267578e+01    6.4647445679e+01
    8.3599266052e+01    6.4893119812e+01
    8.3699272156e+01    6.5140472412e+01
    8.3799285889e+01    6.5389678955e+01
    8.3899284363e+01    6.5640518188e+01
    8.3999267578e+01    6.5893058777e+01
    8.4099273682e+01    6.6147361755e+01
    8.4199264526e+01    6.6403327942e+01
    8.4299270630e+01    6.6661148071e+01
    8.4399269104e+01    6.6920608521e+01
    8.4499252319e+01    6.7181838989e+01
    8.4599273682e+01    6.7445022583e+01
    8.4699272156e+01    6.7709884644e+01
    8.4799247742e+01    6.7976509094e+01
    8.4899269104e+01    6.8245094299e+01
    8.4999244690e+01    6.8515441895e+01
    8.5099243164e+01    6.8787620544e+01
    8.5199249268e+01    6.9061798096e+01
    8.5299255371e+01    6.9337791443e+01
    8.5399238586e+01    6.9615463257e+01
    8.5499237061e+01    6.9894927979e+01
    8.5599250793e+01    7.0176216125e+01
    8.5699241638e+01    7.0459083557e+01
    8.5799255371e+01    7.0743782043e+01
    8.5899230957e+01    7.1030136108e+01
    8.5999237061e+01    7.1318145752e+01
    8.6099250793e+01    7.1607910156e+01
    8.6199241638e+01    7.1899330139e+01
    8.6299217224e+01    7.2192276001e+01
    8.6399246216e+01    7.2486968994e+01
    8.6499229431e+01    7.2783065796e+01
    8.6599243164e+01    7.3080902100e+01
    8.6699241638e+01    7.3380172729e+01
    8.6799217224e+01    7.3680885315e+01
    8.6899215698e+01    7.3983276367e+01
    8.6999214172e+01    7.4287101746e+01
    8.7099212646e+01    7.4592498779e+01
    8.7199211121e+01    7.4899421692e+01
    8.7299224854e+01    7.5207817078e+01
    8.7399208069e+01    7.5517776489e+01
    8.7499214172e+01    7.5829238892e+01
    8.7599220276e+01    7.6142349243e+01
    8.7699203491e+01    7.6456939697e+01
    8.7799194336e+01    7.6773178101e+01
    8.7899200439e+01    7.7090972900e+01
    8.7999198914e+01    7.7410301208e+01
    8.8099220276e+01    7.7731254578e+01
    8.8199218750e+01    7.8053710938e+01
    8.8299209595e+01    7.8377571106e+01
    8.8399215698e+01    7.8702949524e+01
    8.8499206543e+01    7.9029655457e+01
    8.8599205017e+01    7.9357841492e+01
    8.8699188232e+01    7.9687278748e+01
    8.8799201965e+01    8.0018089294e+01
    8.8899208069e+01    8.0350257874e+01
    8.8999198914e+01    8.0683479309e+01
    8.9099189758e+01    8.1017890930e+01
    8.9199195862e+01    8.1353561401e+01
    8.9299201965e+01    8.1690376282e+01
    8.9399200439e+01    8.2028152466e+01
    8.9499191284e+01    8.2366874695e+01
    8.9599174500e+01    8.2706535339e+01
    8.9699172974e+01    8.3047294617e+01
    8.9799171448e+01    8.3389099121e+01
    8.9899169922e+01    8.3731819153e+01
    8.9999168396e+01    8.4075462341e+01
    9.0099189758e+01    8.4420158386e+01
    9.0199165344e+01    8.4765579224e+01
    9.0299179077e+01    8.5112091064e+01
    9.0399177551e+01    8.5459144592e+01
    9.0499183655e+01    8.5806961060e+01
    9.0599182129e+01    8.6155342102e+01
    9.0699172974e+01    8.6504463196e+01
    9.0799179077e+01    8.6854072571e+01
    9.0899162292e+01    8.7204277039e+01
    9.0999168396e+01    8.7555084229e+01
    9.1099174500e+01    8.7906333923e+01
    9.1199157715e+01    8.8257820129e+01
    9.1299156189e+01    8.8609786987e+01
    9.1399169922e+01    8.8962036133e+01
    9.1499145508e+01    8.9314613342e+01
    9.1599166870e+01    8.9667518616e+01
    9.1699157715e+01    9.0020652771e+01
    9.1799163818e+01    9.0374031067e+01
    9.1899162292e+01    9.0727508545e+01
    9.1999145508e+01    9.1081062317e+01
    9.2099159241e+01    9.1434944153e+01
    9.2199134827e+01    9.1788726807e+01
    9.2299156189e+01    9.2142692566e+01
    9.2399147034e+01    9.2496543884e+01
    9.2499145508e+01    9.2850288391e+01
    9.2599128723e+01    9.3203964233e+01
    9.2699134827e+01    9.3557579041e+01
    9.2799148560e+01    9.3910934448e+01
    9.2899131775e+01    9.4263900757e+01
    9.2999137878e+01    9.4616615295e+01
    9.3099136353e+01    9.4968925476e+01
    9.3199142456e+01    9.5320892334e+01
    9.3299125671e+01    9.5672119141e+01
    9.3399139404e+01    9.6022903442e+01
    9.3499137878e+01    9.6372993469e+01
    9.3599128723e+01    9.6722145081e+01
    9.3699134827e+01    9.7070701599e+01
    9.3799140930e+01    9.7418838501e+01
    9.3899131775e+01    9.7765579224e+01
    9.3999122620e+01    9.8111900330e+01
    9.4099105835e+01    9.8456748962e+01
    9.4199104309e+01    9.8801055908e+01
    9.4299110413e+01    9.9143875122e+01
    9.4399101257e+01    9.9485198975e+01
    9.4499099731e+01    9.9825996399e+01
    9.4599113464e+01    1.0016525269e+02
    9.4699111938e+01    1.0050300598e+02
    9.4799102783e+01    1.0083921814e+02
    9.4899108887e+01    1.0117382050e+02
    9.4999107361e+01    1.0150786591e+02
    9.5099105835e+01    1.0183930969e+02
    9.5199119568e+01    1.0217015076e+02
    9.5299110413e+01    1.0249843597e+02
    9.5399093628e+01    1.0282518005e+02
    9.5499107361e+01    1.0315016937e+02
    9.5599098206e+01    1.0347357941e+02
    9.5699096680e+01    1.0379531097e+02
    9.5799087524e+01    1.0411438751e+02
    9.5899093628e+01    1.0443275452e+02
    9.5999099731e+01    1.0474845123e+02
    9.6099075317e+01    1.0506153107e+02
    9.6199096680e+01    1.0537380219e+02
    9.6299095154e+01    1.0568339539e+02
    9.6399085999e+01    1.0599130249e+02
    9.6499069214e+01    1.0629650116e+02
    9.6599075317e+01    1.0659989929e+02
    9.6699081421e+01    1.0690060425e+02
    9.6799064636e+01    1.0719970703e+02
    9.6899085999e+01    1.0749679565e+02
    9.6999084473e+01    1.0779129791e+02
    9.7099052429e+01    1.0808309937e+02
    9.7199066162e+01    1.0837390137e+02
    9.7299064636e+01    1.0866100311e+02
    9.7399055481e+01    1.0894630432e+02
    9.7499053955e+01    1.0922869873e+02
    9.7599060059e+01    1.0950930023e+02
    9.7699050903e+01    1.0978800201e+02
    9.7799057007e+01    1.1006369781e+02
    9.7899063110e+01    1.1033659363e+02
    9.7999061584e+01    1.1060750580e+02
    9.8099052429e+01    1.1087560272e+02
    9.8199058533e+01    1.1114170074e+02
    9.8299064636e+01    1.1140489960e+02
    9.8399047852e+01    1.1166630554e+02
    9.8499053955e+01    1.1192459106e+02
    9.8599044800e+01    1.1218010712e+02
    9.8699043274e+01    1.1243349457e+02
    9.8799041748e+01    1.1268510437e+02
    9.8899055481e+01    1.1293360138e+02
    9.8999031067e+01    1.1317919922e+02
    9.9099029541e+01    1.1342280579e+02
    9.9199050903e+01    1.1366340637e+02
    9.9299034119e+01    1.1390209961e+02
    9.9399032593e+01    1.1413779449e+02
    9.9499038696e+01    1.1437139893e+02
    9.9599029541e+01    1.1460220337e+02
    9.9699043274e+01    1.1483089447e+02
    9.9799041748e+01    1.1505670166e+02
    9.9899032593e+01    1.1528050232e+02
    9.9999023438e+01    1.1550140381e+02
    1.0009902954e+02    1.1571929169e+02
    1.0019902802e+02    1.1593530273e+02
    1.0029902649e+02    1.1614929962e+02
    1.0039903259e+02    1.1636039734e+02
    1.0049900818e+02    1.1656959534e+02
    1.0059902191e+02    1.1677590179e+02
    1.0069902802e+02    1.1698020172e+02
    1.0079901123e+02    1.1718260193e+02
    1.0089901733e+02    1.1738199615e+02
    1.0099902344e+02    1.1757949829e+02
    1.0109899902e+02    1.1777420807e+02
    1.0119901276e+02    1.1796780396e+02
    1.0129901123e+02    1.1815859985e+02
    1.0139900208e+02    1.1834740448e+02
    1.0149900055e+02    1.1853420258e+02
    1.0159899902e+02    1.1871809387e+02
    1.0169901276e+02    1.1890090942e+02
    1.0179898834e+02    1.1908100128e+02
    1.0189900970e+02    1.1925979614e+02
    1.0199900055e+02    1.1943590546e+02
    1.0209900665e+02    1.1960980225e+02
    1.0219901276e+02    1.1978290558e+02
    1.0229900360e+02    1.1995300293e+02
    1.0239897919e+02    1.2012229919e+02
    1.0249897766e+02    1.2028849792e+02
    1.0259898376e+02    1.2045379639e+02
    1.0269898987e+02    1.2061720276e+02
    1.0279898071e+02    1.2077970886e+02
    1.0289898682e+02    1.2093929291e+02
    1.0299897766e+02    1.2109809875e+02
    1.0309899139e+02    1.2125490570e+02
    1.0319898987e+02    1.2140980530e+02
    1.0329898071e+02    1.2156390381e+02
    1.0339897156e+02    1.2171609497e+02
    1.0349897766e+02    1.2186639404e+02
    1.0359898376e+02    1.2201589966e+02
    1.0369895935e+02    1.2216359711e+02
    1.0379897308e+02    1.2231030273e+02
    1.0389897156e+02    1.2245520020e+02
    1.0399897003e+02    1.2259928894e+02
    1.0409895325e+02    1.2274159241e+02
    1.0419896698e+02    1.2288289642e+02
    1.0429895020e+02    1.2302270508e+02
    1.0439897156e+02    1.2316250610e+02
    1.0449894714e+02    1.2329980469e+02
    1.0459896088e+02    1.2343619537e+02
    1.0469895935e+02    1.2357190704e+02
    1.0479897308e+02    1.2370589447e+02
    1.0489894867e+02    1.2383920288e+02
    1.0499893951e+02    1.2397070312e+02
    1.0509895325e+02    1.2410250854e+02
    1.0519895172e+02    1.2423249817e+02
    1.0529894257e+02    1.2436079407e+02
    1.0539894867e+02    1.2448930359e+02
    1.0549893951e+02    1.2461619568e+02
    1.0559895325e+02    1.2474219513e+02
    1.0569893646e+02    1.2486659241e+02
    1.0579892731e+02    1.2499040222e+02
    1.0589893341e+02    1.2511329651e+02
    1.0599894714e+02    1.2523549652e+02
    1.0609893799e+02    1.2535710144e+02
    1.0619892120e+02    1.2547709656e+02
    1.0629892731e+02    1.2559630585e+02
    1.0639894104e+02    1.2571369934e+02
    1.0649893188e+02    1.2583160400e+02
    1.0659892273e+02    1.2594779968e+02
    1.0669893646e+02    1.2606219482e+02
    1.0679891205e+02    1.2617730713e+02
    1.0689893341e+02    1.2629050446e+02
    1.0699891663e+02    1.2640330505e+02
    1.0709893036e+02    1.2651529694e+02
    1.0719891357e+02    1.2662599945e+02
    1.0729891205e+02    1.2673609924e+02
    1.0739890289e+02    1.2684550476e+02
    1.0749891663e+02    1.2695329285e+02
    1.0759890747e+02    1.2706069946e+02
    1.0769892120e+02    1.2716749573e+02
    1.0779889679e+02    1.2727390289e+02
    1.0789891052e+02    1.2737860107e+02
    1.0799891663e+02    1.2748279572e+02
    1.0809889221e+02    1.2758680725e+02
    1.0819889832e+02    1.2769000244e+02
    1.0829889679e+02    1.2779190063e+02
    1.0839888763e+02    1.2789230347e+02
    1.0849890137e+02    1.2799330139e+02
    1.0859889221e+02    1.2809289551e+02
    1.0869889069e+02    1.2819110107e+02
    1.0879888153e+02    1.2828890991e+02
    1.0889890289e+02    1.2838610840e+02
    1.0899887848e+02    1.2848210144e+02
    1.0909886932e+02    1.2857769775e+02
    1.0919888306e+02    1.2867190552e+02
    1.0929888916e+02    1.2876559448e+02
    1.0939888763e+02    1.2885910034e+02
    1.0949887085e+02    1.2895130920e+02
    1.0959887695e+02    1.2904199219e+02
    1.0969886780e+02    1.2913250732e+02
    1.0979888916e+02    1.2922250366e+02
    1.0989885712e+02    1.2931159973e+02
    1.0999887085e+02    1.2940020752e+02
    1.1009886932e+02    1.2948751831e+02
    1.1019886780e+02    1.2957360840e+02
    1.1029885864e+02    1.2965951538e+02
    1.1039885712e+02    1.2974420166e+02
    1.1049887085e+02    1.2982760620e+02
    1.1059886932e+02    1.2991079712e+02
    1.1069886017e+02    1.2999389648e+02
    1.1079885864e+02    1.3007580566e+02
    1.1089887238e+02    1.3015649414e+02
    1.1099886322e+02    1.3023619080e+02
    1.1109886169e+02    1.3031579590e+02
    1.1119886017e+02    1.3039529419e+02
    1.1129885864e+02    1.3047259521e+02
    1.1139884949e+02    1.3055001831e+02
    1.1149886322e+02    1.3062609863e+02
    1.1159886932e+02    1.3070220947e+02
    1.1169885254e+02    1.3077639771e+02
    1.1179882812e+02    1.3085058594e+02
    1.1189884186e+02    1.3092349243e+02
    1.1199884796e+02    1.3099630737e+02
    1.1209886169e+02    1.3106710815e+02
    1.1219885254e+02    1.3113790894e+02
    1.1229885101e+02    1.3120770264e+02
    1.1239884186e+02    1.3127639771e+02
    1.1249881744e+02    1.3134530640e+02
    1.1259883881e+02    1.3141290283e+02
    1.1269883728e+02    1.3148010254e+02
    1.1279884338e+02    1.3154629517e+02
    1.1289882660e+02    1.3161289978e+02
    1.1299881744e+02    1.3167761230e+02
    1.1309883118e+02    1.3174250793e+02
    1.1319882965e+02    1.3180679321e+02
    1.1329882812e+02    1.3187030029e+02
    1.1339881897e+02    1.3193328857e+02
    1.1349883270e+02    1.3199530029e+02
    1.1359880829e+02    1.3205780029e+02
    1.1369880676e+02    1.3211840820e+02
    1.1379882812e+02    1.3217900085e+02
    1.1389881134e+02    1.3223800659e+02
    1.1399880219e+02    1.3229699707e+02
    1.1409883118e+02    1.3235499573e+02
    1.1419879913e+02    1.3241299438e+02
    1.1429882050e+02    1.3246899414e+02
    1.1439881134e+02    1.3252600098e+02
    1.1449880981e+02    1.3258099365e+02
    1.1459880066e+02    1.3263699341e+02
    1.1469879150e+02    1.3269100952e+02
    1.1479878998e+02    1.3274499512e+02
    1.1489880371e+02    1.3279800415e+02
    1.1499878693e+02    1.3284999084e+02
    1.1509880066e+02    1.3290299988e+02
    1.1519880676e+02    1.3295498657e+02
    1.1529881287e+02    1.3300601196e+02
    1.1539880371e+02    1.3305700684e+02
    1.1549877930e+02    1.3310699463e+02
    1.1559877777e+02    1.3315701294e+02
    1.1569877625e+02    1.3320700073e+02
    1.1579878998e+02    1.3325599670e+02
    1.1589878845e+02    1.3330499268e+02
    1.1599877167e+02    1.3335299683e+02
    1.1609877014e+02    1.3340100098e+02
    1.1619879913e+02    1.3344799805e+02
    1.1629878235e+02    1.3349499512e+02
    1.1639877319e+02    1.3354100037e+02
    1.1649877167e+02    1.3358898926e+02
    1.1659879303e+02    1.3363500977e+02
    1.1669877625e+02    1.3368200684e+02
    1.1679875946e+02    1.3372799683e+02
    1.1689878082e+02    1.3377499390e+02
    1.1699875641e+02    1.3382301331e+02
    1.1709877777e+02    1.3386999512e+02
    1.1719875336e+02    1.3391699219e+02
    1.1729875946e+02    1.3396400452e+02
    1.1739877319e+02    1.3401100159e+02
    1.1749874878e+02    1.3405899048e+02
    1.1759874725e+02    1.3410700989e+02
    1.1769875336e+02    1.3415498352e+02
    1.1779875946e+02    1.3420300293e+02
    1.1789875031e+02    1.3425100708e+02
    1.1799874878e+02    1.3430000305e+02
    1.1809874725e+02    1.3434901428e+02
    1.1819875336e+02    1.3439799500e+02
    1.1829875183e+02    1.3444700623e+02
    1.1839875793e+02    1.3449798584e+02
    1.1849873352e+02    1.3454798889e+02
    1.1859874725e+02    1.3459899902e+02
    1.1869873047e+02    1.3465098572e+02
    1.1879875183e+02    1.3470300293e+02
    1.1889875031e+02    1.3475601196e+02
    1.1899873352e+02    1.3480899048e+02
    1.1909873199e+02    1.3486399841e+02
    1.1919873810e+02    1.3491798401e+02
    1.1929872894e+02    1.3497398376e+02
    1.1939874268e+02    1.3502999878e+02
    1.1949874115e+02    1.3508599854e+02
    1.1959871674e+02    1.3514398193e+02
    1.1969872284e+02    1.3520201111e+02
    1.1979872894e+02    1.3526101685e+02
    1.1989871216e+02    1.3532000732e+02
    1.1999874115e+02    1.3538000488e+02
    1.2009873199e+02    1.3543998718e+02
    1.2019870758e+02    1.3550100708e+02
    1.2029871368e+02    1.3556101990e+02
    1.2039871979e+02    1.3562199402e+02
    1.2049871826e+02    1.3568400574e+02
    1.2059870148e+02    1.3574699402e+02
    1.2069869995e+02    1.3580899048e+02
    1.2079869843e+02    1.3587200928e+02
    1.2089871979e+02    1.3593598938e+02
    1.2099871826e+02    1.3599899292e+02
    1.2109868622e+02    1.3606298828e+02
    1.2119869232e+02    1.3612699890e+02
    1.2129872131e+02    1.3619200134e+02
    1.2139869690e+02    1.3625799561e+02
    1.2149870300e+02    1.3632400513e+02
    1.2159868622e+02    1.3638999939e+02
    1.2169869995e+02    1.3645800781e+02
    1.2179869080e+02    1.3652499390e+02
    1.2189871216e+02    1.3659201050e+02
    1.2199868774e+02    1.3666000366e+02
    1.2209868622e+02    1.3672700500e+02
    1.2219869232e+02    1.3679499817e+02
    1.2229869080e+02    1.3686299133e+02
    1.2239868164e+02    1.3693200684e+02
    1.2249870300e+02    1.3700000000e+02
    1.2259867859e+02    1.3706901550e+02
    1.2269869232e+02    1.3713700867e+02
    1.2279869080e+02    1.3720700073e+02
    1.2289868164e+02    1.3727600098e+02
    1.2299867249e+02    1.3734399414e+02
    1.2309867859e+02    1.3741400146e+02
    1.2319867706e+02    1.3748200989e+02
    1.2329868317e+02    1.3755000305e+02
    1.2339865875e+02    1.3761799622e+02
    1.2349865723e+02    1.3768600464e+02
    1.2359867096e+02    1.3775199890e+02
    1.2369866180e+02    1.3781898499e+02
    1.2379866028e+02    1.3788601685e+02
    1.2389866638e+02    1.3795201111e+02
    1.2399864960e+02    1.3801701355e+02
    1.2409864807e+02    1.3808200073e+02
    1.2419864655e+02    1.3814701843e+02
    1.2429866028e+02    1.3821101379e+02
    1.2439865875e+02    1.3827401733e+02
    1.2449865723e+02    1.3833601379e+02
    1.2459864044e+02    1.3839799500e+02
    1.2469863892e+02    1.3845898438e+02
    1.2479863739e+02    1.3851998901e+02
    1.2489865875e+02    1.3858000183e+02
    1.2499865723e+02    1.3863900757e+02
    1.2509866333e+02    1.3869798279e+02
    1.2519863129e+02    1.3875701904e+02
    1.2529865265e+02    1.3881401062e+02
    1.2539865112e+02    1.3887098694e+02
    1.2549864960e+02    1.3892900085e+02
    1.2559863281e+02    1.3898600769e+02
    1.2569863892e+02    1.3904200745e+02
    1.2579863739e+02    1.3909799194e+02
    1.2589864349e+02    1.3915400696e+02
    1.2599861908e+02    1.3921000671e+02
    1.2609863281e+02    1.3926600647e+02
    1.2619863129e+02    1.3932099915e+02
    1.2629862976e+02    1.3937599182e+02
    1.2639862061e+02    1.3942999268e+02
    1.2649861145e+02    1.3948501587e+02
    1.2659863281e+02    1.3953900146e+02
    1.2669862366e+02    1.3959199524e+02
    1.2679862213e+02    1.3964601135e+02
    1.2689859772e+02    1.3969900513e+02
    1.2699862671e+02    1.3975099182e+02
    1.2709861755e+02    1.3980300903e+02
    1.2719862366e+02    1.3985400391e+02
    1.2729862213e+02    1.3990499878e+02
    1.2739859772e+02    1.3995500183e+02
    1.2749861908e+02    1.4000498962e+02
    1.2759858704e+02    1.4005400085e+02
    1.2769860840e+02    1.4010400391e+02
    1.2779859161e+02    1.4015200806e+02
    1.2789859009e+02    1.4019898987e+02
    1.2799859619e+02    1.4024700928e+02
    1.2809858704e+02    1.4029402161e+02
    1.2819859314e+02    1.4034098816e+02
    1.2829859924e+02    1.4038798523e+02
    1.2839860535e+02    1.4043301392e+02
    1.2849861145e+02    1.4047999573e+02
    1.2859861755e+02    1.4052500916e+02
    1.2869862366e+02    1.4056999207e+02
    1.2879864502e+02    1.4061500549e+02
    1.2889866638e+02    1.4065901184e+02
    1.2899865723e+02    1.4070401001e+02
    1.2909864807e+02    1.4074700928e+02
    1.2919866943e+02    1.4079101562e+02
    1.2929864502e+02    1.4083399963e+02
    1.2939868164e+02    1.4087599182e+02
    1.2949867249e+02    1.4091900635e+02
    1.2959869385e+02    1.4096101379e+02
    1.2969868469e+02    1.4100300598e+02
    1.2979869080e+02    1.4104400635e+02
    1.2989872742e+02    1.4108499146e+02
    1.2999870300e+02    1.4112599182e+02
    1.3009872437e+02    1.4116600037e+02
    1.3019871521e+02    1.4120600891e+02
    1.3029873657e+02    1.4124600220e+02
    1.3039874268e+02    1.4128498840e+02
    1.3049873352e+02    1.4132501221e+02
    1.3059875488e+02    1.4136300659e+02
    1.3069876099e+02    1.4140199280e+02
    1.3079876709e+02    1.4144000244e+02
    1.3089874268e+02    1.4147801208e+02
    1.3099877930e+02    1.4151600647e+02
    1.3109878540e+02    1.4155198669e+02
    1.3119877625e+02    1.4158999634e+02
    1.3129879761e+02    1.4162701416e+02
    1.3139878845e+02    1.4166401672e+02
    1.3149879456e+02    1.4169998169e+02
    1.3159880066e+02    1.4173699951e+02
    1.3169880676e+02    1.4177299500e+02
    1.3179881287e+02    1.4180900574e+02
    1.3189881897e+02    1.4184500122e+02
    1.3199882507e+02    1.4188200378e+02
    1.3209884644e+02    1.4191699219e+02
    1.3219885254e+02    1.4195298767e+02
    1.3229884338e+02    1.4198799133e+02
    1.3239886475e+02    1.4202500916e+02
    1.3249885559e+02    1.4205999756e+02
    1.3259887695e+02    1.4209501648e+02
    1.3269888306e+02    1.4213499451e+02
    1.3279888916e+02    1.4223800659e+02
    1.3289888000e+02    1.4240802002e+02
    1.3299888611e+02    1.4258599854e+02
    1.3309890747e+02    1.4276098633e+02
    1.3319889832e+02    1.4293597412e+02
    1.3329890442e+02    1.4311001587e+02
    1.3339892578e+02    1.4328298950e+02
    1.3349893188e+02    1.4345599365e+02
    1.3359893799e+02    1.4362701416e+02
    1.3369892883e+02    1.4379797363e+02
    1.3379893494e+02    1.4396697998e+02
    1.3389895630e+02    1.4413702393e+02
    1.3399894714e+02    1.4430499268e+02
    1.3409895325e+02    1.4447100830e+02
    1.3419897461e+02    1.4463800049e+02
    1.3429899597e+02    1.4480398560e+02
    1.3439898682e+02    1.4496801758e+02
    1.3449896240e+02    1.4513302612e+02
    1.3459898376e+02    1.4529501343e+02
    1.3469900513e+02    1.4545700073e+02
    1.3479901123e+02    1.4561901855e+02
    1.3489900208e+02    1.4577899170e+02
    1.3499899292e+02    1.4593801880e+02
    1.3509904480e+02    1.4609600830e+02
    1.3519903564e+02    1.4625302124e+02
    1.3529904175e+02    1.4640899658e+02
    1.3539904785e+02    1.4656500244e+02
    1.3549903870e+02    1.4671899414e+02
    1.3559904480e+02    1.4687200928e+02
    1.3569906616e+02    1.4702401733e+02
    1.3579905701e+02    1.4717498779e+02
    1.3589906311e+02    1.4732501221e+02
    1.3599905396e+02    1.4747299194e+02
    1.3609907532e+02    1.4761898804e+02
    1.3619908142e+02    1.4776400757e+02
    1.3629908752e+02    1.4790701294e+02
    1.3639909363e+02    1.4804898071e+02
    1.3649911499e+02    1.4818701172e+02
    1.3659910583e+02    1.4832598877e+02
    1.3669912720e+02    1.4846099854e+02
    1.3679911804e+02    1.4859399414e+02
    1.3689912415e+02    1.4872497559e+02
    1.3699914551e+02    1.4885501099e+02
    1.3709915161e+02    1.4898199463e+02
    1.3719914246e+02    1.4910702515e+02
    1.3729916382e+02    1.4923098755e+02
    1.3739918518e+02    1.4935299683e+02
    1.3749917603e+02    1.4947201538e+02
    1.3759916687e+02    1.4959100342e+02
    1.3769917297e+02    1.4970700073e+02
    1.3779917908e+02    1.4982101440e+02
    1.3789918518e+02    1.4993298340e+02
    1.3799920654e+02    1.5004299927e+02
    1.3809919739e+02    1.5015100098e+02
    1.3819923401e+02    1.5025799561e+02
    1.3829922485e+02    1.5036099243e+02
    1.3839924622e+02    1.5046200562e+02
    1.3849923706e+02    1.5056301880e+02
    1.3859924316e+02    1.5066101074e+02
    1.3869924927e+02    1.5075598145e+02
    1.3879924011e+02    1.5085000610e+02
    1.3889924622e+02    1.5094000244e+02
    1.3899926758e+02    1.5102999878e+02
    1.3909925842e+02    1.5111700439e+02
    1.3919926453e+02    1.5120098877e+02
    1.3929927063e+02    1.5128298950e+02
    1.3939927673e+02    1.5136199951e+02
    1.3949928284e+02    1.5143801880e+02
    1.3959927368e+02    1.5151300049e+02
    1.3969929504e+02    1.5158502197e+02
    1.3979931641e+02    1.5165298462e+02
    1.3989930725e+02    1.5172000122e+02
    1.3999931335e+02    1.5178298950e+02
    1.4009933472e+02    1.5184399414e+02
    1.4019934082e+02    1.5190298462e+02
    1.4029933167e+02    1.5195800781e+02
    1.4039935303e+02    1.5201098633e+02
    1.4049935913e+02    1.5206100464e+02
    1.4059936523e+02    1.5210897827e+02
    1.4069938660e+02    1.5215499878e+02
    1.4079937744e+02    1.5219702148e+02
    1.4089936829e+02    1.5223800659e+02
    1.4099937439e+02    1.5227700806e+02
    1.4109939575e+02    1.5231301880e+02
    1.4119940186e+02    1.5234600830e+02
    1.4129939270e+02    1.5237799072e+02
    1.4139939880e+02    1.5240701294e+02
    1.4149940491e+02    1.5243301392e+02
    1.4159942627e+02    1.5245800781e+02
    1.4169941711e+02    1.5248098755e+02
    1.4179943848e+02    1.5250000000e+02
    1.4189941406e+02    1.5251800537e+02
    1.4199945068e+02    1.5253402710e+02
    1.4209945679e+02    1.5254800415e+02
    1.4219943237e+02    1.5256100464e+02
    1.4229945374e+02    1.5257000732e+02
    1.4239947510e+02    1.5257800293e+02
    1.4249949646e+02    1.5258297729e+02
    1.4259948730e+02    1.5258700562e+02
    1.4269949341e+02    1.5258798218e+02
    1.4279949951e+02    1.5258700562e+02
    1.4289950562e+02    1.5258300781e+02
    1.4299952698e+02    1.5257800293e+02
    1.4309950256e+02    1.5257000732e+02
    1.4319950867e+02    1.5256097412e+02
    1.4329951477e+02    1.5254901123e+02
    1.4339952087e+02    1.5253500366e+02
    1.4349954224e+02    1.5251901245e+02
    1.4359956360e+02    1.5250097656e+02
    1.4369953918e+02    1.5248004150e+02
    1.4379956055e+02    1.5245800781e+02
    1.4389956665e+02    1.5243298340e+02
    1.4399957275e+02    1.5241198730e+02
    1.4409956360e+02    1.5241598511e+02
    1.4419956970e+02    1.5244900513e+02
    1.4429957581e+02    1.5248303223e+02
    1.4439959717e+02    1.5251498413e+02
    1.4449960327e+02    1.5254400635e+02
    1.4459960938e+02    1.5257202148e+02
    1.4469961548e+02    1.5259698486e+02
    1.4479960632e+02    1.5262097168e+02
    1.4489961243e+02    1.5264303589e+02
    1.4499961853e+02    1.5266299438e+02
    1.4509965515e+02    1.5268203735e+02
    1.4519963074e+02    1.5269699097e+02
    1.4529963684e+02    1.5271197510e+02
    1.4539964294e+02    1.5272500610e+02
    1.4549964905e+02    1.5273599243e+02
    1.4559965515e+02    1.5274499512e+02
    1.4569966125e+02    1.5275302124e+02
    1.4579968262e+02    1.5275897217e+02
    1.4589967346e+02    1.5276098633e+02
    1.4599966431e+02    1.5276300049e+02
    1.4609970093e+02    1.5276202393e+02
    1.4619970703e+02    1.5275997925e+02
    1.4629968262e+02    1.5275500488e+02
    1.4639971924e+02    1.5274700928e+02
    1.4649971008e+02    1.5273699951e+02
    1.4659971619e+02    1.5272598267e+02
    1.4669973755e+02    1.5271301270e+02
    1.4679971313e+02    1.5269699097e+02
    1.4689973450e+02    1.5267898560e+02
    1.4699974060e+02    1.5265899658e+02
    1.4709974670e+02    1.5263897705e+02
    1.4719976807e+02    1.5261502075e+02
    1.4729975891e+02    1.5259100342e+02
    1.4739976501e+02    1.5256402588e+02
    1.4749977112e+02    1.5253598022e+02
    1.4759977722e+02    1.5250601196e+02
    1.4769978333e+02    1.5247399902e+02
    1.4779978943e+02    1.5244003296e+02
    1.4789981079e+02    1.5240496826e+02
    1.4799981689e+02    1.5236801147e+02
    1.4809980774e+02    1.5232803345e+02
    1.4819981384e+02    1.5228598022e+02
    1.4829981995e+02    1.5224203491e+02
    1.4839982605e+02    1.5219702148e+02
    1.4849984741e+02    1.5214901733e+02
    1.4859985352e+02    1.5209899902e+02
    1.4869985962e+02    1.5204702759e+02
    1.4879986572e+02    1.5199301147e+02
    1.4889985657e+02    1.5193698120e+02
    1.4899986267e+02    1.5187902832e+02
    1.4909985352e+02    1.5181900024e+02
    1.4919987488e+02    1.5175799561e+02
    1.4929988098e+02    1.5169601440e+02
    1.4939990234e+02    1.5163000488e+02
    1.4949989319e+02    1.5156500244e+02
    1.4959991455e+02    1.5149600220e+02
    1.4969992065e+02    1.5142599487e+02
    1.4979992676e+02    1.5135397339e+02
    1.4989993286e+02    1.5128097534e+02
    1.4999993896e+02    1.5120599365e+02
    1.5009994507e+02    1.5113003540e+02
    1.5019995117e+02    1.5104995728e+02
    1.5029995728e+02    1.5097103882e+02
    1.5039993286e+02    1.5088800049e+02
    1.5049996948e+02    1.5080398560e+02
    1.5059997559e+02    1.5071798706e+02
    1.5069996643e+02    1.5063101196e+02
    1.5079997253e+02    1.5054296875e+02
    1.5089999390e+02    1.5045303345e+02
    1.5100000000e+02    1.5035998535e+02
    1.5110000610e+02    1.5026699829e+02
    1.5120001221e+02    1.5017199707e+02
    1.5130000305e+02    1.5007498169e+02
    1.5140002441e+02    1.4997601318e+02
    1.5150001526e+02    1.4987698364e+02
    1.5160002136e+02    1.4977502441e+02
    1.5170002747e+02    1.4967202759e+02
    1.5180004883e+02    1.4956600952e+02
    1.5190003967e+02    1.4946102905e+02
    1.5200006104e+02    1.4935202026e+02
    1.5210006714e+02    1.4924298096e+02
    1.5220007324e+02    1.4913302612e+02
    1.5230006409e+02    1.4902099609e+02
    1.5240008545e+02    1.4890899658e+02
    1.5250007629e+02    1.4879501343e+02
    1.5260009766e+02    1.4867901611e+02
    1.5270010376e+02    1.4856399536e+02
    1.5280009460e+02    1.4844601440e+02
    1.5290010071e+02    1.4832797241e+02
    1.5300012207e+02    1.4820901489e+02
    1.5310012817e+02    1.4808801270e+02
    1.5320011902e+02    1.4796697998e+02
    1.5330012512e+02    1.4784500122e+02
    1.5340014648e+02    1.4772100830e+02
    1.5350015259e+02    1.4759698486e+02
    1.5360015869e+02    1.4747103882e+02
    1.5370016479e+02    1.4734500122e+02
    1.5380017090e+02    1.4721801758e+02
    1.5390017700e+02    1.4709002686e+02
    1.5400015259e+02    1.4696200562e+02
    1.5410017395e+02    1.4683197021e+02
    1.5420019531e+02    1.4670098877e+02
    1.5430018616e+02    1.4657901001e+02
    1.5440020752e+02    1.4648300171e+02
    1.5450018311e+02    1.4639797974e+02
    1.5460023499e+02    1.4631298828e+02
    1.5470022583e+02    1.4622698975e+02
    1.5480021667e+02    1.4613903809e+02
    1.5490022278e+02    1.4605102539e+02
    1.5500024414e+02    1.4595996094e+02
    1.5510023499e+02    1.4587103271e+02
    1.5520024109e+02    1.4578002930e+02
    1.5530026245e+02    1.4568902588e+02
    1.5540026855e+02    1.4559594727e+02
    1.5550025940e+02    1.4550195312e+02
    1.5560028076e+02    1.4540795898e+02
    1.5570028687e+02    1.4531396484e+02
    1.5580027771e+02    1.4521795654e+02
    1.5590031433e+02    1.4512298584e+02
    1.5600030518e+02    1.4502600098e+02
    1.5610029602e+02    1.4492901611e+02
    1.5620031738e+02    1.4483099365e+02
    1.5630032349e+02    1.4473400879e+02
    1.5640031433e+02    1.4463397217e+02
    1.5650032043e+02    1.4453503418e+02
    1.5660034180e+02    1.4443499756e+02
    1.5670033264e+02    1.4433502197e+02
    1.5680033875e+02    1.4423297119e+02
    1.5690037537e+02    1.4413201904e+02
    1.5700035095e+02    1.4402899170e+02
    1.5710035706e+02    1.4392596436e+02
    1.5720036316e+02    1.4382202148e+02
    1.5730036926e+02    1.4371899414e+02
    1.5740039062e+02    1.4361505127e+02
    1.5750039673e+02    1.4351000977e+02
    1.5760038757e+02    1.4340496826e+02
    1.5770042419e+02    1.4329901123e+02
    1.5780039978e+02    1.4319396973e+02
    1.5790043640e+02    1.4308697510e+02
    1.5800042725e+02    1.4297900391e+02
    1.5810043335e+02    1.4287200928e+02
    1.5820042419e+02    1.4276300049e+02
    1.5830044556e+02    1.4265496826e+02
    1.5840045166e+02    1.4254595947e+02
    1.5850044250e+02    1.4243701172e+02
    1.5860046387e+02    1.4232598877e+02
    1.5870048523e+02    1.4221398926e+02
    1.5880047607e+02    1.4210302734e+02
    1.5890046692e+02    1.4199102783e+02
    1.5900047302e+02    1.4187695312e+02
    1.5910047913e+02    1.4176397705e+02
    1.5920050049e+02    1.4164996338e+02
    1.5930049133e+02    1.4153503418e+02
    1.5940051270e+02    1.4141900635e+02
    1.5950050354e+02    1.4130401611e+02
    1.5960052490e+02    1.4118798828e+02
    1.5970053101e+02    1.4107202148e+02
    1.5980053711e+02    1.4095495605e+02
    1.5990054321e+02    1.4083801270e+02
    1.6000054932e+02    1.4071997070e+02
    1.6010054016e+02    1.4060302734e+02
    1.6020054626e+02    1.4048498535e+02
    1.6030056763e+02    1.4036694336e+02
    1.6040054321e+02    1.4024798584e+02
    1.6050056458e+02    1.4013098145e+02
    1.6060058594e+02    1.4001202393e+02
    1.6070057678e+02    1.3989300537e+02
    1.6080058289e+02    1.3977398682e+02
    1.6090057373e+02    1.3965399170e+02
    1.6100061035e+02    1.3953503418e+02
    1.6110060120e+02    1.3941503906e+02
    1.6120062256e+02    1.3929504395e+02
    1.6130061340e+02    1.3917498779e+02
    1.6140063477e+02    1.3905499268e+02
    1.6150062561e+02    1.3893395996e+02
    1.6160066223e+02    1.3881402588e+02
    1.6170065308e+02    1.3869299316e+02
    1.6180065918e+02    1.3857098389e+02
    1.6190066528e+02    1.3844995117e+02
    1.6200065613e+02    1.3832897949e+02
    1.6210067749e+02    1.3820703125e+02
    1.6220068359e+02    1.3808599854e+02
    1.6230068970e+02    1.3796398926e+02
    1.6240069580e+02    1.3784100342e+02
    1.6250068665e+02    1.3771997070e+02
    1.6260069275e+02    1.3759796143e+02
    1.6270071411e+02    1.3747601318e+02
    1.6280070496e+02    1.3735302734e+02
    1.6290072632e+02    1.3723095703e+02
    1.6300073242e+02    1.3710894775e+02
    1.6310072327e+02    1.3698699951e+02
    1.6320074463e+02    1.3686499023e+02
    1.6330073547e+02    1.3674298096e+02
    1.6340075684e+02    1.3662097168e+02
    1.6350073242e+02    1.3649798584e+02
    1.6360076904e+02    1.3637597656e+02
    1.6370075989e+02    1.3625500488e+02
    1.6380076599e+02    1.3613299561e+02
    1.6390078735e+02    1.3600994873e+02
    1.6400079346e+02    1.3588800049e+02
    1.6410081482e+02    1.3576702881e+02
    1.6420080566e+02    1.3564495850e+02
    1.6430081177e+02    1.3552197266e+02
    1.6440080261e+02    1.3540100098e+02
    1.6450080872e+02    1.3527899170e+02
    1.6460081482e+02    1.3515698242e+02
    1.6470083618e+02    1.3503503418e+02
    1.6480085754e+02    1.3491302490e+02
    1.6490084839e+02    1.3479101562e+02
    1.6500083923e+02    1.3466998291e+02
    1.6510087585e+02    1.3454699707e+02
    1.6520086670e+02    1.3442602539e+02
    1.6530085754e+02    1.3430395508e+02
    1.6540086365e+02    1.3418298340e+02
    1.6550086975e+02    1.3406097412e+02
    1.6560087585e+02    1.3393896484e+02
    1.6570088196e+02    1.3381799316e+02
    1.6580090332e+02    1.3369702148e+02
    1.6590089417e+02    1.3357397461e+02
    1.6600091553e+02    1.3345404053e+02
    1.6610092163e+02    1.3333197021e+02
    1.6620092773e+02    1.3320996094e+02
    1.6630090332e+02    1.3308801270e+02
    1.6640092468e+02    1.3296600342e+02
    1.6650091553e+02    1.3284503174e+02
    1.6660096741e+02    1.3272302246e+02
    1.6670094299e+02    1.3260198975e+02
    1.6680096436e+02    1.3247900391e+02
    1.6690095520e+02    1.3235797119e+02
    1.6700096130e+02    1.3223602295e+02
    1.6710096741e+02    1.3211499023e+02
    1.6720098877e+02    1.3199401855e+02
    1.6730099487e+02    1.3187200928e+02
    1.6740098572e+02    1.3175103760e+02
    1.6750100708e+02    1.3163000488e+02
    1.6760101318e+02    1.3150897217e+02
    1.6770100403e+02    1.3138800049e+02
    1.6780102539e+02    1.3126696777e+02
    1.6790104675e+02    1.3114697266e+02
    1.6800102234e+02    1.3102703857e+02
    1.6810104370e+02    1.3090704346e+02
    1.6820103455e+02    1.3078802490e+02
    1.6830105591e+02    1.3066900635e+02
    1.6840104675e+02    1.3055096436e+02
    1.6850105286e+02    1.3043096924e+02
    1.6860104370e+02    1.3031402588e+02
    1.6870108032e+02    1.3019598389e+02
    1.6880108643e+02    1.3007800293e+02
    1.6890107727e+02    1.2996197510e+02
    1.6900108337e+02    1.2984503174e+02
    1.6910110474e+02    1.2972796631e+02
    1.6920109558e+02    1.2961199951e+02
    1.6930111694e+02    1.2949597168e+02
    1.6940112305e+02    1.2938000488e+02
    1.6950111389e+02    1.2926495361e+02
    1.6960110474e+02    1.2914898682e+02
    1.6970112610e+02    1.2903399658e+02
    1.6980114746e+02    1.2891802979e+02
    1.6990115356e+02    1.2880297852e+02
    1.7000115967e+02    1.2868695068e+02
    1.7010115051e+02    1.2857202148e+02
    1.7020117188e+02    1.2845703125e+02
    1.7030119324e+02    1.2834100342e+02
    1.7040116882e+02    1.2822595215e+02
    1.7050117493e+02    1.2811102295e+02
    1.7060119629e+02    1.2799597168e+02
    1.7070118713e+02    1.2788000488e+02
    1.7080119324e+02    1.2776501465e+02
    1.7090121460e+02    1.2765002441e+02
    1.7100123596e+02    1.2753399658e+02
    1.7110121155e+02    1.2742004395e+02
    1.7120120239e+02    1.2730499268e+02
    1.7130122375e+02    1.2718902588e+02
    1.7140124512e+02    1.2707397461e+02
    1.7150125122e+02    1.2695898438e+02
    1.7160125732e+02    1.2684399414e+02
    1.7170124817e+02    1.2672998047e+02
    1.7180128479e+02    1.2661499023e+02
    1.7190127563e+02    1.2650000000e+02
    1.7200126648e+02    1.2638500977e+02
    1.7210125732e+02    1.2627001953e+02
    1.7220129395e+02    1.2615496826e+02
    1.7230130005e+02    1.2604003906e+02
    1.7240129089e+02    1.2592504883e+02
    1.7250129700e+02    1.2581103516e+02
    1.7260131836e+02    1.2569598389e+02
    1.7270130920e+02    1.2558105469e+02
    1.7280134583e+02    1.2546704102e+02
    1.7290133667e+02    1.2535205078e+02
    1.7300134277e+02    1.2523797607e+02
    1.7310133362e+02    1.2512298584e+02
    1.7320135498e+02    1.2500897217e+02
    1.7330134583e+02    1.2489398193e+02
    1.7340135193e+02    1.2478002930e+02
    1.7350135803e+02    1.2466497803e+02
    1.7360136414e+02    1.2454998779e+02
    1.7370138550e+02    1.2443597412e+02
    1.7380137634e+02    1.2432098389e+02
    1.7390139771e+02    1.2420800781e+02
    1.7400138855e+02    1.2409301758e+02
    1.7410140991e+02    1.2397802734e+02
    1.7420140076e+02    1.2386401367e+02
    1.7430142212e+02    1.2374896240e+02
    1.7440141296e+02    1.2363500977e+02
    1.7450140381e+02    1.2352099609e+02
    1.7460142517e+02    1.2340600586e+02
    1.7470144653e+02    1.2329101562e+02
    1.7480143738e+02    1.2317700195e+02
    1.7490144348e+02    1.2306201172e+02
    1.7500146484e+02    1.2294799805e+02
    1.7510148621e+02    1.2283300781e+02
    1.7520147705e+02    1.2271801758e+02
    1.7530146790e+02    1.2260400391e+02
    1.7540147400e+02    1.2248901367e+02
    1.7550149536e+02    1.2237500000e+02
    1.7560151672e+02    1.2226104736e+02
    1.7570149231e+02    1.2214599609e+02
    1.7580149841e+02    1.2203100586e+02
    1.7590150452e+02    1.2191699219e+02
    1.7600149536e+02    1.2180200195e+02
    1.7610151672e+02    1.2168798828e+02
    1.7620153809e+02    1.2157299805e+02
    1.7630154419e+02    1.2145800781e+02
    1.7640153503e+02    1.2134295654e+02
    1.7650155640e+02    1.2122900391e+02
    1.7660154724e+02    1.2111401367e+02
    1.7670155334e+02    1.2099804688e+02
    1.7680157471e+02    1.2088696289e+02
    1.7690156555e+02    1.2076501465e+02
    1.7700157166e+02    1.2065295410e+02
    1.7710156250e+02    1.2053997803e+02
    1.7720158386e+02    1.2042602539e+02
    1.7730160522e+02    1.2031097412e+02
    1.7740159607e+02    1.2019702148e+02
    1.7750161743e+02    1.2008099365e+02
    1.7760162354e+02    1.1996496582e+02
    1.7770161438e+02    1.1984802246e+02
    1.7780163574e+02    1.1974096680e+02
    1.7790162659e+02    1.1962304688e+02
    1.7800163269e+02    1.1950396729e+02
    1.7810165405e+02    1.1939501953e+02
    1.7820167542e+02    1.1927502441e+02
    1.7830165100e+02    1.1916497803e+02
    1.7840165710e+02    1.1904394531e+02
    1.7850166321e+02    1.1893200684e+02
    1.7860166931e+02    1.1882006836e+02
    1.7870167542e+02    1.1870697021e+02
    1.7880169678e+02    1.1859301758e+02
    1.7890168762e+02    1.1847900391e+02
    1.7900170898e+02    1.1836407471e+02
    1.7910171509e+02    1.1824896240e+02
    1.7920170593e+02    1.1813299561e+02
    1.7930171204e+02    1.1801605225e+02
    1.7940173340e+02    1.1789892578e+02
    1.7950173950e+02    1.1778100586e+02
    1.7960173035e+02    1.1767303467e+02
    1.7970173645e+02    1.1755395508e+02
    1.7980174255e+02    1.1744396973e+02
    1.7990174866e+02    1.1732403564e+02
    1.8000175476e+02    1.1721295166e+02
    1.8010176086e+02    1.1709100342e+02
    1.8020176697e+02    1.1697900391e+02
    1.8030177307e+02    1.1686596680e+02
    1.8040179443e+02    1.1675299072e+02
    1.8050180054e+02    1.1663903809e+02
    1.8060180664e+02    1.1652392578e+02
    1.8070179749e+02    1.1640899658e+02
    1.8080180359e+02    1.1629302979e+02
    1.8090182495e+02    1.1617596436e+02
    1.8100184631e+02    1.1605902100e+02
    1.8110183716e+02    1.1594207764e+02
    1.8120182800e+02    1.1583300781e+02
    1.8130183411e+02    1.1571502686e+02
    1.8140185547e+02    1.1559497070e+02
    1.8150184631e+02    1.1548498535e+02
    1.8160185242e+02    1.1536401367e+02
    1.8170187378e+02    1.1525195312e+02
    1.8180187988e+02    1.1514001465e+02
    1.8190188599e+02    1.1502795410e+02
    1.8200187683e+02    1.1490502930e+02
    1.8210188293e+02    1.1479107666e+02
    1.8220187378e+02    1.1467700195e+02
    1.8230191040e+02    1.1456103516e+02
    1.8240191650e+02    1.1444598389e+02
    1.8250190735e+02    1.1432904053e+02
    1.8260191345e+02    1.1421197510e+02
    1.8270191956e+02    1.1410504150e+02
    1.8280192566e+02    1.1398693848e+02
    1.8290194702e+02    1.1386798096e+02
    1.8300195312e+02    1.1375793457e+02
    1.8310194397e+02    1.1363897705e+02
    1.8320196533e+02    1.1352691650e+02
    1.8330197144e+02    1.1340600586e+02
    1.8340196228e+02    1.1329492188e+02
    1.8350198364e+02    1.1317999268e+02
    1.8360197449e+02    1.1306994629e+02
    1.8370199585e+02    1.1294000244e+02
    1.8380200195e+02    1.1282995605e+02
    1.8390200806e+02    1.1272003174e+02
    1.8400199890e+02    1.1259997559e+02
    1.8410203552e+02    1.1247998047e+02
    1.8420202637e+02    1.1236993408e+02
    1.8430201721e+02    1.1226000977e+02
    1.8440202332e+02    1.1213995361e+02
    1.8450201416e+02    1.1202001953e+02
    1.8460203552e+02    1.1190997314e+02
    1.8470204163e+02    1.1179003906e+02
    1.8480203247e+02    1.1168005371e+02
    1.8490205383e+02    1.1156005859e+02
    1.8500207520e+02    1.1144995117e+02
    1.8510208130e+02    1.1133996582e+02
    1.8520207214e+02    1.1121997070e+02
    1.8530209351e+02    1.1109997559e+02
    1.8540208435e+02    1.1098999023e+02
    1.8550210571e+02    1.1086999512e+02
    1.8560209656e+02    1.1076000977e+02
    1.8570210266e+02    1.1064001465e+02
    1.8580212402e+02    1.1052001953e+02
    1.8590211487e+02    1.1040002441e+02
    1.8600213623e+02    1.1029003906e+02
    1.8610212708e+02    1.1017993164e+02
    1.8620213318e+02    1.1006005859e+02
    1.8630215454e+02    1.0993994141e+02
    1.8640214539e+02    1.0981994629e+02
    1.8650216675e+02    1.0971008301e+02
    1.8660217285e+02    1.0958996582e+02
    1.8670216370e+02    1.0946997070e+02
    1.8680216980e+02    1.0934997559e+02
    1.8690217590e+02    1.0922998047e+02
    1.8700219727e+02    1.0911010742e+02
    1.8710217285e+02    1.0898999023e+02
    1.8720219421e+02    1.0886999512e+02
    1.8730221558e+02    1.0875000000e+02
    1.8740220642e+02    1.0863000488e+02
    1.8750221252e+02    1.0850000000e+02
    1.8760223389e+02    1.0839001465e+02
    1.8770223999e+02    1.0826000977e+02
    1.8780224609e+02    1.0813000488e+02
    1.8790223694e+02    1.0800000000e+02
    1.8800225830e+02    1.0788000488e+02
    1.8810224915e+02    1.0775000000e+02
    1.8820225525e+02    1.0763000488e+02
    1.8830227661e+02    1.0751000977e+02
    1.8840228271e+02    1.0736999512e+02
    1.8850228882e+02    1.0723999023e+02
    1.8860229492e+02    1.0711999512e+02
    1.8870228577e+02    1.0698999023e+02
    1.8880229187e+02    1.0685998535e+02
    1.8890231323e+02    1.0672998047e+02
    1.8900230408e+02    1.0658996582e+02
    1.8910232544e+02    1.0645996094e+02
    1.8920231628e+02    1.0633007812e+02
    1.8930232239e+02    1.0619006348e+02
    1.8940234375e+02    1.0606005859e+02
    1.8950234985e+02    1.0591992188e+02
    1.8960235596e+02    1.0577990723e+02
    1.8970234680e+02    1.0565002441e+02
    1.8980236816e+02    1.0551000977e+02
    1.8990235901e+02    1.0538000488e+02
    1.9000238037e+02    1.0523999023e+02
    1.9010238647e+02    1.0509997559e+02
    1.9020237732e+02    1.0496008301e+02
    1.9030238342e+02    1.0482006836e+02
    1.9040240479e+02    1.0468005371e+02
    1.9050239563e+02    1.0454003906e+02
    1.9060243225e+02    1.0440002441e+02
    1.9070239258e+02    1.0425000000e+02
    1.9080241394e+02    1.0411010742e+02
    1.9090243530e+02    1.0396008301e+02
    1.9100242615e+02    1.0383007812e+02
    1.9110244751e+02    1.0368005371e+02
    1.9120245361e+02    1.0353002930e+02
    1.9130245972e+02    1.0339001465e+02
    1.9140245056e+02    1.0323999023e+02
    1.9150247192e+02    1.0308996582e+02
    1.9160247803e+02    1.0295007324e+02
    1.9170248413e+02    1.0279003906e+02
    1.9180247498e+02    1.0264001465e+02
    1.9190246582e+02    1.0250000000e+02
    1.9200250244e+02    1.0234997559e+02
    1.9210249329e+02    1.0219995117e+02
    1.9220251465e+02    1.0204003906e+02
    1.9230250549e+02    1.0189001465e+02
    1.9240252686e+02    1.0173999023e+02
    1.9250250244e+02    1.0157995605e+02
    1.9260252380e+02    1.0141992188e+02
    1.9270254517e+02    1.0126989746e+02
    1.9280255127e+02    1.0111999512e+02
    1.9290255737e+02    1.0096008301e+02
    1.9300256348e+02    1.0080004883e+02
    1.9310256958e+02    1.0064001465e+02
    1.9320257568e+02    1.0048999023e+02
    1.9330259705e+02    1.0033007812e+02
    1.9340257263e+02    1.0016003418e+02
    1.9350259399e+02    1.0001000977e+02
    1.9360261536e+02    9.9849975586e+01
    1.9370260620e+02    9.9690063477e+01
    1.9380259705e+02    9.9520019531e+01
    1.9390261841e+02    9.9359985352e+01
    1.9400262451e+02    9.9200073242e+01
    1.9410264587e+02    9.9030029297e+01
    1.9420263672e+02    9.8869995117e+01
    1.9430264282e+02    9.8710083008e+01
    1.9440263367e+02    9.8540039062e+01
    1.9450263977e+02    9.8369995117e+01
    1.9460264587e+02    9.8210083008e+01
    1.9470265198e+02    9.8030029297e+01
    1.9480264282e+02    9.7869995117e+01
    1.9490266418e+02    9.7689941406e+01
    1.9500267029e+02    9.7529907227e+01
    1.9510270691e+02    9.7359985352e+01
    1.9520269775e+02    9.7189941406e+01
    1.9530268860e+02    9.7020019531e+01
    1.9540270996e+02    9.6849975586e+01
    1.9550270081e+02    9.6680053711e+01
    1.9560270691e+02    9.6500000000e+01
    1.9570271301e+02    9.6330078125e+01
    1.9580271912e+02    9.6150024414e+01
    1.9590272522e+02    9.5970092773e+01
    1.9600274658e+02    9.5790039062e+01
    1.9610273743e+02    9.5619995117e+01
    1.9620275879e+02    9.5439941406e+01
    1.9630276489e+02    9.5270019531e+01
    1.9640278625e+02    9.5089965820e+01
    1.9650277710e+02    9.4910034180e+01
    1.9660276794e+02    9.4719970703e+01
    1.9670278931e+02    9.4550048828e+01
    1.9680276489e+02    9.4369995117e+01
    1.9690281677e+02    9.4189941406e+01
    1.9700280762e+02    9.4010009766e+01
    1.9710278320e+02    9.3819946289e+01
    1.9720280457e+02    9.3640014648e+01
    1.9730282593e+02    9.3460083008e+01
    1.9740281677e+02    9.3270019531e+01
    1.9750282288e+02    9.3079956055e+01
    1.9760284424e+02    9.2890014648e+01
    1.9770283508e+02    9.2709960938e+01
    1.9780284119e+02    9.2520019531e+01
    1.9790286255e+02    9.2340087891e+01
    1.9800286865e+02    9.2149902344e+01
    1.9810285950e+02    9.1959960938e+01
    1.9820286560e+02    9.1770019531e+01
    1.9830287170e+02    9.1580078125e+01
    1.9840289307e+02    9.1390014648e+01
    1.9850288391e+02    9.1199951172e+01
    1.9860289001e+02    9.1010009766e+01
    1.9870289612e+02    9.0810058594e+01
    1.9880290222e+02    9.0609985352e+01
    1.9890292358e+02    9.0429931641e+01
    1.9900291443e+02    9.0229980469e+01
    1.9910293579e+02    9.0040039062e+01
    1.9920294189e+02    8.9840087891e+01
    1.9930293274e+02    8.9639892578e+01
    1.9940293884e+02    8.9449951172e+01
    1.9950297546e+02    8.9239990234e+01
    1.9960296631e+02    8.9050048828e+01
    1.9970297241e+02    8.8849975586e+01
    1.9980296326e+02    8.8650024414e+01
    1.9990298462e+02    8.8450073242e+01
endcurve
