Curveplot
LS-DYNA keyword deck by LS-PrePost
Z-displ
Resultant Force
Mat/Node Ids
1 #pts=1000
* Minval=    -6.0540337116e-02 at time=        -0.0000398887
* Maxval=     1.5307902832e+03 at time=        19.9730052948
   -3.9888669562e-05   -6.0540337116e-02
   -5.0264661695e-05   -4.1129115969e-02
   -6.1136583099e-05   -1.3690423220e-02
   -7.2090202593e-05    2.2874129936e-02
   -8.2568061771e-05    6.9588825107e-02
   -9.1873887868e-05    1.2744189799e-01
   -9.9148659501e-05    1.9730906188e-01
   -1.0336120613e-04    2.7995955944e-01
   -1.0329730139e-04    3.7597164512e-01
   -9.7555450338e-05    4.8588320613e-01
   -8.4532119217e-05    6.1014181376e-01
   -6.2436112785e-05    7.4898064137e-01
   -2.9260474548e-05    9.0262842178e-01
    1.7203972675e-05    1.0711315870e+00
    7.9389566963e-05    1.2545651197e+00
    1.5988315863e-04    1.4527521133e+00
    2.6152411010e-04    1.6656043530e+00
    3.8734127884e-04    1.8929191828e+00
    5.4060807452e-04    2.1344263554e+00
    7.2462088428e-04    2.3896343708e+00
    9.4312994042e-04    2.6583054066e+00
    1.1998930713e-03    2.9399724007e+00
    1.4988953480e-03    3.2340695858e+00
    1.8442329019e-03    3.5400500298e+00
    2.2403900512e-03    3.8574149609e+00
    2.6918393560e-03    4.1855697632e+00
    3.2033331227e-03    4.5239644051e+00
    3.7795018870e-03    4.8718924522e+00
    4.4256593101e-03    5.2288441658e+00
    5.1468750462e-03    5.5942268372e+00
    5.9484387748e-03    5.9674372673e+00
    6.8359845318e-03    6.3480997086e+00
    7.8149046749e-03    6.7358202934e+00
    8.8910646737e-03    7.1304411888e+00
    1.0070447810e-02    7.5320744514e+00
    1.1359083466e-02    7.9409403801e+00
    1.2763518840e-02    8.3577966690e+00
    1.4289367013e-02    8.7833614349e+00
    1.5943447128e-02    9.2191324234e+00
    1.7732305452e-02    9.6667747498e+00
    1.9663091749e-02    1.0128630638e+01
    2.1741690114e-02    1.0607087135e+01
    2.3975480348e-02    1.1105179787e+01
    2.6371471584e-02    1.1626305580e+01
    2.8936652467e-02    1.2173969269e+01
    3.1678259373e-02    1.2751861572e+01
    3.4604419023e-02    1.3364027977e+01
    3.7720941007e-02    1.4013766289e+01
    4.1036192328e-02    1.4704450607e+01
    4.4558193535e-02    1.5438367844e+01
    4.8292983323e-02    1.6216339111e+01
    5.2249763161e-02    1.7038293839e+01
    5.6436710060e-02    1.7902120590e+01
    6.0859035701e-02    1.8804359436e+01
    6.5527640283e-02    1.9742166519e+01
    7.0448212326e-02    2.0711297989e+01
    7.5629562140e-02    2.1707025528e+01
    8.1079393625e-02    2.2725576401e+01
    8.6805745959e-02    2.3766174316e+01
    9.2817783356e-02    2.4831802368e+01
    9.9120810628e-02    2.5927240372e+01
    1.0572539270e-01    2.7059942245e+01
    1.1263984442e-01    2.8237636566e+01
    1.1987145245e-01    2.9467952728e+01
    1.2742727995e-01    3.0756965637e+01
    1.3531620800e-01    3.2107856750e+01
    1.4354595542e-01    3.3521022797e+01
    1.5212753415e-01    3.4995109558e+01
    1.6106526554e-01    3.6525608063e+01
    1.7036814988e-01    3.8106311798e+01
    1.8004459143e-01    3.9728614807e+01
    1.9010388851e-01    4.1383842468e+01
    2.0055098832e-01    4.3063102722e+01
    2.1139705181e-01    4.4759933472e+01
    2.2264754772e-01    4.6468730927e+01
    2.3431228101e-01    4.8186214447e+01
    2.4639536440e-01    4.9911411285e+01
    2.5891074538e-01    5.1647750854e+01
    2.7185910940e-01    5.3398502350e+01
    2.8525397182e-01    5.5169513702e+01
    2.9909771681e-01    5.6964698792e+01
    3.1339886785e-01    5.8787792206e+01
    3.2816776633e-01    6.0643516541e+01
    3.4340682626e-01    6.2536743164e+01
    3.5913020372e-01    6.4476119995e+01
    3.7533724308e-01    6.6469932556e+01
    3.9203685522e-01    6.8527610779e+01
    4.0924173594e-01    7.0657135010e+01
    4.2694854736e-01    7.2861045837e+01
    4.4517078996e-01    7.5140335083e+01
    4.6391487122e-01    7.7490699768e+01
    4.8318323493e-01    7.9904525757e+01
    5.0298571587e-01    8.2372764587e+01
    5.2332490683e-01    8.4885772705e+01
    5.4420959949e-01    8.7434638977e+01
    5.6564855576e-01    9.0011589050e+01
    5.8763563633e-01    9.2611541748e+01
    6.1018937826e-01    9.5237426758e+01
    6.3331305981e-01    9.7895004272e+01
    6.5700459480e-01    1.0059148407e+02
    6.8127441406e-01    1.0333612823e+02
    7.0612609386e-01    1.0613407898e+02
    7.3156446218e-01    1.0898774719e+02
    7.5759172440e-01    1.1189626312e+02
    7.8421545029e-01    1.1485850525e+02
    8.1144571304e-01    1.1787364960e+02
    8.3927333355e-01    1.2093947601e+02
    8.6771333218e-01    1.2405147552e+02
    8.9675962925e-01    1.2720333862e+02
    9.2642176151e-01    1.3038769531e+02
    9.5670914650e-01    1.3359689331e+02
    9.8761034012e-01    1.3682501221e+02
    1.0191400051e+00    1.4006880188e+02
    1.0512886047e+00    1.4332734680e+02
    1.0840742588e+00    1.4660179138e+02
    1.1174851656e+00    1.4989505005e+02
    1.1515316963e+00    1.5321116638e+02
    1.1862137318e+00    1.5655467224e+02
    1.2215365171e+00    1.5993052673e+02
    1.2574882507e+00    1.6334342957e+02
    1.2940837145e+00    1.6679624939e+02
    1.3313114643e+00    1.7029057312e+02
    1.3691773415e+00    1.7382858276e+02
    1.4076962471e+00    1.7741444397e+02
    1.4468460083e+00    1.8105419922e+02
    1.4866408110e+00    1.8475286865e+02
    1.5270802975e+00    1.8851208496e+02
    1.5681566000e+00    1.9233030701e+02
    1.6098692417e+00    1.9620469666e+02
    1.6522359848e+00    2.0013328552e+02
    1.6952327490e+00    2.0411553955e+02
    1.7388724089e+00    2.0815133667e+02
    1.7831478119e+00    2.1223881531e+02
    1.8280653954e+00    2.1637452698e+02
    1.8736221790e+00    2.2055557251e+02
    1.9198088646e+00    2.2478138733e+02
    1.9666278362e+00    2.2905477905e+02
    2.0140759945e+00    2.3338026428e+02
    2.0621490479e+00    2.3776043701e+02
    2.1108567715e+00    2.4219415283e+02
    2.1601727009e+00    2.4667695618e+02
    2.2101042271e+00    2.5120281982e+02
    2.2606644630e+00    2.5576562500e+02
    2.3118350506e+00    2.6036080933e+02
    2.3636064529e+00    2.6498580933e+02
    2.4159884453e+00    2.6963909912e+02
    2.4689736366e+00    2.7432015991e+02
    2.5225458145e+00    2.7902960205e+02
    2.5767247677e+00    2.8376712036e+02
    2.6314890385e+00    2.8852899170e+02
    2.6868391037e+00    2.9330758667e+02
    2.7427687645e+00    2.9809533691e+02
    2.7992720604e+00    3.0288836670e+02
    2.8563561440e+00    3.0768710327e+02
    2.9140038490e+00    3.1249505615e+02
    2.9722003937e+00    3.1731689453e+02
    3.0309681892e+00    3.2215762329e+02
    3.0902676582e+00    3.2702270508e+02
    3.1501240730e+00    3.3191699219e+02
    3.2105126381e+00    3.3684301758e+02
    3.2714331150e+00    3.4180023193e+02
    3.3328642845e+00    3.4678674316e+02
    3.3948233128e+00    3.5179965210e+02
    3.4572958946e+00    3.5683557129e+02
    3.5202641487e+00    3.6189141846e+02
    3.5837383270e+00    3.6696643066e+02
    3.6476938725e+00    3.7206289673e+02
    3.7121446133e+00    3.7718499756e+02
    3.7770571709e+00    3.8233547974e+02
    3.8424434662e+00    3.8751232910e+02
    3.9082872868e+00    3.9270953369e+02
    3.9745943546e+00    3.9792034912e+02
    4.0413408279e+00    4.0314093018e+02
    4.1085371971e+00    4.0837109375e+02
    4.1761589050e+00    4.1361203003e+02
    4.2442164421e+00    4.1886523438e+02
    4.3127007484e+00    4.2413177490e+02
    4.3815822601e+00    4.2941308594e+02
    4.4508728981e+00    4.3471124268e+02
    4.5205574036e+00    4.4002822876e+02
    4.5906410217e+00    4.4536596680e+02
    4.6610951424e+00    4.5072567749e+02
    4.7319273949e+00    4.5610809326e+02
    4.8031244278e+00    4.6151300049e+02
    4.8746757507e+00    4.6694128418e+02
    4.9465856552e+00    4.7240701294e+02
    5.0188245773e+00    4.7789959717e+02
    5.0914039612e+00    4.8343362427e+02
    5.1643061638e+00    4.8900573730e+02
    5.2375264168e+00    4.9461883545e+02
    5.3110599518e+00    5.0027899170e+02
    5.3848857880e+00    5.0598147583e+02
    5.4589986801e+00    5.1173318481e+02
    5.5334010124e+00    5.1754608154e+02
    5.6080780029e+00    5.2341827393e+02
    5.6830220222e+00    5.2935156250e+02
    5.7582259178e+00    5.3534729004e+02
    5.8336811066e+00    5.4140600586e+02
    5.9093751907e+00    5.4752447510e+02
    5.9853167534e+00    5.5369238281e+02
    6.0614833832e+00    5.5989068604e+02
    6.1378574371e+00    5.6609332275e+02
    6.2144494057e+00    5.7227227783e+02
    6.2912425995e+00    5.7840130615e+02
    6.3682441711e+00    5.8446197510e+02
    6.4454336166e+00    5.9044586182e+02
    6.5227932930e+00    5.9634271240e+02
    6.6003365517e+00    6.0217315674e+02
    6.6780447960e+00    6.0794580078e+02
    6.7559084892e+00    6.1367773438e+02
    6.8339328766e+00    6.1938720703e+02
    6.9121079445e+00    6.2508905029e+02
    6.9903969765e+00    6.3078454590e+02
    7.0688285828e+00    6.3649700928e+02
    7.1473803520e+00    6.4223443604e+02
    7.2260470390e+00    6.4800994873e+02
    7.3048214912e+00    6.5383489990e+02
    7.3836960793e+00    6.5971984863e+02
    7.4626665115e+00    6.6567578125e+02
    7.5417256355e+00    6.7171179199e+02
    7.6208715439e+00    6.7782989502e+02
    7.7001023293e+00    6.8402258301e+02
    7.7794170380e+00    6.9027331543e+02
    7.8588161469e+00    6.9655853271e+02
    7.9383001328e+00    7.0285223389e+02
    8.0178546906e+00    7.0913055420e+02
    8.0974817276e+00    7.1537377930e+02
    8.1771850586e+00    7.2156585693e+02
    8.2569360733e+00    7.2769317627e+02
    8.3367576599e+00    7.3374652100e+02
    8.4166164398e+00    7.3972412109e+02
    8.4965105057e+00    7.4563250732e+02
    8.5764484406e+00    7.5148547363e+02
    8.6563959122e+00    7.5730084229e+02
    8.7363576889e+00    7.6309582520e+02
    8.8163242340e+00    7.6888421631e+02
    8.8963003159e+00    7.7467639160e+02
    8.9762878418e+00    7.8048052979e+02
    9.0562696457e+00    7.8630407715e+02
    9.1362466812e+00    7.9215600586e+02
    9.2162160873e+00    7.9804681396e+02
    9.2961769104e+00    8.0398638916e+02
    9.3761396408e+00    8.0998083496e+02
    9.4561004639e+00    8.1603125000e+02
    9.5360364914e+00    8.2213513184e+02
    9.6159801483e+00    8.2828753662e+02
    9.6958980560e+00    8.3448071289e+02
    9.7758216858e+00    8.4070379639e+02
    9.8557395935e+00    8.4694152832e+02
    9.9356546402e+00    8.5317523193e+02
    1.0015567780e+01    8.5938537598e+02
    1.0095467567e+01    8.6555487061e+02
    1.0175357819e+01    8.7167163086e+02
    1.0255262375e+01    8.7773004150e+02
    1.0335158348e+01    8.8373175049e+02
    1.0415048599e+01    8.8968597412e+02
    1.0494947433e+01    8.9560595703e+02
    1.0574854851e+01    9.0150323486e+02
    1.0654750824e+01    9.0738293457e+02
    1.0734646797e+01    9.1324475098e+02
    1.0814558029e+01    9.1908685303e+02
    1.0894465446e+01    9.2490777588e+02
    1.0974372864e+01    9.3070666504e+02
    1.1054301262e+01    9.3648388672e+02
    1.1134242058e+01    9.4224218750e+02
    1.1214198112e+01    9.4798681641e+02
    1.1294170380e+01    9.5372363281e+02
    1.1374161720e+01    9.5945745850e+02
    1.1454161644e+01    9.6519055176e+02
    1.1534188271e+01    9.7092156982e+02
    1.1614238739e+01    9.7664538574e+02
    1.1694302559e+01    9.8235400391e+02
    1.1774371147e+01    9.8803930664e+02
    1.1854459763e+01    9.9369305420e+02
    1.1934551239e+01    9.9930633545e+02
    1.2014627457e+01    1.0048681641e+03
    1.2094704628e+01    1.0103659058e+03
    1.2174745560e+01    1.0157903442e+03
    1.2254741669e+01    1.0211406860e+03
    1.2334693909e+01    1.0264261475e+03
    1.2414564133e+01    1.0316613770e+03
    1.2494335175e+01    1.0368602295e+03
    1.2573984146e+01    1.0420310059e+03
    1.2653492928e+01    1.0471756592e+03
    1.2732834816e+01    1.0522927246e+03
    1.2811980247e+01    1.0573817139e+03
    1.2890937805e+01    1.0624445801e+03
    1.2969674110e+01    1.0674840088e+03
    1.3048190117e+01    1.0725006104e+03
    1.3126477242e+01    1.0774936523e+03
    1.3204525948e+01    1.0824644775e+03
    1.3282364845e+01    1.0874161377e+03
    1.3359977722e+01    1.0923524170e+03
    1.3437376976e+01    1.0972758789e+03
    1.3514561653e+01    1.1021864014e+03
    1.3591567039e+01    1.1070819092e+03
    1.3668395996e+01    1.1119600830e+03
    1.3745048523e+01    1.1168193359e+03
    1.3821535110e+01    1.1216580811e+03
    1.3897857666e+01    1.1264716797e+03
    1.3974013329e+01    1.1312523193e+03
    1.4049993515e+01    1.1359924316e+03
    1.4125793457e+01    1.1406906738e+03
    1.4201373100e+01    1.1453531494e+03
    1.4276740074e+01    1.1499876709e+03
    1.4351856232e+01    1.1545980225e+03
    1.4426702499e+01    1.1591807861e+03
    1.4501254082e+01    1.1637287598e+03
    1.4575521469e+01    1.1682365723e+03
    1.4649487495e+01    1.1727038574e+03
    1.4723143578e+01    1.1771352539e+03
    1.4796499252e+01    1.1815355225e+03
    1.4869539261e+01    1.1859058838e+03
    1.4942273140e+01    1.1902420654e+03
    1.5014692307e+01    1.1945363770e+03
    1.5086801529e+01    1.1987832031e+03
    1.5158580780e+01    1.2029838867e+03
    1.5230003357e+01    1.2071469727e+03
    1.5301086426e+01    1.2112847900e+03
    1.5371806145e+01    1.2154100342e+03
    1.5442147255e+01    1.2195330811e+03
    1.5512125969e+01    1.2236582031e+03
    1.5581718445e+01    1.2277835693e+03
    1.5650940895e+01    1.2319003906e+03
    1.5719773293e+01    1.2359978027e+03
    1.5788209915e+01    1.2400653076e+03
    1.5856247902e+01    1.2440939941e+03
    1.5923856735e+01    1.2480764160e+03
    1.5991018295e+01    1.2520080566e+03
    1.6057725906e+01    1.2558883057e+03
    1.6123958588e+01    1.2597207031e+03
    1.6189710617e+01    1.2635095215e+03
    1.6254970551e+01    1.2672596436e+03
    1.6319728851e+01    1.2709743652e+03
    1.6383979797e+01    1.2746566162e+03
    1.6447732925e+01    1.2783099365e+03
    1.6510982513e+01    1.2819365234e+03
    1.6573722839e+01    1.2855369873e+03
    1.6635950089e+01    1.2891087646e+03
    1.6697649002e+01    1.2926478271e+03
    1.6758821487e+01    1.2961519775e+03
    1.6819471359e+01    1.2996242676e+03
    1.6879581451e+01    1.3030732422e+03
    1.6939151764e+01    1.3065090332e+03
    1.6998186111e+01    1.3099390869e+03
    1.7056659698e+01    1.3133632812e+03
    1.7114570618e+01    1.3167844238e+03
    1.7171928406e+01    1.3202026367e+03
    1.7228717804e+01    1.3236094971e+03
    1.7284925461e+01    1.3269932861e+03
    1.7340543747e+01    1.3303397217e+03
    1.7395593643e+01    1.3336461182e+03
    1.7450056076e+01    1.3369044189e+03
    1.7503919601e+01    1.3401093750e+03
    1.7557195663e+01    1.3432641602e+03
    1.7609880447e+01    1.3463701172e+03
    1.7661973953e+01    1.3494274902e+03
    1.7713474274e+01    1.3524353027e+03
    1.7764356613e+01    1.3553934326e+03
    1.7814619064e+01    1.3583031006e+03
    1.7864263535e+01    1.3611672363e+03
    1.7913284302e+01    1.3639902344e+03
    1.7961668015e+01    1.3667778320e+03
    1.8009422302e+01    1.3695364990e+03
    1.8056541443e+01    1.3722707520e+03
    1.8103019714e+01    1.3749814453e+03
    1.8148880005e+01    1.3776676025e+03
    1.8194118500e+01    1.3803291016e+03
    1.8238733292e+01    1.3829663086e+03
    1.8282718658e+01    1.3855804443e+03
    1.8326068878e+01    1.3881733398e+03
    1.8368772507e+01    1.3907473145e+03
    1.8410825729e+01    1.3933049316e+03
    1.8452228546e+01    1.3958455811e+03
    1.8492973328e+01    1.3983632812e+03
    1.8533063889e+01    1.4008491211e+03
    1.8572505951e+01    1.4032962646e+03
    1.8611297607e+01    1.4057041016e+03
    1.8649454117e+01    1.4080788574e+03
    1.8686990738e+01    1.4104296875e+03
    1.8723901749e+01    1.4127656250e+03
    1.8760189056e+01    1.4150944824e+03
    1.8795846939e+01    1.4174233398e+03
    1.8830865860e+01    1.4197540283e+03
    1.8865236282e+01    1.4220822754e+03
    1.8898954391e+01    1.4243996582e+03
    1.8932022095e+01    1.4266976318e+03
    1.8964447021e+01    1.4289699707e+03
    1.8996240616e+01    1.4312108154e+03
    1.9027412415e+01    1.4334135742e+03
    1.9057970047e+01    1.4355742188e+03
    1.9087930679e+01    1.4376909180e+03
    1.9117300034e+01    1.4397612305e+03
    1.9146072388e+01    1.4417810059e+03
    1.9174242020e+01    1.4437495117e+03
    1.9201807022e+01    1.4456723633e+03
    1.9228752136e+01    1.4475581055e+03
    1.9255073547e+01    1.4494113770e+03
    1.9280778885e+01    1.4512324219e+03
    1.9305870056e+01    1.4530211182e+03
    1.9330366135e+01    1.4547803955e+03
    1.9354288101e+01    1.4565153809e+03
    1.9377656937e+01    1.4582303467e+03
    1.9400487900e+01    1.4599256592e+03
    1.9422792435e+01    1.4615988770e+03
    1.9444576263e+01    1.4632464600e+03
    1.9465833664e+01    1.4648657227e+03
    1.9486551285e+01    1.4664543457e+03
    1.9506719589e+01    1.4680109863e+03
    1.9526330948e+01    1.4695377197e+03
    1.9545368195e+01    1.4710367432e+03
    1.9563829422e+01    1.4725104980e+03
    1.9581729889e+01    1.4739648438e+03
    1.9599090576e+01    1.4754057617e+03
    1.9615934372e+01    1.4768380127e+03
    1.9632293701e+01    1.4782640381e+03
    1.9648199081e+01    1.4796835938e+03
    1.9663673401e+01    1.4810917969e+03
    1.9678737640e+01    1.4824863281e+03
    1.9693389893e+01    1.4838612061e+03
    1.9707633972e+01    1.4852133789e+03
    1.9721452713e+01    1.4865396729e+03
    1.9734825134e+01    1.4878371582e+03
    1.9747722626e+01    1.4891030273e+03
    1.9760116577e+01    1.4903344727e+03
    1.9771982193e+01    1.4915299072e+03
    1.9783306122e+01    1.4926907959e+03
    1.9794082642e+01    1.4938218994e+03
    1.9804323196e+01    1.4949287109e+03
    1.9814058304e+01    1.4960156250e+03
    1.9823335648e+01    1.4970861816e+03
    1.9832208633e+01    1.4981442871e+03
    1.9840736389e+01    1.4991948242e+03
    1.9848983765e+01    1.5002429199e+03
    1.9857006073e+01    1.5012912598e+03
    1.9864854813e+01    1.5023385010e+03
    1.9872570038e+01    1.5033801270e+03
    1.9880187988e+01    1.5044085693e+03
    1.9887725830e+01    1.5054149170e+03
    1.9895191193e+01    1.5063891602e+03
    1.9902582169e+01    1.5073215332e+03
    1.9909881592e+01    1.5082048340e+03
    1.9917055130e+01    1.5090384521e+03
    1.9924062729e+01    1.5098293457e+03
    1.9930854797e+01    1.5105874023e+03
    1.9937368393e+01    1.5113203125e+03
    1.9943540573e+01    1.5120314941e+03
    1.9949304581e+01    1.5127229004e+03
    1.9954597473e+01    1.5133957520e+03
    1.9959363937e+01    1.5140516357e+03
    1.9963558197e+01    1.5146911621e+03
    1.9967157364e+01    1.5153146973e+03
    1.9970155716e+01    1.5159229736e+03
    1.9972574234e+01    1.5165203857e+03
    1.9974449158e+01    1.5171134033e+03
    1.9975831985e+01    1.5177075195e+03
    1.9976779938e+01    1.5183046875e+03
    1.9977355957e+01    1.5189046631e+03
    1.9977624893e+01    1.5195075684e+03
    1.9977645874e+01    1.5201138916e+03
    1.9977474213e+01    1.5207213135e+03
    1.9977161407e+01    1.5213243408e+03
    1.9976755142e+01    1.5219138184e+03
    1.9976289749e+01    1.5224798584e+03
    1.9975801468e+01    1.5230155029e+03
    1.9975313187e+01    1.5235181885e+03
    1.9974843979e+01    1.5239886475e+03
    1.9974411011e+01    1.5244283447e+03
    1.9974020004e+01    1.5248392334e+03
    1.9973680496e+01    1.5252246094e+03
    1.9973390579e+01    1.5255897217e+03
    1.9973152161e+01    1.5259400635e+03
    1.9972963333e+01    1.5262773438e+03
    1.9972818375e+01    1.5265987549e+03
    1.9972713470e+01    1.5269003906e+03
    1.9972644806e+01    1.5271828613e+03
    1.9972606659e+01    1.5274531250e+03
    1.9972591400e+01    1.5277213135e+03
    1.9972595215e+01    1.5279960938e+03
    1.9972614288e+01    1.5282816162e+03
    1.9972644806e+01    1.5285766602e+03
    1.9972681046e+01    1.5288768311e+03
    1.9972723007e+01    1.5291745605e+03
    1.9972764969e+01    1.5294608154e+03
    1.9972805023e+01    1.5297282715e+03
    1.9972845078e+01    1.5299729004e+03
    1.9972881317e+01    1.5301928711e+03
    1.9972913742e+01    1.5303857422e+03
    1.9972942352e+01    1.5305474854e+03
    1.9972967148e+01    1.5306717529e+03
    1.9972988129e+01    1.5307531738e+03
    1.9973005295e+01    1.5307902832e+03
    1.9973018646e+01    1.5307873535e+03
    1.9973028183e+01    1.5307523193e+03
    1.9973037720e+01    1.5306953125e+03
    1.9973043442e+01    1.5306256104e+03
    1.9973049164e+01    1.5305490723e+03
    1.9973051071e+01    1.5304675293e+03
    1.9973052979e+01    1.5303782959e+03
    1.9973054886e+01    1.5302779541e+03
    1.9973054886e+01    1.5301650391e+03
    1.9973052979e+01    1.5300429688e+03
    1.9973051071e+01    1.5299182129e+03
    1.9973047256e+01    1.5297982178e+03
    1.9973043442e+01    1.5296877441e+03
    1.9973035812e+01    1.5295869141e+03
    1.9973026276e+01    1.5294918213e+03
    1.9973016739e+01    1.5293975830e+03
    1.9973003387e+01    1.5293010254e+03
    1.9972986221e+01    1.5292015381e+03
    1.9972965240e+01    1.5290977783e+03
    1.9972940445e+01    1.5289859619e+03
    1.9972911835e+01    1.5288594971e+03
    1.9972879410e+01    1.5287098389e+03
    1.9972843170e+01    1.5285270996e+03
    1.9972803116e+01    1.5283020020e+03
    1.9972763062e+01    1.5280283203e+03
    1.9972721100e+01    1.5277062988e+03
    1.9972679138e+01    1.5273406982e+03
    1.9972642899e+01    1.5269376221e+03
    1.9972612381e+01    1.5265041504e+03
    1.9972593307e+01    1.5260488281e+03
    1.9972589493e+01    1.5255795898e+03
    1.9972604752e+01    1.5250983887e+03
    1.9972646713e+01    1.5246010742e+03
    1.9972715378e+01    1.5240797119e+03
    1.9972822189e+01    1.5235284424e+03
    1.9972969055e+01    1.5229465332e+03
    1.9973161697e+01    1.5223393555e+03
    1.9973403931e+01    1.5217163086e+03
    1.9973695755e+01    1.5210888672e+03
    1.9974040985e+01    1.5204677734e+03
    1.9974433899e+01    1.5198621826e+03
    1.9974870682e+01    1.5192774658e+03
    1.9975341797e+01    1.5187154541e+03
    1.9975830078e+01    1.5181741943e+03
    1.9976314545e+01    1.5176486816e+03
    1.9976774216e+01    1.5171314697e+03
    1.9977170944e+01    1.5166130371e+03
    1.9977470398e+01    1.5160842285e+03
    1.9977626801e+01    1.5155377197e+03
    1.9977586746e+01    1.5149681396e+03
    1.9977293015e+01    1.5143695068e+03
    1.9976684570e+01    1.5137353516e+03
    1.9975700378e+01    1.5130570068e+03
    1.9974279404e+01    1.5123247070e+03
    1.9972360611e+01    1.5115300293e+03
    1.9969896317e+01    1.5106690674e+03
    1.9966852188e+01    1.5097430420e+03
    1.9963207245e+01    1.5087565918e+03
    1.9958971024e+01    1.5077174072e+03
    1.9954166412e+01    1.5066361084e+03
    1.9948839188e+01    1.5055283203e+03
    1.9943044662e+01    1.5044123535e+03
    1.9936849594e+01    1.5033050537e+03
    1.9930318832e+01    1.5022158203e+03
    1.9923515320e+01    1.5011434326e+03
    1.9916498184e+01    1.5000795898e+03
    1.9909318924e+01    1.4990147705e+03
    1.9902023315e+01    1.4979416504e+03
    1.9894636154e+01    1.4968563232e+03
    1.9887178421e+01    1.4957575684e+03
    1.9879652023e+01    1.4946456299e+03
    1.9872053146e+01    1.4935219727e+03
    1.9864355087e+01    1.4923881836e+03
    1.9856527328e+01    1.4912453613e+03
    1.9848529816e+01    1.4900933838e+03
    1.9840311050e+01    1.4889313965e+03
    1.9831809998e+01    1.4877558594e+03
    1.9822967529e+01    1.4865620117e+03
    1.9813722610e+01    1.4853441162e+03
    1.9804018021e+01    1.4840965576e+03
    1.9793806076e+01    1.4828132324e+03
    1.9783058167e+01    1.4814880371e+03
    1.9771757126e+01    1.4801173096e+03
    1.9759904861e+01    1.4787031250e+03
    1.9747520447e+01    1.4772542725e+03
    1.9734628677e+01    1.4757838135e+03
    1.9721260071e+01    1.4743012695e+03
    1.9707439423e+01    1.4728094482e+03
    1.9693191528e+01    1.4713054199e+03
    1.9678531647e+01    1.4697846680e+03
    1.9663463593e+01    1.4682427979e+03
    1.9647979736e+01    1.4666757812e+03
    1.9632070541e+01    1.4650806885e+03
    1.9615711212e+01    1.4634552002e+03
    1.9598871231e+01    1.4617954102e+03
    1.9581521988e+01    1.4600942383e+03
    1.9563634872e+01    1.4583458252e+03
    1.9545185089e+01    1.4565488281e+03
    1.9526163101e+01    1.4547083740e+03
    1.9506570816e+01    1.4528328857e+03
    1.9486415863e+01    1.4509306641e+03
    1.9465713501e+01    1.4490078125e+03
    1.9444477081e+01    1.4470682373e+03
    1.9422714233e+01    1.4451162109e+03
    1.9400426865e+01    1.4431568604e+03
    1.9377613068e+01    1.4411956787e+03
    1.9354259491e+01    1.4392384033e+03
    1.9330352783e+01    1.4372905273e+03
    1.9305870056e+01    1.4353557129e+03
    1.9280788422e+01    1.4334337158e+03
    1.9255092621e+01    1.4315217285e+03
    1.9228771210e+01    1.4296137695e+03
    1.9201822281e+01    1.4276988525e+03
    1.9174253464e+01    1.4257642822e+03
    1.9146068573e+01    1.4237879639e+03
    1.9117280960e+01    1.4217498779e+03
    1.9087900162e+01    1.4196359863e+03
    1.9057926178e+01    1.4174332275e+03
    1.9027359009e+01    1.4151442871e+03
    1.8996187210e+01    1.4127786865e+03
    1.8964393616e+01    1.4103527832e+03
    1.8931968689e+01    1.4078919678e+03
    1.8898900986e+01    1.4054152832e+03
    1.8865190506e+01    1.4029310303e+03
    1.8830827713e+01    1.4004401855e+03
    1.8795820236e+01    1.3979381104e+03
    1.8760177612e+01    1.3954194336e+03
    1.8723905563e+01    1.3928814697e+03
    1.8687009811e+01    1.3903237305e+03
    1.8649486542e+01    1.3877447510e+03
    1.8611341476e+01    1.3851407471e+03
    1.8572565079e+01    1.3825063477e+03
    1.8533145905e+01    1.3798383789e+03
    1.8493078232e+01    1.3771387939e+03
    1.8452358246e+01    1.3744118652e+03
    1.8410984039e+01    1.3716589355e+03
    1.8368946075e+01    1.3688757324e+03
    1.8326261520e+01    1.3660544434e+03
    1.8282930374e+01    1.3631881104e+03
    1.8238969803e+01    1.3602725830e+03
    1.8194389343e+01    1.3573054199e+03
    1.8149183273e+01    1.3542851562e+03
    1.8103349686e+01    1.3512114258e+03
    1.8056882858e+01    1.3480875244e+03
    1.8009792328e+01    1.3449202881e+03
    1.7962060928e+01    1.3417175293e+03
    1.7913696289e+01    1.3384854736e+03
    1.7864709854e+01    1.3352266846e+03
    1.7815090179e+01    1.3319404297e+03
    1.7764837265e+01    1.3286247559e+03
    1.7713977814e+01    1.3252780762e+03
    1.7662504196e+01    1.3218981934e+03
    1.7610433578e+01    1.3184841309e+03
    1.7557769775e+01    1.3150391846e+03
    1.7504512787e+01    1.3115710449e+03
    1.7450660706e+01    1.3080859375e+03
    1.7396213531e+01    1.3045858154e+03
    1.7341180801e+01    1.3010706787e+03
    1.7285568237e+01    1.2975417480e+03
    1.7229368210e+01    1.2940028076e+03
    1.7172601700e+01    1.2904571533e+03
    1.7115255356e+01    1.2869035645e+03
    1.7057350159e+01    1.2833363037e+03
    1.6998884201e+01    1.2797464600e+03
    1.6939855576e+01    1.2761226807e+03
    1.6880290985e+01    1.2724525146e+03
    1.6820198059e+01    1.2687280273e+03
    1.6759563446e+01    1.2649511719e+03
    1.6698402405e+01    1.2611323242e+03
    1.6636714935e+01    1.2572877197e+03
    1.6574510574e+01    1.2534342041e+03
    1.6511781693e+01    1.2495816650e+03
    1.6448539734e+01    1.2457326660e+03
    1.6384775162e+01    1.2418843994e+03
    1.6320508957e+01    1.2380314941e+03
    1.6255729675e+01    1.2341667480e+03
    1.6190441132e+01    1.2302802734e+03
    1.6124664307e+01    1.2263626709e+03
    1.6058395386e+01    1.2224063721e+03
    1.5991643906e+01    1.2184067383e+03
    1.5924432755e+01    1.2143599854e+03
    1.5856783867e+01    1.2102640381e+03
    1.5788717270e+01    1.2061193848e+03
    1.5720238686e+01    1.2019262695e+03
    1.5651367188e+01    1.1976947021e+03
    1.5582111359e+01    1.1934326172e+03
    1.5512492180e+01    1.1891494141e+03
    1.5442492485e+01    1.1848413086e+03
    1.5372119904e+01    1.1805104980e+03
    1.5301383018e+01    1.1761524658e+03
    1.5230281830e+01    1.1717619629e+03
    1.5158837318e+01    1.1673375244e+03
    1.5087038994e+01    1.1628803711e+03
    1.5014922142e+01    1.1583930664e+03
    1.4942480087e+01    1.1538780518e+03
    1.4869717598e+01    1.1493381348e+03
    1.4796656609e+01    1.1447764893e+03
    1.4723279953e+01    1.1401956787e+03
    1.4649602890e+01    1.1355994873e+03
    1.4575626373e+01    1.1309916992e+03
    1.4501353264e+01    1.1263767090e+03
    1.4426781654e+01    1.1217561035e+03
    1.4351939201e+01    1.1171278076e+03
    1.4276835442e+01    1.1124870605e+03
    1.4201499939e+01    1.1078277588e+03
    1.4125929832e+01    1.1031439209e+03
    1.4050181389e+01    1.0984273682e+03
    1.3974226952e+01    1.0936684570e+03
    1.3898103714e+01    1.0888601074e+03
    1.3821825027e+01    1.0839993896e+03
    1.3745372772e+01    1.0790888672e+03
    1.3668764114e+01    1.0741339111e+03
    1.3591981888e+01    1.0691395264e+03
    1.3515021324e+01    1.0641102295e+03
    1.3437874794e+01    1.0590491943e+03
    1.3360499382e+01    1.0539591064e+03
    1.3282906532e+01    1.0488424072e+03
    1.3205100060e+01    1.0437001953e+03
    1.3127042770e+01    1.0385313721e+03
    1.3048749924e+01    1.0333308105e+03
    1.2970216751e+01    1.0280917969e+03
    1.2891459465e+01    1.0228082886e+03
    1.2812471390e+01    1.0174746094e+03
    1.2733263016e+01    1.0120871582e+03
    1.2653875351e+01    1.0066444092e+03
    1.2574318886e+01    1.0011484985e+03
    1.2494611740e+01    9.9560375977e+02
    1.2414785385e+01    9.9001538086e+02
    1.2334877968e+01    9.8438983154e+02
    1.2254883766e+01    9.7873431396e+02
    1.2174836159e+01    9.7305822754e+02
    1.2094751358e+01    9.6737048340e+02
    1.2014633179e+01    9.6167462158e+02
    1.1934514046e+01    9.5596807861e+02
    1.1854401588e+01    9.5024499512e+02
    1.1774278641e+01    9.4450268555e+02
    1.1694177628e+01    9.3874273682e+02
    1.1614108086e+01    9.3297149658e+02
    1.1534053802e+01    9.2719934082e+02
    1.1454008102e+01    9.2143713379e+02
    1.1373987198e+01    9.1569165039e+02
    1.1293993950e+01    9.0996081543e+02
    1.1214020729e+01    9.0423419189e+02
    1.1134050369e+01    8.9849877930e+02
    1.1054093361e+01    8.9273895264e+02
    1.0974161148e+01    8.8695959473e+02
    1.0894234657e+01    8.8114984131e+02
    1.0814321518e+01    8.7530664062e+02
    1.0734400749e+01    8.6942864990e+02
    1.0654484749e+01    8.6351239014e+02
    1.0574591637e+01    8.5755523682e+02
    1.0494676590e+01    8.5155328369e+02
    1.0414772987e+01    8.4551855469e+02
    1.0334877014e+01    8.3945867920e+02
    1.0254976273e+01    8.3337957764e+02
    1.0175081253e+01    8.2729119873e+02
    1.0095164299e+01    8.2118249512e+02
    1.0015244484e+01    8.1505780029e+02
    9.9353418350e+00    8.0890844727e+02
    9.8554172516e+00    8.0272290039e+02
    9.7754878998e+00    7.9649835205e+02
    9.6955604553e+00    7.9024365234e+02
    9.6156177521e+00    7.8397668457e+02
    9.5356788635e+00    7.7771679688e+02
    9.4557228088e+00    7.7147747803e+02
    9.3757553101e+00    7.6526538086e+02
    9.2957887650e+00    7.5907983398e+02
    9.2158088684e+00    7.5291613770e+02
    9.1358337402e+00    7.4677038574e+02
    9.0558395386e+00    7.4063818359e+02
    8.9758577347e+00    7.3451428223e+02
    8.8958587646e+00    7.2838952637e+02
    8.8158626556e+00    7.2225311279e+02
    8.7358713150e+00    7.1609936523e+02
    8.6558971405e+00    7.0993078613e+02
    8.5759420395e+00    7.0375817871e+02
    8.4959993362e+00    6.9759515381e+02
    8.4160776138e+00    6.9145208740e+02
    8.3362045288e+00    6.8533459473e+02
    8.2563858032e+00    6.7924517822e+02
    8.1766023636e+00    6.7318780518e+02
    8.0968933105e+00    6.6716613770e+02
    8.0172481537e+00    6.6117822266e+02
    7.9376711845e+00    6.5521301270e+02
    7.8581809998e+00    6.4925006104e+02
    7.7787799835e+00    6.4326708984e+02
    7.6994366646e+00    6.3724566650e+02
    7.6201930046e+00    6.3117315674e+02
    7.5410327911e+00    6.2504351807e+02
    7.4619679451e+00    6.1885534668e+02
    7.3830018044e+00    6.1261236572e+02
    7.3041095734e+00    6.0632073975e+02
    7.2253355980e+00    5.9998706055e+02
    7.1466627121e+00    5.9361932373e+02
    7.0681109428e+00    5.8722644043e+02
    6.9896793365e+00    5.8082055664e+02
    6.9113721848e+00    5.7441387939e+02
    6.8331952095e+00    5.6801818848e+02
    6.7551751137e+00    5.6164721680e+02
    6.6773104668e+00    5.5531774902e+02
    6.5995960236e+00    5.4905047607e+02
    6.5220599174e+00    5.4286608887e+02
    6.4446926117e+00    5.3678100586e+02
    6.3675003052e+00    5.3080566406e+02
    6.2904953957e+00    5.2494189453e+02
    6.2136921883e+00    5.1918438721e+02
    6.1370944977e+00    5.1351940918e+02
    6.0607128143e+00    5.0792721558e+02
    5.9845433235e+00    5.0238650513e+02
    5.9086084366e+00    4.9687689209e+02
    5.8329114914e+00    4.9138208008e+02
    5.7574453354e+00    4.8588793945e+02
    5.6822466850e+00    4.8038021851e+02
    5.6072978973e+00    4.7484338379e+02
    5.5326137543e+00    4.6925634766e+02
    5.4582085609e+00    4.6361938477e+02
    5.3840966225e+00    4.5791790771e+02
    5.3102684021e+00    4.5215707397e+02
    5.2367277145e+00    4.4634472656e+02
    5.1635141373e+00    4.4050527954e+02
    5.0906066895e+00    4.3465847778e+02
    5.0180139542e+00    4.2881384277e+02
    4.9457550049e+00    4.2298724365e+02
    4.8738365173e+00    4.1720281982e+02
    4.8022651672e+00    4.1146817017e+02
    4.7310414314e+00    4.0578747559e+02
    4.6601886749e+00    4.0016415405e+02
    4.5897111893e+00    3.9459848022e+02
    4.5196242332e+00    3.8908718872e+02
    4.4499158859e+00    3.8362518311e+02
    4.3806076050e+00    3.7820614624e+02
    4.3117022514e+00    3.7282577515e+02
    4.2432136536e+00    3.6748327637e+02
    4.1751518250e+00    3.6218197632e+02
    4.1075115204e+00    3.5692572021e+02
    4.0403137207e+00    3.5171328735e+02
    3.9735479355e+00    3.4654000854e+02
    3.9072494507e+00    3.4140017700e+02
    3.8413906097e+00    3.3629150391e+02
    3.7760109901e+00    3.3121862793e+02
    3.7110807896e+00    3.2618966675e+02
    3.6466426849e+00    3.2121398926e+02
    3.5826799870e+00    3.1629946899e+02
    3.5192131996e+00    3.1145037842e+02
    3.4562406540e+00    3.0666381836e+02
    3.3937628269e+00    3.0192794800e+02
    3.3318052292e+00    2.9722622681e+02
    3.2703700066e+00    2.9254013062e+02
    3.2094430923e+00    2.8785354614e+02
    3.1490418911e+00    2.8315643311e+02
    3.0891880989e+00    2.7844381714e+02
    3.0298814774e+00    2.7371444702e+02
    2.9711084366e+00    2.6896582031e+02
    2.9129009247e+00    2.6419268799e+02
    2.8552408218e+00    2.5939147949e+02
    2.7981605530e+00    2.5456251526e+02
    2.7416357994e+00    2.4971032715e+02
    2.6856935024e+00    2.4484056091e+02
    2.6303229332e+00    2.3995851135e+02
    2.5755422115e+00    2.3506962585e+02
    2.5213592052e+00    2.3018145752e+02
    2.4677574635e+00    2.2530862427e+02
    2.4147648811e+00    2.2047224426e+02
    2.3623631001e+00    2.1569738770e+02
    2.3105781078e+00    2.1100737000e+02
    2.2593913078e+00    2.0641575623e+02
    2.2088248730e+00    2.0192552185e+02
    2.1588757038e+00    1.9753082275e+02
    2.1095395088e+00    1.9322267151e+02
    2.0608305931e+00    1.8899429321e+02
    2.0127415657e+00    1.8484169006e+02
    1.9652853012e+00    1.8076536560e+02
    1.9184541702e+00    1.7676861572e+02
    1.8722606897e+00    1.7285362244e+02
    1.8266937733e+00    1.6901681519e+02
    1.7817735672e+00    1.6524589539e+02
    1.7374902964e+00    1.6152484131e+02
    1.6938340664e+00    1.5783692932e+02
    1.6508277655e+00    1.5418399048e+02
    1.6084614992e+00    1.5055723572e+02
    1.5667420626e+00    1.4696037292e+02
    1.5256571770e+00    1.4339697266e+02
    1.4852080345e+00    1.3986407471e+02
    1.4454110861e+00    1.3636111450e+02
    1.4062602520e+00    1.3287387085e+02
    1.3677436113e+00    1.2938945007e+02
    1.3298722506e+00    1.2590375519e+02
    1.2926396132e+00    1.2242070007e+02
    1.2560465336e+00    1.1894757080e+02
    1.2200875282e+00    1.1549060059e+02
    1.1847727299e+00    1.1205120087e+02
    1.1500906944e+00    1.0862761688e+02
    1.1160473824e+00    1.0521742249e+02
    1.0826373100e+00    1.0182015991e+02
    1.0498536825e+00    9.8438011169e+01
    1.0177023411e+00    9.5073455811e+01
    9.8617339134e-01    9.1727561951e+01
    9.5526963472e-01    8.8399261475e+01
    9.2499095201e-01    8.5090744019e+01
    8.9532047510e-01    8.1812278748e+01
    8.6627328396e-01    7.8577934265e+01
    8.3783262968e-01    7.5398437500e+01
    8.1000274420e-01    7.2276138306e+01
    7.8277331591e-01    6.9207351685e+01
    7.5614506006e-01    6.6188560486e+01
    7.3011261225e-01    6.3222080231e+01
    7.0467323065e-01    6.0318717957e+01
    6.7981719971e-01    5.7491405487e+01
    6.5554451942e-01    5.4747943878e+01
    6.3185077906e-01    5.2088031769e+01
    6.0872459412e-01    4.9504520416e+01
    5.8616960049e-01    4.6988048553e+01
    5.6417816877e-01    4.4529113770e+01
    5.4273563623e-01    4.2120849609e+01
    5.2185022831e-01    3.9758964539e+01
    5.0150328875e-01    3.7436744690e+01
    4.8170140386e-01    3.5144939423e+01
    4.6243304014e-01    3.2876106262e+01
    4.4368606806e-01    3.0627763748e+01
    4.2546033859e-01    2.8400228500e+01
    4.0775367618e-01    2.6193586349e+01
    3.9054644108e-01    2.4009639740e+01
    3.7384510040e-01    2.1852632523e+01
    3.5763829947e-01    1.9728366852e+01
    3.4191635251e-01    1.7644327164e+01
    3.2667535543e-01    1.5611214638e+01
    3.1190744042e-01    1.3645853043e+01
    2.9760831594e-01    1.1772129059e+01
    2.8376302123e-01    1.0020321846e+01
    2.7037125826e-01    8.4230852127e+00
    2.5742247701e-01    7.0105309486e+00
    2.4490888417e-01    5.8100314140e+00
    2.3282548785e-01    4.8469476700e+00
    2.2116060555e-01    4.1424455643e+00
    2.0991267264e-01    3.7086224556e+00
    1.9906722009e-01    3.5465359688e+00
    1.8861833215e-01    3.6479535103e+00
    1.7856261134e-01    3.9963793755e+00
    1.6888532043e-01    4.5672583580e+00
    1.5958219767e-01    5.3289585114e+00
    1.5064676106e-01    6.2459964752e+00
    1.4206601679e-01    7.2826585770e+00
    1.3383765519e-01    8.4060316086e+00
    1.2595041096e-01    9.5873308182e+00
    1.1839651316e-01    1.0802182198e+01
    1.1116690189e-01    1.2030813217e+01
    1.0425501317e-01    1.3256954193e+01
    9.7651869059e-02    1.4468404770e+01
    9.1349802911e-02    1.5659161568e+01
    8.5341192782e-02    1.6823505402e+01
    7.9617530107e-02    1.7958990097e+01
    7.4171900749e-02    1.9061729431e+01
    6.8992868066e-02    2.0133882523e+01
    6.4076043665e-02    2.1174821854e+01
    5.9411190450e-02    2.2190422058e+01
    5.4992284626e-02    2.3188234329e+01
    5.0810538232e-02    2.4177007675e+01
    4.6857517213e-02    2.5163946152e+01
    4.3126873672e-02    2.6153276443e+01
    3.9609611034e-02    2.7145790100e+01
    3.6298602819e-02    2.8138517380e+01
    3.3186111599e-02    2.9125806808e+01
    3.0265331268e-02    3.0101879120e+01
    2.7528442442e-02    3.1062868118e+01
    2.4967936799e-02    3.2004776001e+01
    2.2576639429e-02    3.2920516968e+01
    2.0347796381e-02    3.3800369263e+01
    1.8273783848e-02    3.4634609222e+01
    1.6348738223e-02    3.5416568756e+01
    1.4565143734e-02    3.6144084930e+01
    1.2916798703e-02    3.6820129395e+01
    1.1396419257e-02    3.7451442719e+01
    9.9978260696e-03    3.8044906616e+01
    8.7150251493e-03    3.8605968475e+01
    7.5413752347e-03    3.9138999939e+01
    6.4712674357e-03    3.9647293091e+01
    5.4987673648e-03    4.0133857727e+01
    4.6178074554e-03    4.0603290558e+01
    3.8229096681e-03    4.1062042236e+01
    3.1086034141e-03    4.1514663696e+01
    2.4695154279e-03    4.1959079742e+01
    1.9005693030e-03    4.2385204315e+01
    1.3966613915e-03    4.2778354645e+01
    9.5307157608e-04    4.3125751495e+01
    5.6489469716e-04    4.3421112061e+01
    2.2767038899e-04    4.3665531158e+01
   -6.2880935729e-05    4.3866107941e+01
   -3.1110917917e-04    4.4033546448e+01
   -5.2093074191e-04    4.4179985046e+01
   -6.9634453394e-04    4.4316444397e+01
   -8.4098812658e-04    4.4450031281e+01
   -9.5842801966e-04    4.4582374573e+01
   -1.0520478245e-03    4.4710983276e+01
   -1.1249847012e-03    4.4832775116e+01
   -1.1802671943e-03    4.4946609497e+01
   -1.2206990505e-03    4.5052883148e+01
   -1.2488901848e-03    4.5151664734e+01
   -1.2672629673e-03    4.5241744995e+01
   -1.2780027464e-03    4.5321537018e+01
   -1.2830839260e-03    4.5390773773e+01
   -1.2842481956e-03    4.5450611115e+01
   -1.2829843909e-03    4.5501968384e+01
   -1.2805210426e-03    4.5544773102e+01
   -1.2778117089e-03    4.5578636169e+01
   -1.2755198404e-03    4.5603385925e+01
   -1.2740038801e-03    4.5619045258e+01
   -1.2733073672e-03    4.5626300812e+01
   -1.2731465977e-03    4.5628017426e+01
endcurve
