Curveplot
LS-DYNA keyword deck by LS-PrePost
Abscissa
Ordinate
XY data
CHOP_EAMX_mo-1 #pts=3000
* Minval=    -1.2744018555e+01 at time=       299.9090576172
* Maxval=     4.5436004639e+01 at time=       211.6036529541
    0.0000000000e+00    0.0000000000e+00
    9.9969372153e-02    1.5628200490e-03
    1.9999055564e-01    3.1265213620e-03
    2.9997798800e-01    4.6894946136e-03
    3.9999884367e-01    6.2531991862e-03
    4.9999368191e-01    7.8160753474e-03
    5.9994947910e-01    9.3783866614e-03
    6.9995683432e-01    1.0943944566e-02
    7.9995691776e-01    1.2507892214e-02
    8.9995783567e-01    1.4069347642e-02
    9.9997615814e-01    1.5629438683e-02
    1.0999749899e+00    1.7188627273e-02
    1.1999589205e+00    1.8749121577e-02
    1.2999641895e+00    2.0311689004e-02
    1.3999682665e+00    2.1877089515e-02
    1.4999890327e+00    2.3446271196e-02
    1.5999946594e+00    2.5017827749e-02
    1.6999493837e+00    2.6589972898e-02
    1.7999840975e+00    2.8165379539e-02
    1.8999625444e+00    2.9739299789e-02
    1.9999979734e+00    3.1314883381e-02
    2.0999755859e+00    3.2890427858e-02
    2.1999657154e+00    3.4464914352e-02
    2.2999944687e+00    3.6038972437e-02
    2.3999969959e+00    3.7610989064e-02
    2.4999971390e+00    3.9182290435e-02
    2.5999636650e+00    4.0752027184e-02
    2.6999635696e+00    4.2320527136e-02
    2.7999787331e+00    4.3887082487e-02
    2.8999865055e+00    4.5452278107e-02
    2.9999670982e+00    4.7013327479e-02
    3.0999732018e+00    4.8573277891e-02
    3.1999964714e+00    5.0130955875e-02
    3.2999606133e+00    5.1685281098e-02
    3.3999693394e+00    5.3239528090e-02
    3.4999444485e+00    5.4793637246e-02
    3.5999779701e+00    5.6349571794e-02
    3.6999688148e+00    5.7904977351e-02
    3.7999927998e+00    5.9462510049e-02
    3.8999881744e+00    6.1019305140e-02
    3.9999790192e+00    6.2576867640e-02
    4.0999979973e+00    6.4134128392e-02
    4.1999869347e+00    6.5691016614e-02
    4.2999892235e+00    6.7246407270e-02
    4.3999638557e+00    6.8800084293e-02
    4.4999594688e+00    7.0352964103e-02
    4.5999741554e+00    7.1905374527e-02
    4.6999936104e+00    7.3455221951e-02
    4.7999687195e+00    7.5002498925e-02
    4.8999819756e+00    7.6549112797e-02
    4.9999451637e+00    7.8092567623e-02
    5.0999517441e+00    7.9635202885e-02
    5.1999678612e+00    8.1174656749e-02
    5.2999477386e+00    8.2710146904e-02
    5.3999924660e+00    8.4243081510e-02
    5.4999446869e+00    8.5771627724e-02
    5.5999689102e+00    8.7298460305e-02
    5.6999573708e+00    8.8823206723e-02
    5.7999835014e+00    9.0345375240e-02
    5.8999633789e+00    9.1866865754e-02
    5.9999904633e+00    9.3387700617e-02
    6.0999917984e+00    9.4904772937e-02
    6.1999559402e+00    9.6421405673e-02
    6.2999868393e+00    9.7935631871e-02
    6.3999643326e+00    9.9446624517e-02
    6.4999818802e+00    1.0095453262e-01
    6.5999855995e+00    1.0245781392e-01
    6.6999430656e+00    1.0395533592e-01
    6.7999916077e+00    1.0545254499e-01
    6.8999857903e+00    1.0694321990e-01
    6.9999866486e+00    1.0843276978e-01
    7.0999903679e+00    1.0991870612e-01
    7.1999754906e+00    1.1140014231e-01
    7.2999916077e+00    1.1287973821e-01
    7.3999700546e+00    1.1435548961e-01
    7.4999904633e+00    1.1582705379e-01
    7.5999941826e+00    1.1729796976e-01
    7.6999754906e+00    1.1876457930e-01
    7.7999663353e+00    1.2022952735e-01
    7.8999881744e+00    1.2169495225e-01
    7.9999499321e+00    1.2315459549e-01
    8.0999841690e+00    1.2461712956e-01
    8.1999864578e+00    1.2607824802e-01
    8.2999477386e+00    1.2753841281e-01
    8.3999547958e+00    1.2899816036e-01
    8.4999647141e+00    1.3045692444e-01
    8.5999832153e+00    1.3191309571e-01
    8.6999530792e+00    1.3336506486e-01
    8.7999639511e+00    1.3481575251e-01
    8.8999767303e+00    1.3626220822e-01
    8.9999771118e+00    1.3770715892e-01
    9.0999765396e+00    1.3914813101e-01
    9.1999673843e+00    1.4058709145e-01
    9.2999715805e+00    1.4202362299e-01
    9.3999557495e+00    1.4345568419e-01
    9.4999561310e+00    1.4488613605e-01
    9.5999441147e+00    1.4631401002e-01
    9.6999645233e+00    1.4773872495e-01
    9.7999467850e+00    1.4915971458e-01
    9.8999977112e+00    1.5057939291e-01
    9.9999589920e+00    1.5199385583e-01
    1.0099968910e+01    1.5589599311e-01
    1.0199953079e+01    1.5979614854e-01
    1.0299945831e+01    1.6369397938e-01
    1.0399965286e+01    1.6759213805e-01
    1.0499965668e+01    1.7148675025e-01
    1.0599949837e+01    1.7538096011e-01
    1.0699962616e+01    1.7927677929e-01
    1.0800002098e+01    1.8316626549e-01
    1.0899985313e+01    1.8704685569e-01
    1.0999961853e+01    1.9092279673e-01
    1.1099952698e+01    1.9479511678e-01
    1.1199979782e+01    1.9867016375e-01
    1.1299984932e+01    2.0254245400e-01
    1.1399976730e+01    2.0641525090e-01
    1.1499999046e+01    2.1029156446e-01
    1.1599985123e+01    2.1416795254e-01
    1.1699957848e+01    2.1804401278e-01
    1.1799983025e+01    2.2192224860e-01
    1.1899961472e+01    2.2579453886e-01
    1.1999995232e+01    2.2966700792e-01
    1.2099998474e+01    2.3353567719e-01
    1.2199968338e+01    2.3739825189e-01
    1.2299962997e+01    2.4125601351e-01
    1.2399999619e+01    2.4511015415e-01
    1.2499962807e+01    2.4895794690e-01
    1.2599994659e+01    2.5280231237e-01
    1.2699981689e+01    2.5663882494e-01
    1.2799963951e+01    2.6046833396e-01
    1.2899968147e+01    2.6428988576e-01
    1.2999986649e+01    2.6810577512e-01
    1.3099967003e+01    2.7191108465e-01
    1.3199962616e+01    2.7570870519e-01
    1.3299996376e+01    2.7950027585e-01
    1.3399962425e+01    2.8328078985e-01
    1.3499993324e+01    2.8705948591e-01
    1.3599989891e+01    2.9083320498e-01
    1.3700004578e+01    2.9460179806e-01
    1.3799965858e+01    2.9836738110e-01
    1.3900013924e+01    3.0213031173e-01
    1.3999975204e+01    3.0588701367e-01
    1.4099980354e+01    3.0964019895e-01
    1.4199968338e+01    3.1338509917e-01
    1.4300005913e+01    3.1712481380e-01
    1.4399991035e+01    3.2085821033e-01
    1.4499982834e+01    3.2458400726e-01
    1.4599979401e+01    3.2830488682e-01
    1.4700016975e+01    3.3202040195e-01
    1.4800003052e+01    3.3572500944e-01
    1.4899967194e+01    3.3942550421e-01
    1.4999972343e+01    3.4312009811e-01
    1.5100006104e+01    3.4680801630e-01
    1.5200000763e+01    3.5048618913e-01
    1.5300013542e+01    3.5415369272e-01
    1.5399974823e+01    3.5781130195e-01
    1.5499973297e+01    3.6146047711e-01
    1.5600020409e+01    3.6510109901e-01
    1.5700016975e+01    3.6873090267e-01
    1.5800010681e+01    3.7235441804e-01
    1.5899975777e+01    3.7596920133e-01
    1.5999968529e+01    3.7957930565e-01
    1.6100006104e+01    3.8318440318e-01
    1.6199974060e+01    3.8677769899e-01
    1.6300014496e+01    3.9036691189e-01
    1.6399993896e+01    3.9394471049e-01
    1.6500005722e+01    3.9751261473e-01
    1.6599990845e+01    4.0107041597e-01
    1.6699998856e+01    4.0461841226e-01
    1.6800025940e+01    4.0815699100e-01
    1.6899978638e+01    4.1168570518e-01
    1.7000017166e+01    4.1520512104e-01
    1.7100017548e+01    4.1871348023e-01
    1.7200006485e+01    4.2221400142e-01
    1.7299999237e+01    4.2570337653e-01
    1.7400011063e+01    4.2918607593e-01
    1.7500020981e+01    4.3265900016e-01
    1.7599994659e+01    4.3612071872e-01
    1.7699985504e+01    4.3957582116e-01
    1.7799989700e+01    4.4302400947e-01
    1.7900009155e+01    4.4646200538e-01
    1.8000007629e+01    4.4989508390e-01
    1.8100017548e+01    4.5332208276e-01
    1.8200019836e+01    4.5674431324e-01
    1.8299976349e+01    4.6016401052e-01
    1.8400022507e+01    4.6357750893e-01
    1.8499998093e+01    4.6698227525e-01
    1.8599983215e+01    4.7038063407e-01
    1.8700006485e+01    4.7377082705e-01
    1.8799987793e+01    4.7715371847e-01
    1.8899988174e+01    4.8052799702e-01
    1.9000005722e+01    4.8389378190e-01
    1.9099994659e+01    4.8725193739e-01
    1.9199981689e+01    4.9059951305e-01
    1.9300027847e+01    4.9393901229e-01
    1.9399980545e+01    4.9726638198e-01
    1.9500032425e+01    5.0058788061e-01
    1.9600013733e+01    5.0389724970e-01
    1.9700033188e+01    5.0720024109e-01
    1.9799993515e+01    5.1049089432e-01
    1.9900007248e+01    5.1377320290e-01
    1.9999984741e+01    5.1704335213e-01
    2.0099990845e+01    5.2299559116e-01
    2.0200040817e+01    5.2894282341e-01
    2.0299999237e+01    5.3487586975e-01
    2.0400026321e+01    5.4080438614e-01
    2.0500040054e+01    5.4672569036e-01
    2.0600002289e+01    5.5263328552e-01
    2.0699995041e+01    5.5853700638e-01
    2.0799997330e+01    5.6443047523e-01
    2.0900028229e+01    5.7030898333e-01
    2.1000000000e+01    5.7617330551e-01
    2.1100023270e+01    5.8202952147e-01
    2.1200017929e+01    5.8787590265e-01
    2.1300012589e+01    5.9371381998e-01
    2.1400011063e+01    5.9954619408e-01
    2.1500007629e+01    6.0537171364e-01
    2.1600028992e+01    6.1119556427e-01
    2.1700025558e+01    6.1700916290e-01
    2.1800006866e+01    6.2281471491e-01
    2.1899997711e+01    6.2861073017e-01
    2.2000017166e+01    6.3439762592e-01
    2.2099994659e+01    6.4017260075e-01
    2.2200014114e+01    6.4593809843e-01
    2.2300012589e+01    6.5168797970e-01
    2.2400020599e+01    6.5742671490e-01
    2.2500034332e+01    6.6315263510e-01
    2.2600044250e+01    6.6886472702e-01
    2.2700012207e+01    6.7456036806e-01
    2.2800018311e+01    6.8024420738e-01
    2.2900026321e+01    6.8591099977e-01
    2.3000047684e+01    6.9156265259e-01
    2.3100036621e+01    6.9719541073e-01
    2.3200029373e+01    7.0281183720e-01
    2.3300020218e+01    7.0841205120e-01
    2.3400012970e+01    7.1399515867e-01
    2.3500017166e+01    7.1956658363e-01
    2.3600040436e+01    7.2512590885e-01
    2.3700029373e+01    7.3066997528e-01
    2.3800006866e+01    7.3620343208e-01
    2.3900020599e+01    7.4172520638e-01
    2.4000034332e+01    7.4723279476e-01
    2.4100019455e+01    7.5272750854e-01
    2.4200014114e+01    7.5820744038e-01
    2.4300003052e+01    7.6367074251e-01
    2.4400007248e+01    7.6911967993e-01
    2.4500022888e+01    7.7455282211e-01
    2.4600021362e+01    7.7997219563e-01
    2.4700025558e+01    7.8537648916e-01
    2.4800027847e+01    7.9076570272e-01
    2.4900009155e+01    7.9614067078e-01
    2.5000049591e+01    8.0150210857e-01
    2.5100011826e+01    8.0684429407e-01
    2.5200056076e+01    8.1217497587e-01
    2.5300014496e+01    8.1748402119e-01
    2.5400028229e+01    8.2277798653e-01
    2.5500017166e+01    8.2805299759e-01
    2.5600038528e+01    8.3331000805e-01
    2.5700052261e+01    8.3855098486e-01
    2.5800018311e+01    8.4377497435e-01
    2.5900047302e+01    8.4898501635e-01
    2.6000038147e+01    8.5417997837e-01
    2.6100030899e+01    8.5935997963e-01
    2.6200033188e+01    8.6452400684e-01
    2.6300012589e+01    8.6967098713e-01
    2.6400020599e+01    8.7480002642e-01
    2.6500019073e+01    8.7991297245e-01
    2.6600025177e+01    8.8500595093e-01
    2.6700038910e+01    8.9008593559e-01
    2.6800050735e+01    8.9514005184e-01
    2.6900020599e+01    9.0017700195e-01
    2.7000040054e+01    9.0520101786e-01
    2.7100059509e+01    9.1019898653e-01
    2.7200029373e+01    9.1518896818e-01
    2.7300035477e+01    9.2014992237e-01
    2.7400028229e+01    9.2509603500e-01
    2.7500034332e+01    9.3003302813e-01
    2.7600067139e+01    9.3494099379e-01
    2.7700021744e+01    9.3983596563e-01
    2.7800018311e+01    9.4472193718e-01
    2.7900060654e+01    9.4958007336e-01
    2.8000028610e+01    9.5443505049e-01
    2.8100032806e+01    9.5926403999e-01
    2.8200035095e+01    9.6408200264e-01
    2.8300062180e+01    9.6889597178e-01
    2.8400035858e+01    9.7368395329e-01
    2.8500066757e+01    9.7846591473e-01
    2.8600051880e+01    9.8322200775e-01
    2.8700052261e+01    9.8795902729e-01
    2.8800039291e+01    9.9269199371e-01
    2.8900037766e+01    9.9739497900e-01
    2.9000066757e+01    1.0020920038e+00
    2.9100070953e+01    1.0067620277e+00
    2.9200029373e+01    1.0114150047e+00
    2.9300035477e+01    1.0160579681e+00
    2.9400074005e+01    1.0206719637e+00
    2.9500064850e+01    1.0252779722e+00
    2.9600063324e+01    1.0298559666e+00
    2.9700048447e+01    1.0344170332e+00
    2.9800052643e+01    1.0389670134e+00
    2.9900037766e+01    1.0434880257e+00
    3.0000030518e+01    1.0479879379e+00
    3.0100051880e+01    1.0584579706e+00
    3.0200067520e+01    1.0689100027e+00
    3.0300071716e+01    1.0793420076e+00
    3.0400043488e+01    1.0897580385e+00
    3.0500032425e+01    1.1001440287e+00
    3.0600063324e+01    1.1105329990e+00
    3.0700061798e+01    1.1208920479e+00
    3.0800043106e+01    1.1312329769e+00
    3.0900053024e+01    1.1415430307e+00
    3.1000055313e+01    1.1518290043e+00
    3.1100034714e+01    1.1620830297e+00
    3.1200080872e+01    1.1723319292e+00
    3.1300062180e+01    1.1825679541e+00
    3.1400072098e+01    1.1927930117e+00
    3.1500070572e+01    1.2030099630e+00
    3.1600053787e+01    1.2132059336e+00
    3.1700050354e+01    1.2234009504e+00
    3.1800060272e+01    1.2335799932e+00
    3.1900064468e+01    1.2437379360e+00
    3.2000026703e+01    1.2538700104e+00
    3.2100051880e+01    1.2639909983e+00
    3.2200065613e+01    1.2740869522e+00
    3.2300048828e+01    1.2841579914e+00
    3.2400024414e+01    1.2941939831e+00
    3.2500053406e+01    1.3042149544e+00
    3.2600021362e+01    1.3142139912e+00
    3.2700046539e+01    1.3241800070e+00
    3.2800056458e+01    1.3341180086e+00
    3.2900035858e+01    1.3440159559e+00
    3.3000053406e+01    1.3538908958e+00
    3.3100025177e+01    1.3637369871e+00
    3.3200035095e+01    1.3735499382e+00
    3.3300052643e+01    1.3833320141e+00
    3.3400028229e+01    1.3930789232e+00
    3.3500053406e+01    1.4028109312e+00
    3.3600013733e+01    1.4125239849e+00
    3.3700012207e+01    1.4222029448e+00
    3.3800052643e+01    1.4318809509e+00
    3.3900043488e+01    1.4415220022e+00
    3.4000041962e+01    1.4511508942e+00
    3.4100032806e+01    1.4607539177e+00
    3.4200038910e+01    1.4703279734e+00
    3.4300029755e+01    1.4798649549e+00
    3.4400024414e+01    1.4893820286e+00
    3.4500041962e+01    1.4988739491e+00
    3.4600028992e+01    1.5083379745e+00
    3.4700027466e+01    1.5177639723e+00
    3.4800022125e+01    1.5271729231e+00
    3.4900005341e+01    1.5365539789e+00
    3.4999980927e+01    1.5458959341e+00
    3.5100032806e+01    1.5552259684e+00
    3.5199989319e+01    1.5645059347e+00
    3.5299980164e+01    1.5737619400e+00
    3.5399993896e+01    1.5829849243e+00
    3.5499984741e+01    1.5921599865e+00
    3.5600017548e+01    1.6013129950e+00
    3.5699970245e+01    1.6104369164e+00
    3.5799976349e+01    1.6195179224e+00
    3.5899997711e+01    1.6285939217e+00
    3.5999988556e+01    1.6376218796e+00
    3.6100006104e+01    1.6466300488e+00
    3.6199993134e+01    1.6556109190e+00
    3.6299991608e+01    1.6645580530e+00
    3.6399982452e+01    1.6734629869e+00
    3.6499977112e+01    1.6823430061e+00
    3.6599960327e+01    1.6911839247e+00
    3.6699962616e+01    1.6999800205e+00
    3.6799980164e+01    1.7087489367e+00
    3.6900001526e+01    1.7174900770e+00
    3.7000003815e+01    1.7261779308e+00
    3.7099960327e+01    1.7348411083e+00
    3.7199996948e+01    1.7434639931e+00
    3.7299957275e+01    1.7520480156e+00
    3.7399974823e+01    1.7606039047e+00
    3.7499973297e+01    1.7691260576e+00
    3.7599990845e+01    1.7776138783e+00
    3.7699962616e+01    1.7860610485e+00
    3.7799957275e+01    1.7944869995e+00
    3.7899986267e+01    1.8028810024e+00
    3.7999946594e+01    1.8112368584e+00
    3.8099952698e+01    1.8195760250e+00
    3.8199977875e+01    1.8278908730e+00
    3.8299942017e+01    1.8361830711e+00
    3.8399940491e+01    1.8444479704e+00
    3.8499961853e+01    1.8526800871e+00
    3.8599952698e+01    1.8608689308e+00
    3.8699943542e+01    1.8690370321e+00
    3.8799926758e+01    1.8771688938e+00
    3.8899929047e+01    1.8852580786e+00
    3.8999965668e+01    1.8933320045e+00
    3.9099929810e+01    1.9013540745e+00
    3.9199947357e+01    1.9093528986e+00
    3.9299926758e+01    1.9173160791e+00
    3.9399963379e+01    1.9252388477e+00
    3.9499942780e+01    1.9331200123e+00
    3.9599914551e+01    1.9409768581e+00
    3.9699916840e+01    1.9487991333e+00
    3.9799957275e+01    1.9565819502e+00
    3.9899959564e+01    1.9643290043e+00
    3.9999923706e+01    1.9720299244e+00
    4.0099937439e+01    1.9874851704e+00
    4.0199920654e+01    2.0029180050e+00
    4.0299907684e+01    2.0183069706e+00
    4.0399902344e+01    2.0336639881e+00
    4.0499912262e+01    2.0489969254e+00
    4.0599941254e+01    2.0643000603e+00
    4.0699932098e+01    2.0795779228e+00
    4.0799915314e+01    2.0948021412e+00
    4.0899909973e+01    2.1099729538e+00
    4.0999912262e+01    2.1251130104e+00
    4.1099918365e+01    2.1402120590e+00
    4.1199924469e+01    2.1552710533e+00
    4.1299896240e+01    2.1703128815e+00
    4.1399898529e+01    2.1853179932e+00
    4.1499912262e+01    2.2003149986e+00
    4.1599884033e+01    2.2152781487e+00
    4.1699913025e+01    2.2302210331e+00
    4.1799896240e+01    2.2451260090e+00
    4.1899913788e+01    2.2599999905e+00
    4.1999908447e+01    2.2748429775e+00
    4.2099922180e+01    2.2896509171e+00
    4.2199886322e+01    2.3044090271e+00
    4.2299922943e+01    2.3191280365e+00
    4.2399871826e+01    2.3337991238e+00
    4.2499904633e+01    2.3484339714e+00
    4.2599872589e+01    2.3630189896e+00
    4.2699874878e+01    2.3775529861e+00
    4.2799869537e+01    2.3920478821e+00
    4.2899879456e+01    2.4064939022e+00
    4.2999862671e+01    2.4208750725e+00
    4.3099868774e+01    2.4352121353e+00
    4.3199905396e+01    2.4494919777e+00
    4.3299907684e+01    2.4637188911e+00
    4.3399898529e+01    2.4778900146e+00
    4.3499855042e+01    2.4920208454e+00
    4.3599872589e+01    2.5061149597e+00
    4.3699867249e+01    2.5201601982e+00
    4.3799896240e+01    2.5341749191e+00
    4.3899856567e+01    2.5481429100e+00
    4.3999885559e+01    2.5620760918e+00
    4.4099891663e+01    2.5759630203e+00
    4.4199867249e+01    2.5897917747e+00
    4.4299858093e+01    2.6035740376e+00
    4.4399879456e+01    2.6173131466e+00
    4.4499858856e+01    2.6310060024e+00
    4.4599876404e+01    2.6446499825e+00
    4.4699840546e+01    2.6582279205e+00
    4.4799873352e+01    2.6717848778e+00
    4.4899883270e+01    2.6852769852e+00
    4.4999877930e+01    2.6987299919e+00
    4.5099845886e+01    2.7121250629e+00
    4.5199844360e+01    2.7254610062e+00
    4.5299839020e+01    2.7387509346e+00
    4.5399822235e+01    2.7519750595e+00
    4.5499824524e+01    2.7651469707e+00
    4.5599822998e+01    2.7782540321e+00
    4.5699844360e+01    2.7913160324e+00
    4.5799823761e+01    2.8043279648e+00
    4.5899822235e+01    2.8172810078e+00
    4.5999855042e+01    2.8301939964e+00
    4.6099830627e+01    2.8430500031e+00
    4.6199844360e+01    2.8558640480e+00
    4.6299812317e+01    2.8686158657e+00
    4.6399829865e+01    2.8813180923e+00
    4.6499832153e+01    2.8939650059e+00
    4.6599807739e+01    2.9065420628e+00
    4.6699855804e+01    2.9190731049e+00
    4.6799850464e+01    2.9315319061e+00
    4.6899826050e+01    2.9439330101e+00
    4.6999835968e+01    2.9562828541e+00
    4.7099834442e+01    2.9685649872e+00
    4.7199813843e+01    2.9808001518e+00
    4.7299812317e+01    2.9929699898e+00
    4.7399799347e+01    3.0050897598e+00
    4.7499816895e+01    3.0171399117e+00
    4.7599807739e+01    3.0291500092e+00
    4.7699836731e+01    3.0411000252e+00
    4.7799804688e+01    3.0529899597e+00
    4.7899787903e+01    3.0648198128e+00
    4.7999805450e+01    3.0766201019e+00
    4.8099811554e+01    3.0883698463e+00
    4.8199802399e+01    3.1000800133e+00
    4.8299804688e+01    3.1117501259e+00
    4.8399799347e+01    3.1233599186e+00
    4.8499828339e+01    3.1349301338e+00
    4.8599803925e+01    3.1464397907e+00
    4.8699810028e+01    3.1578900814e+00
    4.8799808502e+01    3.1692996025e+00
    4.8899799347e+01    3.1806399822e+00
    4.8999794006e+01    3.1919403076e+00
    4.9099792480e+01    3.2031798363e+00
    4.9199817657e+01    3.2143702507e+00
    4.9299774170e+01    3.2254998684e+00
    4.9399799347e+01    3.2365698814e+00
    4.9499805450e+01    3.2475898266e+00
    4.9599765778e+01    3.2585399151e+00
    4.9699779510e+01    3.2694501877e+00
    4.9799777985e+01    3.2802798748e+00
    4.9899784088e+01    3.2910599709e+00
    4.9999759674e+01    3.3017797470e+00
    5.0099765778e+01    3.3220100403e+00
    5.0199790955e+01    3.3422300816e+00
    5.0299774170e+01    3.3623800278e+00
    5.0399799347e+01    3.3824799061e+00
    5.0499790192e+01    3.4025201797e+00
    5.0599781036e+01    3.4225101471e+00
    5.0699787140e+01    3.4424600601e+00
    5.0799785614e+01    3.4623298645e+00
    5.0899772644e+01    3.4821298122e+00
    5.0999782562e+01    3.5018601418e+00
    5.1099773407e+01    3.5215301514e+00
    5.1199760437e+01    3.5411400795e+00
    5.1299774170e+01    3.5607099533e+00
    5.1399742126e+01    3.5802202225e+00
    5.1499763489e+01    3.5997099876e+00
    5.1599750519e+01    3.6191399097e+00
    5.1699771881e+01    3.6385297775e+00
    5.1799739838e+01    3.6578602791e+00
    5.1899738312e+01    3.6771302223e+00
    5.1999740601e+01    3.6963500977e+00
    5.2099754333e+01    3.7155098915e+00
    5.2199748993e+01    3.7346096039e+00
    5.2299751282e+01    3.7536201477e+00
    5.2399753571e+01    3.7725801468e+00
    5.2499752045e+01    3.7914600372e+00
    5.2599731445e+01    3.8102798462e+00
    5.2699722290e+01    3.8290300369e+00
    5.2799758911e+01    3.8477001190e+00
    5.2899726868e+01    3.8662900925e+00
    5.2999736786e+01    3.8847999573e+00
    5.3099754333e+01    3.9032301903e+00
    5.3199714661e+01    3.9215700626e+00
    5.3299724579e+01    3.9398298264e+00
    5.3399726868e+01    3.9580197334e+00
    5.3499721527e+01    3.9761497974e+00
    5.3599708557e+01    3.9942002296e+00
    5.3699748993e+01    4.0121998787e+00
    5.3799709320e+01    4.0301098824e+00
    5.3899726868e+01    4.0479698181e+00
    5.3999721527e+01    4.0657701492e+00
    5.4099693298e+01    4.0834798813e+00
    5.4199707031e+01    4.1011300087e+00
    5.4299690247e+01    4.1187000275e+00
    5.4399692535e+01    4.1361999512e+00
    5.4499698639e+01    4.1536202431e+00
    5.4599689484e+01    4.1709599495e+00
    5.4699687958e+01    4.1882400513e+00
    5.4799682617e+01    4.2054300308e+00
    5.4899684906e+01    4.2225599289e+00
    5.4999702454e+01    4.2396202087e+00
    5.5099720001e+01    4.2565999031e+00
    5.5199710846e+01    4.2734899521e+00
    5.5299713135e+01    4.2903003693e+00
    5.5399700165e+01    4.3070201874e+00
    5.5499687195e+01    4.3236699104e+00
    5.5599689484e+01    4.3402199745e+00
    5.5699680328e+01    4.3566999435e+00
    5.5799705505e+01    4.3731098175e+00
    5.5899681091e+01    4.3894400597e+00
    5.5999660492e+01    4.4056897163e+00
    5.6099704742e+01    4.4218797684e+00
    5.6199672699e+01    4.4379701614e+00
    5.6299667358e+01    4.4539999962e+00
    5.6399673462e+01    4.4699497223e+00
    5.6499664307e+01    4.4857997894e+00
    5.6599678040e+01    4.5015702248e+00
    5.6699691772e+01    4.5172500610e+00
    5.6799652100e+01    4.5328397751e+00
    5.6899677277e+01    4.5483598709e+00
    5.6999671936e+01    4.5637803078e+00
    5.7099697113e+01    4.5791201591e+00
    5.7199676514e+01    4.5943799019e+00
    5.7299652100e+01    4.6095399857e+00
    5.7399658203e+01    4.6246395111e+00
    5.7499645233e+01    4.6396398544e+00
    5.7599658966e+01    4.6545600891e+00
    5.7699672699e+01    4.6694097519e+00
    5.7799648285e+01    4.6841697693e+00
    5.7899642944e+01    4.6988601685e+00
    5.7999679565e+01    4.7134699821e+00
    5.8099643707e+01    4.7280101776e+00
    5.8199649811e+01    4.7424998283e+00
    5.8299633026e+01    4.7569103241e+00
    5.8399639130e+01    4.7712497711e+00
    5.8499671936e+01    4.7855100632e+00
    5.8599662781e+01    4.7996897697e+00
    5.8699653625e+01    4.8137998581e+00
    5.8799621582e+01    4.8278102875e+00
    5.8899646759e+01    4.8417596817e+00
    5.8999633789e+01    4.8556199074e+00
    5.9099666595e+01    4.8694200516e+00
    5.9199634552e+01    4.8831100464e+00
    5.9299610138e+01    4.8967299461e+00
    5.9399658203e+01    4.9102697372e+00
    5.9499626160e+01    4.9237098694e+00
    5.9599647522e+01    4.9370803833e+00
    5.9699642181e+01    4.9503602982e+00
    5.9799633026e+01    4.9635696411e+00
    5.9899600983e+01    4.9766697884e+00
    5.9999641418e+01    4.9896898270e+00
    6.0099624634e+01    5.0138201714e+00
    6.0199611664e+01    5.0378999710e+00
    6.0299610138e+01    5.0618896484e+00
    6.0399639130e+01    5.0858201981e+00
    6.0499641418e+01    5.1096601486e+00
    6.0599597931e+01    5.1334099770e+00
    6.0699615479e+01    5.1570997238e+00
    6.0799621582e+01    5.1806802750e+00
    6.0899604797e+01    5.2041597366e+00
    6.0999618530e+01    5.2275500298e+00
    6.1099601746e+01    5.2508296967e+00
    6.1199615479e+01    5.2740502357e+00
    6.1299621582e+01    5.2971801758e+00
    6.1399589539e+01    5.3202404976e+00
    6.1499622345e+01    5.3432602882e+00
    6.1599594116e+01    5.3661794662e+00
    6.1699611664e+01    5.3890399933e+00
    6.1799571991e+01    5.4118204117e+00
    6.1899570465e+01    5.4345197678e+00
    6.1999580383e+01    5.4571304321e+00
    6.2099594116e+01    5.4796500206e+00
    6.2199600220e+01    5.5020804405e+00
    6.2299606323e+01    5.5244197845e+00
    6.2399574280e+01    5.5466403961e+00
    6.2499568939e+01    5.5687799454e+00
    6.2599597931e+01    5.5908303261e+00
    6.2699577332e+01    5.6127605438e+00
    6.2799564362e+01    5.6346001625e+00
    6.2899555206e+01    5.6563200951e+00
    6.2999576569e+01    5.6779303551e+00
    6.3099571228e+01    5.6994304657e+00
    6.3199584961e+01    5.7208194733e+00
    6.3299587250e+01    5.7420997620e+00
    6.3399547577e+01    5.7632598877e+00
    6.3499572754e+01    5.7843399048e+00
    6.3599555969e+01    5.8053197861e+00
    6.3699588776e+01    5.8262100220e+00
    6.3799549103e+01    5.8470106125e+00
    6.3899539948e+01    5.8677101135e+00
    6.3999588013e+01    5.8883304596e+00
    6.4099540710e+01    5.9088401794e+00
    6.4199569702e+01    5.9292497635e+00
    6.4299560547e+01    5.9495601654e+00
    6.4399559021e+01    5.9697504044e+00
    6.4499580383e+01    5.9898505211e+00
    6.4599548340e+01    6.0098295212e+00
    6.4699569702e+01    6.0297203064e+00
    6.4799568176e+01    6.0495195389e+00
    6.4899559021e+01    6.0692105293e+00
    6.4999549866e+01    6.0887904167e+00
    6.5099555969e+01    6.1082701683e+00
    6.5199554443e+01    6.1276397705e+00
    6.5299545288e+01    6.1469001770e+00
    6.5399528503e+01    6.1660299301e+00
    6.5499534607e+01    6.1850605011e+00
    6.5599548340e+01    6.2039794922e+00
    6.5699523926e+01    6.2227802277e+00
    6.5799530029e+01    6.2414803505e+00
    6.5899536133e+01    6.2600698471e+00
    6.5999542236e+01    6.2786293030e+00
    6.6099525452e+01    6.2969903946e+00
    6.6199531555e+01    6.3152303696e+00
    6.6299537659e+01    6.3334703445e+00
    6.6399520874e+01    6.3515100479e+00
    6.6499534607e+01    6.3695201874e+00
    6.6599533081e+01    6.3873100281e+00
    6.6699516296e+01    6.4050898552e+00
    6.6799514771e+01    6.4226598740e+00
    6.6899497986e+01    6.4401102066e+00
    6.6999519348e+01    6.4575405121e+00
    6.7099494934e+01    6.4747600555e+00
    6.7199516296e+01    6.4919600487e+00
    6.7299545288e+01    6.5089497566e+00
    6.7399536133e+01    6.5259199142e+00
    6.7499534607e+01    6.5426898003e+00
    6.7599494934e+01    6.5593504906e+00
    6.7699523926e+01    6.5759801865e+00
    6.7799491882e+01    6.5924201012e+00
    6.7899528503e+01    6.6088399887e+00
    6.7999496460e+01    6.6250700951e+00
    6.8099494934e+01    6.6413097382e+00
    6.8199531555e+01    6.6573395729e+00
    6.8299507141e+01    6.6733899117e+00
    6.8399497986e+01    6.6892395020e+00
    6.8499481201e+01    6.7049803734e+00
    6.8599517822e+01    6.7207002640e+00
    6.8699485779e+01    6.7362298965e+00
    6.8799491882e+01    6.7517299652e+00
    6.8899482727e+01    6.7670397758e+00
    6.8999511719e+01    6.7823200226e+00
    6.9099487305e+01    6.7974095345e+00
    6.9199485779e+01    6.8123903275e+00
    6.9299499512e+01    6.8273401260e+00
    6.9399482727e+01    6.8420901299e+00
    6.9499458313e+01    6.8568301201e+00
    6.9599494934e+01    6.8713397980e+00
    6.9699470520e+01    6.8858499527e+00
    6.9799484253e+01    6.9001398087e+00
    6.9899482727e+01    6.9144096375e+00
    6.9999481201e+01    6.9284605980e+00
    7.0099487305e+01    6.9535002708e+00
    7.0199455261e+01    6.9784398079e+00
    7.0299499512e+01    7.0033402443e+00
    7.0399452209e+01    7.0280699730e+00
    7.0499488831e+01    7.0527596474e+00
    7.0599441528e+01    7.0772705078e+00
    7.0699470520e+01    7.1017503738e+00
    7.0799446106e+01    7.1260199547e+00
    7.0899482727e+01    7.1502394676e+00
    7.0999481201e+01    7.1742501259e+00
    7.1099456787e+01    7.1981296539e+00
    7.1199447632e+01    7.2220096588e+00
    7.1299430847e+01    7.2456803322e+00
    7.1399467468e+01    7.2693300247e+00
    7.1499427795e+01    7.2928195000e+00
    7.1599456787e+01    7.3162803650e+00
    7.1699462891e+01    7.3395500183e+00
    7.1799430847e+01    7.3627295494e+00
    7.1899452209e+01    7.3858704567e+00
    7.1999465942e+01    7.4089002609e+00
    7.2099418640e+01    7.4317297935e+00
    7.2199432373e+01    7.4544301033e+00
    7.2299461365e+01    7.4770898819e+00
    7.2399459839e+01    7.4995398521e+00
    7.2499458313e+01    7.5219702721e+00
    7.2599411011e+01    7.5441899300e+00
    7.2699409485e+01    7.5662598610e+00
    7.2799415588e+01    7.5882906914e+00
    7.2899436951e+01    7.6101803780e+00
    7.2999443054e+01    7.6318397522e+00
    7.3099418640e+01    7.6533603668e+00
    7.3199409485e+01    7.6748404503e+00
    7.3299407959e+01    7.6960697174e+00
    7.3399421692e+01    7.7172694206e+00
    7.3499420166e+01    7.7382502556e+00
    7.3599449158e+01    7.7591900826e+00
    7.3699409485e+01    7.7799396515e+00
    7.3799430847e+01    7.8006405830e+00
    7.3899414062e+01    7.8211398125e+00
    7.3999435425e+01    7.8416099548e+00
    7.4099388123e+01    7.8618702888e+00
    7.4199432373e+01    7.8820600510e+00
    7.4299423218e+01    7.9020395279e+00
    7.4399414062e+01    7.9218802452e+00
    7.4499397278e+01    7.9416999817e+00
    7.4599395752e+01    7.9612798691e+00
    7.4699401855e+01    7.9808297157e+00
    7.4799407959e+01    8.0001602173e+00
    7.4899383545e+01    8.0193595886e+00
    7.4999374390e+01    8.0385398865e+00
    7.5099372864e+01    8.0574703217e+00
    7.5199401855e+01    8.0763597488e+00
    7.5299400330e+01    8.0950202942e+00
    7.5399368286e+01    8.1136398315e+00
    7.5499412537e+01    8.1319999695e+00
    7.5599403381e+01    8.1503391266e+00
    7.5699401855e+01    8.1684398651e+00
    7.5799392700e+01    8.1865100861e+00
    7.5899391174e+01    8.2043495178e+00
    7.5999374390e+01    8.2221698761e+00
    7.6099372864e+01    8.2397499084e+00
    7.6199371338e+01    8.2572002411e+00
    7.6299362183e+01    8.2746200562e+00
    7.6399375916e+01    8.2917900085e+00
    7.6499389648e+01    8.3089199066e+00
    7.6599357605e+01    8.3258209229e+00
    7.6699348450e+01    8.3426704407e+00
    7.6799377441e+01    8.3592596054e+00
    7.6899375916e+01    8.3758296967e+00
    7.6999374390e+01    8.3921499252e+00
    7.7099380493e+01    8.4084300995e+00
    7.7199340820e+01    8.4244899750e+00
    7.7299354553e+01    8.4403896332e+00
    7.7399383545e+01    8.4562397003e+00
    7.7499359131e+01    8.4718694687e+00
    7.7599380493e+01    8.4874401093e+00
    7.7699363708e+01    8.5027904510e+00
    7.7799369812e+01    8.5180997849e+00
    7.7899368286e+01    8.5331802368e+00
    7.7999328613e+01    8.5482501984e+00
    7.8099365234e+01    8.5630702972e+00
    7.8199363708e+01    8.5778789520e+00
    7.8299369812e+01    8.5924701691e+00
    7.8399345398e+01    8.6069507599e+00
    7.8499320984e+01    8.6214008331e+00
    7.8599342346e+01    8.6355895996e+00
    7.8699363708e+01    8.6497507095e+00
    7.8799362183e+01    8.6636791229e+00
    7.8899337769e+01    8.6775894165e+00
    7.8999343872e+01    8.6912498474e+00
    7.9099319458e+01    8.7048988342e+00
    7.9199348450e+01    8.7182903290e+00
    7.9299324036e+01    8.7316598892e+00
    7.9399360657e+01    8.7447700500e+00
    7.9499328613e+01    8.7577686310e+00
    7.9599342346e+01    8.7707109451e+00
    7.9699325562e+01    8.7834291458e+00
    7.9799316406e+01    8.7960996628e+00
    7.9899345398e+01    8.8085203171e+00
    7.9999305725e+01    8.8209199905e+00
    8.0099342346e+01    8.8447599411e+00
    8.0199333191e+01    8.8685693741e+00
    8.0299293518e+01    8.8922605515e+00
    8.0399330139e+01    8.9157905579e+00
    8.0499305725e+01    8.9392194748e+00
    8.0599334717e+01    8.9624891281e+00
    8.0699310303e+01    8.9856605530e+00
    8.0799316406e+01    9.0086603165e+00
    8.0899307251e+01    9.0315093994e+00
    8.0999328613e+01    9.0542011261e+00
    8.1099319458e+01    9.0767498016e+00
    8.1199317932e+01    9.0991697311e+00
    8.1299308777e+01    9.1214714050e+00
    8.1399307251e+01    9.1436405182e+00
    8.1499328613e+01    9.1656894684e+00
    8.1599304199e+01    9.1875305176e+00
    8.1699287415e+01    9.2093591690e+00
    8.1799285889e+01    9.2310304642e+00
    8.1899276733e+01    9.2525806427e+00
    8.1999313354e+01    9.2739696503e+00
    8.2099304199e+01    9.2952489853e+00
    8.2199279785e+01    9.3163805008e+00
    8.2299285889e+01    9.3373603821e+00
    8.2399307251e+01    9.3581790924e+00
    8.2499305725e+01    9.3788709641e+00
    8.2599281311e+01    9.3994302750e+00
    8.2699295044e+01    9.4198093414e+00
    8.2799285889e+01    9.4400396347e+00
    8.2899284363e+01    9.4601106644e+00
    8.2999282837e+01    9.4800195694e+00
    8.3099266052e+01    9.4997692108e+00
    8.3199256897e+01    9.5193605423e+00
    8.3299255371e+01    9.5387802124e+00
    8.3399284363e+01    9.5580301285e+00
    8.3499290466e+01    9.5771493912e+00
    8.3599258423e+01    9.5961408615e+00
    8.3699249268e+01    9.6149797440e+00
    8.3799255371e+01    9.6336793900e+00
    8.3899253845e+01    9.6522407532e+00
    8.3999267578e+01    9.6706399918e+00
    8.4099250793e+01    9.6889200211e+00
    8.4199279785e+01    9.7070188522e+00
    8.4299278259e+01    9.7249803543e+00
    8.4399246216e+01    9.7427005768e+00
    8.4499252319e+01    9.7602996826e+00
    8.4599258423e+01    9.7777996063e+00
    8.4699241638e+01    9.7951993942e+00
    8.4799263000e+01    9.8124008179e+00
    8.4899230957e+01    9.8295001984e+00
    8.4999267578e+01    9.8463993073e+00
    8.5099235535e+01    9.8631010056e+00
    8.5199218750e+01    9.8796997070e+00
    8.5299270630e+01    9.8961992264e+00
    8.5399238586e+01    9.9124011993e+00
    8.5499221802e+01    9.9286003113e+00
    8.5599266052e+01    9.9444999695e+00
    8.5699218750e+01    9.9602994919e+00
    8.5799255371e+01    9.9760007858e+00
    8.5899230957e+01    9.9914999008e+00
    8.5999252319e+01    1.0006799698e+01
    8.6099250793e+01    1.0022001266e+01
    8.6199241638e+01    1.0037099838e+01
    8.6299201965e+01    1.0052000046e+01
    8.6399223328e+01    1.0066699028e+01
    8.6499237061e+01    1.0081300735e+01
    8.6599212646e+01    1.0095800400e+01
    8.6699195862e+01    1.0109999657e+01
    8.6799232483e+01    1.0124100685e+01
    8.6899223328e+01    1.0138000488e+01
    8.6999206543e+01    1.0151800156e+01
    8.7099243164e+01    1.0165399551e+01
    8.7199203491e+01    1.0178900719e+01
    8.7299224854e+01    1.0192199707e+01
    8.7399185181e+01    1.0205300331e+01
    8.7499229431e+01    1.0218300819e+01
    8.7599227905e+01    1.0231200218e+01
    8.7699218750e+01    1.0243799210e+01
    8.7799224854e+01    1.0256399155e+01
    8.7899185181e+01    1.0268699646e+01
    8.7999221802e+01    1.0280900955e+01
    8.8099212646e+01    1.0293000221e+01
    8.8199195862e+01    1.0304999352e+01
    8.8299171448e+01    1.0316799164e+01
    8.8399208069e+01    1.0328500748e+01
    8.8499183655e+01    1.0340000153e+01
    8.8599166870e+01    1.0351399422e+01
    8.8699211121e+01    1.0362600327e+01
    8.8799171448e+01    1.0373700142e+01
    8.8899185181e+01    1.0384699821e+01
    8.8999160767e+01    1.0395501137e+01
    8.9099159241e+01    1.0406100273e+01
    8.9199157715e+01    1.0416600227e+01
    8.9299163818e+01    1.0426898956e+01
    8.9399192810e+01    1.0437100410e+01
    8.9499198914e+01    1.0447099686e+01
    8.9599166870e+01    1.0456999779e+01
    8.9699180603e+01    1.0466800690e+01
    8.9799156189e+01    1.0476400375e+01
    8.9899185181e+01    1.0485699654e+01
    8.9999168396e+01    1.0494998932e+01
    9.0099151611e+01    1.0518499374e+01
    9.0199172974e+01    1.0541999817e+01
    9.0299179077e+01    1.0565400124e+01
    9.0399139404e+01    1.0588599205e+01
    9.0499183655e+01    1.0611600876e+01
    9.0599143982e+01    1.0634499550e+01
    9.0699142456e+01    1.0657299995e+01
    9.0799156189e+01    1.0679901123e+01
    9.0899139404e+01    1.0702300072e+01
    9.0999168396e+01    1.0724599838e+01
    9.1099174500e+01    1.0746699333e+01
    9.1199127197e+01    1.0768600464e+01
    9.1299171448e+01    1.0790500641e+01
    9.1399139404e+01    1.0812199593e+01
    9.1499168396e+01    1.0833799362e+01
    9.1599166870e+01    1.0855200768e+01
    9.1699142456e+01    1.0876500130e+01
    9.1799125671e+01    1.0897601128e+01
    9.1899154663e+01    1.0918699265e+01
    9.1999153137e+01    1.0939499855e+01
    9.2099143982e+01    1.0960400581e+01
    9.2199119568e+01    1.0980899811e+01
    9.2299148560e+01    1.1001300812e+01
    9.2399139404e+01    1.1021600723e+01
    9.2499153137e+01    1.1041600227e+01
    9.2599121094e+01    1.1061500549e+01
    9.2699157715e+01    1.1081298828e+01
    9.2799110413e+01    1.1100900650e+01
    9.2899139404e+01    1.1120299339e+01
    9.2999130249e+01    1.1139599800e+01
    9.3099121094e+01    1.1158600807e+01
    9.3199134827e+01    1.1177399635e+01
    9.3299125671e+01    1.1196199417e+01
    9.3399093628e+01    1.1214700699e+01
    9.3499107361e+01    1.1233099937e+01
    9.3599113464e+01    1.1251299858e+01
    9.3699134827e+01    1.1269399643e+01
    9.3799087524e+01    1.1287300110e+01
    9.3899116516e+01    1.1305100441e+01
    9.3999114990e+01    1.1322699547e+01
    9.4099082947e+01    1.1340100288e+01
    9.4199111938e+01    1.1357501030e+01
    9.4299102783e+01    1.1374500275e+01
    9.4399124146e+01    1.1391499519e+01
    9.4499122620e+01    1.1408299446e+01
    9.4599075317e+01    1.1424900055e+01
    9.4699111938e+01    1.1441299438e+01
    9.4799095154e+01    1.1457699776e+01
    9.4899108887e+01    1.1473800659e+01
    9.4999092102e+01    1.1489799500e+01
    9.5099082947e+01    1.1505700111e+01
    9.5199111938e+01    1.1521299362e+01
    9.5299110413e+01    1.1536699295e+01
    9.5399093628e+01    1.1552101135e+01
    9.5499084473e+01    1.1567199707e+01
    9.5599067688e+01    1.1582099915e+01
    9.5699066162e+01    1.1596900940e+01
    9.5799087524e+01    1.1611499786e+01
    9.5899055481e+01    1.1625900269e+01
    9.5999053955e+01    1.1640199661e+01
    9.6099098206e+01    1.1654399872e+01
    9.6199073792e+01    1.1668298721e+01
    9.6299064636e+01    1.1682199478e+01
    9.6399047852e+01    1.1695800781e+01
    9.6499092102e+01    1.1709300995e+01
    9.6599067688e+01    1.1722599030e+01
    9.6699096680e+01    1.1735601425e+01
    9.6799072266e+01    1.1748498917e+01
    9.6899040222e+01    1.1761400223e+01
    9.6999069214e+01    1.1773899078e+01
    9.7099060059e+01    1.1786300659e+01
    9.7199050903e+01    1.1798601151e+01
    9.7299049377e+01    1.1810600281e+01
    9.7399040222e+01    1.1822500229e+01
    9.7499069214e+01    1.1834300995e+01
    9.7599044800e+01    1.1845800400e+01
    9.7699035645e+01    1.1857200623e+01
    9.7799072266e+01    1.1868499756e+01
    9.7899047852e+01    1.1879499435e+01
    9.7999061584e+01    1.1890501022e+01
    9.8099075317e+01    1.1901298523e+01
    9.8199073792e+01    1.1911899567e+01
    9.8299034119e+01    1.1922399521e+01
    9.8399024963e+01    1.1932800293e+01
    9.8499023438e+01    1.1943000793e+01
    9.8599014282e+01    1.1952999115e+01
    9.8699043274e+01    1.1962900162e+01
    9.8799011230e+01    1.1972599030e+01
    9.8899017334e+01    1.1982099533e+01
    9.8999015808e+01    1.1991600037e+01
    9.9099052429e+01    1.2000799179e+01
    9.9199012756e+01    1.2009799957e+01
    9.9299049377e+01    1.2018800735e+01
    9.9399002075e+01    1.2027500153e+01
    9.9499053955e+01    1.2036199570e+01
    9.9599021912e+01    1.2044599533e+01
    9.9699043274e+01    1.2052801132e+01
    9.9799018860e+01    1.2060899734e+01
    9.9899032593e+01    1.2068899155e+01
    9.9999023438e+01    1.2076601028e+01
    1.0009902954e+02    1.2101699829e+01
    1.0019899750e+02    1.2126800537e+01
    1.0029901123e+02    1.2151599884e+01
    1.0039903259e+02    1.2176399231e+01
    1.0049900055e+02    1.2201000214e+01
    1.0059899139e+02    1.2225399017e+01
    1.0069902802e+02    1.2249698639e+01
    1.0079902649e+02    1.2273900986e+01
    1.0089900208e+02    1.2297698975e+01
    1.0099900818e+02    1.2321500778e+01
    1.0109902191e+02    1.2345098495e+01
    1.0119898224e+02    1.2368501663e+01
    1.0129901123e+02    1.2391899109e+01
    1.0139897919e+02    1.2415100098e+01
    1.0149900055e+02    1.2438098907e+01
    1.0159899902e+02    1.2460901260e+01
    1.0169902039e+02    1.2483798981e+01
    1.0179900360e+02    1.2506401062e+01
    1.0189897156e+02    1.2528898239e+01
    1.0199900818e+02    1.2551099777e+01
    1.0209900665e+02    1.2573402405e+01
    1.0219898224e+02    1.2595399857e+01
    1.0229900360e+02    1.2617198944e+01
    1.0239900208e+02    1.2638799667e+01
    1.0249894714e+02    1.2660299301e+01
    1.0259899139e+02    1.2681699753e+01
    1.0269898987e+02    1.2702802658e+01
    1.0279900360e+02    1.2723699570e+01
    1.0289897919e+02    1.2744497299e+01
    1.0299897766e+02    1.2765098572e+01
    1.0309893799e+02    1.2785501480e+01
    1.0319896698e+02    1.2805599213e+01
    1.0329898071e+02    1.2825601578e+01
    1.0339898682e+02    1.2845499039e+01
    1.0349894714e+02    1.2865201950e+01
    1.0359893799e+02    1.2884599686e+01
    1.0369895172e+02    1.2903902054e+01
    1.0379898071e+02    1.2923198700e+01
    1.0389894104e+02    1.2942201614e+01
    1.0399894714e+02    1.2960998535e+01
    1.0409895325e+02    1.2979701996e+01
    1.0419898224e+02    1.2998298645e+01
    1.0429895782e+02    1.3016599655e+01
    1.0439893341e+02    1.3034799576e+01
    1.0449893951e+02    1.3052700043e+01
    1.0459896088e+02    1.3070598602e+01
    1.0469893646e+02    1.3088199615e+01
    1.0479891968e+02    1.3105697632e+01
    1.0489893341e+02    1.3123001099e+01
    1.0499897003e+02    1.3140201569e+01
    1.0509896851e+02    1.3157100677e+01
    1.0519892120e+02    1.3173902512e+01
    1.0529895782e+02    1.3190399170e+01
    1.0539893341e+02    1.3206798553e+01
    1.0549891663e+02    1.3222999573e+01
    1.0559893036e+02    1.3239101410e+01
    1.0569895172e+02    1.3254899979e+01
    1.0579892731e+02    1.3270601273e+01
    1.0589893341e+02    1.3286199570e+01
    1.0599893188e+02    1.3301500320e+01
    1.0609892273e+02    1.3316699982e+01
    1.0619892883e+02    1.3331701279e+01
    1.0629894257e+02    1.3346599579e+01
    1.0639891815e+02    1.3361200333e+01
    1.0649893951e+02    1.3375699997e+01
    1.0659892273e+02    1.3390001297e+01
    1.0669892120e+02    1.3403999329e+01
    1.0679889679e+02    1.3418001175e+01
    1.0689891815e+02    1.3431699753e+01
    1.0699889374e+02    1.3445199966e+01
    1.0709890747e+02    1.3458599091e+01
    1.0719891357e+02    1.3471799850e+01
    1.0729888153e+02    1.3484798431e+01
    1.0739890289e+02    1.3497600555e+01
    1.0749890137e+02    1.3510198593e+01
    1.0759889984e+02    1.3522699356e+01
    1.0769889069e+02    1.3534997940e+01
    1.0779891205e+02    1.3547100067e+01
    1.0789887238e+02    1.3559099197e+01
    1.0799889374e+02    1.3570899963e+01
    1.0809887695e+02    1.3582601547e+01
    1.0819888306e+02    1.3594099045e+01
    1.0829888916e+02    1.3605398178e+01
    1.0839885712e+02    1.3616600037e+01
    1.0849890900e+02    1.3627700806e+01
    1.0859886932e+02    1.3638599396e+01
    1.0869889069e+02    1.3649301529e+01
    1.0879888153e+02    1.3659900665e+01
    1.0889891052e+02    1.3670301437e+01
    1.0899886322e+02    1.3680599213e+01
    1.0909886169e+02    1.3690601349e+01
    1.0919888306e+02    1.3700500488e+01
    1.0929886627e+02    1.3710300446e+01
    1.0939888000e+02    1.3719898224e+01
    1.0949886322e+02    1.3729200363e+01
    1.0959884644e+02    1.3738498688e+01
    1.0969889069e+02    1.3747600555e+01
    1.0979888916e+02    1.3756399155e+01
    1.0989888763e+02    1.3765100479e+01
    1.0999887085e+02    1.3773698807e+01
    1.1009889221e+02    1.3803199768e+01
    1.1019885254e+02    1.3832901001e+01
    1.1029885864e+02    1.3862300873e+01
    1.1039884949e+02    1.3891599655e+01
    1.1049887848e+02    1.3920701981e+01
    1.1059884644e+02    1.3949699402e+01
    1.1069886017e+02    1.3978498459e+01
    1.1079885101e+02    1.4007101059e+01
    1.1089884186e+02    1.4035600662e+01
    1.1099884033e+02    1.4063798904e+01
    1.1109886169e+02    1.4092000961e+01
    1.1119882965e+02    1.4119800568e+01
    1.1129882050e+02    1.4147598267e+01
    1.1139884186e+02    1.4175300598e+01
    1.1149884796e+02    1.4202898026e+01
    1.1159883118e+02    1.4230300903e+01
    1.1169885254e+02    1.4257499695e+01
    1.1179886627e+02    1.4284599304e+01
    1.1189882660e+02    1.4311601639e+01
    1.1199881744e+02    1.4338399887e+01
    1.1209880829e+02    1.4364997864e+01
    1.1219880676e+02    1.4391500473e+01
    1.1229885101e+02    1.4417699814e+01
    1.1239884186e+02    1.4443798065e+01
    1.1249880219e+02    1.4469800949e+01
    1.1259883881e+02    1.4495498657e+01
    1.1269882965e+02    1.4520998001e+01
    1.1279884338e+02    1.4546400070e+01
    1.1289881134e+02    1.4571599960e+01
    1.1299884033e+02    1.4596601486e+01
    1.1309880829e+02    1.4621200562e+01
    1.1319882202e+02    1.4645799637e+01
    1.1329878998e+02    1.4670101166e+01
    1.1339878845e+02    1.4694299698e+01
    1.1349884033e+02    1.4718297958e+01
    1.1359879303e+02    1.4742101669e+01
    1.1369882202e+02    1.4765798569e+01
    1.1379881287e+02    1.4789201736e+01
    1.1389880371e+02    1.4812601089e+01
    1.1399880219e+02    1.4835699081e+01
    1.1409879303e+02    1.4858701706e+01
    1.1419882965e+02    1.4881401062e+01
    1.1429879761e+02    1.4904098511e+01
    1.1439880371e+02    1.4926502228e+01
    1.1449880981e+02    1.4948699951e+01
    1.1459877777e+02    1.4970798492e+01
    1.1469877625e+02    1.4992601395e+01
    1.1479879761e+02    1.5014299393e+01
    1.1489877319e+02    1.5035898209e+01
    1.1499877167e+02    1.5057201385e+01
    1.1509879303e+02    1.5078300476e+01
    1.1519876099e+02    1.5099298477e+01
    1.1529878998e+02    1.5120000839e+01
    1.1539875793e+02    1.5140598297e+01
    1.1549878693e+02    1.5160999298e+01
    1.1559877014e+02    1.5181098938e+01
    1.1569879913e+02    1.5201198578e+01
    1.1579876709e+02    1.5220901489e+01
    1.1589878082e+02    1.5240600586e+01
    1.1599878693e+02    1.5259998322e+01
    1.1609876251e+02    1.5279201508e+01
    1.1619876862e+02    1.5298400879e+01
    1.1629878235e+02    1.5317298889e+01
    1.1639877319e+02    1.5336101532e+01
    1.1649877167e+02    1.5354598999e+01
    1.1659876251e+02    1.5372901917e+01
    1.1669873810e+02    1.5391101837e+01
    1.1679875183e+02    1.5409000397e+01
    1.1689875793e+02    1.5426700592e+01
    1.1699874878e+02    1.5444198608e+01
    1.1709877777e+02    1.5461498260e+01
    1.1719873047e+02    1.5478702545e+01
    1.1729876709e+02    1.5495700836e+01
    1.1739875031e+02    1.5512397766e+01
    1.1749877167e+02    1.5529102325e+01
    1.1759873199e+02    1.5545398712e+01
    1.1769876099e+02    1.5561599731e+01
    1.1779875183e+02    1.5577800751e+01
    1.1789875793e+02    1.5593597412e+01
    1.1799873352e+02    1.5609298706e+01
    1.1809876251e+02    1.5624900818e+01
    1.1819875336e+02    1.5640296936e+01
    1.1829872894e+02    1.5655601501e+01
    1.1839875031e+02    1.5670700073e+01
    1.1849875641e+02    1.5685699463e+01
    1.1859874725e+02    1.5700401306e+01
    1.1869872284e+02    1.5715099335e+01
    1.1879873657e+02    1.5729499817e+01
    1.1889871979e+02    1.5743701935e+01
    1.1899871063e+02    1.5757801056e+01
    1.1909873199e+02    1.5771697998e+01
    1.1919870758e+02    1.5785400391e+01
    1.1929871368e+02    1.5798999786e+01
    1.1939875031e+02    1.5812301636e+01
    1.1949871063e+02    1.5825500488e+01
    1.1959871674e+02    1.5838600159e+01
    1.1969869232e+02    1.5851402283e+01
    1.1979871368e+02    1.5864101410e+01
    1.1989874268e+02    1.5876598358e+01
    1.1999874115e+02    1.5888900757e+01
    1.2009868622e+02    1.5924201965e+01
    1.2019869232e+02    1.5959800720e+01
    1.2029868317e+02    1.5995101929e+01
    1.2039869690e+02    1.6030300140e+01
    1.2049871063e+02    1.6065299988e+01
    1.2059870148e+02    1.6100196838e+01
    1.2069872284e+02    1.6134899139e+01
    1.2079869080e+02    1.6169300079e+01
    1.2089871216e+02    1.6203598022e+01
    1.2099870300e+02    1.6237800598e+01
    1.2109870911e+02    1.6271900177e+01
    1.2119867706e+02    1.6305801392e+01
    1.2129868317e+02    1.6339599609e+01
    1.2139865875e+02    1.6373397827e+01
    1.2149868011e+02    1.6407100677e+01
    1.2159867096e+02    1.6440799713e+01
    1.2169869232e+02    1.6474399567e+01
    1.2179866791e+02    1.6507999420e+01
    1.2189868164e+02    1.6541400909e+01
    1.2199868011e+02    1.6574501038e+01
    1.2209867859e+02    1.6607700348e+01
    1.2219869995e+02    1.6640602112e+01
    1.2229868317e+02    1.6673400879e+01
    1.2239865875e+02    1.6705898285e+01
    1.2249867249e+02    1.6738399506e+01
    1.2259866333e+02    1.6770599365e+01
    1.2269864655e+02    1.6802501678e+01
    1.2279865265e+02    1.6834300995e+01
    1.2289865875e+02    1.6865798950e+01
    1.2299868774e+02    1.6897201538e+01
    1.2309866333e+02    1.6928199768e+01
    1.2319866943e+02    1.6959102631e+01
    1.2329866791e+02    1.6989799500e+01
    1.2339865112e+02    1.7020298004e+01
    1.2349868774e+02    1.7050498962e+01
    1.2359864044e+02    1.7080600739e+01
    1.2369863892e+02    1.7110599518e+01
    1.2379862976e+02    1.7140300751e+01
    1.2389866638e+02    1.7170101166e+01
    1.2399867249e+02    1.7199600220e+01
    1.2409864807e+02    1.7228900909e+01
    1.2419863892e+02    1.7258102417e+01
    1.2429863739e+02    1.7286998749e+01
    1.2439864349e+02    1.7315898895e+01
    1.2449864960e+02    1.7344600677e+01
    1.2459866333e+02    1.7373199463e+01
    1.2469866180e+02    1.7401699066e+01
    1.2479860687e+02    1.7430000305e+01
    1.2489864349e+02    1.7458099365e+01
    1.2499861908e+02    1.7486202240e+01
    1.2509860992e+02    1.7514198303e+01
    1.2519863129e+02    1.7541999817e+01
    1.2529863739e+02    1.7569797516e+01
    1.2539864349e+02    1.7597499847e+01
    1.2549861145e+02    1.7625000000e+01
    1.2559861755e+02    1.7652500153e+01
    1.2569860840e+02    1.7680000305e+01
    1.2579863739e+02    1.7707302094e+01
    1.2589859772e+02    1.7734600067e+01
    1.2599859619e+02    1.7762001038e+01
    1.2609860229e+02    1.7789302826e+01
    1.2619863129e+02    1.7816497803e+01
    1.2629859161e+02    1.7843597412e+01
    1.2639859772e+02    1.7870800018e+01
    1.2649858856e+02    1.7897899628e+01
    1.2659860229e+02    1.7924800873e+01
    1.2669857788e+02    1.7951702118e+01
    1.2679862976e+02    1.7978401184e+01
    1.2689858246e+02    1.8004997253e+01
    1.2699862671e+02    1.8031600952e+01
    1.2709860992e+02    1.8057998657e+01
    1.2719857788e+02    1.8084297180e+01
    1.2729859161e+02    1.8110397339e+01
    1.2739859009e+02    1.8136299133e+01
    1.2749858856e+02    1.8162200928e+01
    1.2759860992e+02    1.8187900543e+01
    1.2769857025e+02    1.8213401794e+01
    1.2779862213e+02    1.8238899231e+01
    1.2789858246e+02    1.8264198303e+01
    1.2799859619e+02    1.8289398193e+01
    1.2809858704e+02    1.8314498901e+01
    1.2819859314e+02    1.8339603424e+01
    1.2829858398e+02    1.8364601135e+01
    1.2839860535e+02    1.8389503479e+01
    1.2849859619e+02    1.8414501190e+01
    1.2859858704e+02    1.8439395905e+01
    1.2869862366e+02    1.8464199066e+01
    1.2879862976e+02    1.8489097595e+01
    1.2889865112e+02    1.8513900757e+01
    1.2899861145e+02    1.8538597107e+01
    1.2909866333e+02    1.8563301086e+01
    1.2919865417e+02    1.8587997437e+01
    1.2929866028e+02    1.8612602234e+01
    1.2939866638e+02    1.8637199402e+01
    1.2949868774e+02    1.8661701202e+01
    1.2959864807e+02    1.8686100006e+01
    1.2969868469e+02    1.8710601807e+01
    1.2979867554e+02    1.8735000610e+01
    1.2989869690e+02    1.8759498596e+01
    1.2999870300e+02    1.8783901215e+01
    1.3009872437e+02    1.8833698273e+01
    1.3019871521e+02    1.8883796692e+01
    1.3029873657e+02    1.8933898926e+01
    1.3039871216e+02    1.8984096527e+01
    1.3049873352e+02    1.9034297943e+01
    1.3059875488e+02    1.9084499359e+01
    1.3069874573e+02    1.9134700775e+01
    1.3079876709e+02    1.9184799194e+01
    1.3089877319e+02    1.9235000610e+01
    1.3099873352e+02    1.9284900665e+01
    1.3109875488e+02    1.9335002899e+01
    1.3119879150e+02    1.9385002136e+01
    1.3129879761e+02    1.9435001373e+01
    1.3139877319e+02    1.9484901428e+01
    1.3149879456e+02    1.9535003662e+01
    1.3159877014e+02    1.9584896088e+01
    1.3169879150e+02    1.9634998322e+01
    1.3179881287e+02    1.9684997559e+01
    1.3189883423e+02    1.9734897614e+01
    1.3199879456e+02    1.9784698486e+01
    1.3209880066e+02    1.9834499359e+01
    1.3219883728e+02    1.9884300232e+01
    1.3229884338e+02    1.9933898926e+01
    1.3239886475e+02    1.9983600616e+01
    1.3249885559e+02    2.0033100128e+01
    1.3259884644e+02    2.0082500458e+01
    1.3269886780e+02    2.0131801605e+01
    1.3279887390e+02    2.0181003571e+01
    1.3289889526e+02    2.0230300903e+01
    1.3299887085e+02    2.0279403687e+01
    1.3309886169e+02    2.0328304291e+01
    1.3319886780e+02    2.0377304077e+01
    1.3329891968e+02    2.0426204681e+01
    1.3339888000e+02    2.0474998474e+01
    1.3349891663e+02    2.0523796082e+01
    1.3359889221e+02    2.0572498322e+01
    1.3369892883e+02    2.0621196747e+01
    1.3379895020e+02    2.0669898987e+01
    1.3389889526e+02    2.0718601227e+01
    1.3399891663e+02    2.0767200470e+01
    1.3409895325e+02    2.0815898895e+01
    1.3419894409e+02    2.0864601135e+01
    1.3429893494e+02    2.0913200378e+01
    1.3439897156e+02    2.0961902618e+01
    1.3449896240e+02    2.1010501862e+01
    1.3459898376e+02    2.1059204102e+01
    1.3469897461e+02    2.1107803345e+01
    1.3479896545e+02    2.1156402588e+01
    1.3489900208e+02    2.1205001831e+01
    1.3499899292e+02    2.1253597260e+01
    1.3509898376e+02    2.1302097321e+01
    1.3519903564e+02    2.1350597382e+01
    1.3529902649e+02    2.1398998260e+01
    1.3539900208e+02    2.1447299957e+01
    1.3549900818e+02    2.1495697021e+01
    1.3559902954e+02    2.1543899536e+01
    1.3569906616e+02    2.1592197418e+01
    1.3579904175e+02    2.1640300751e+01
    1.3589903259e+02    2.1688400269e+01
    1.3599902344e+02    2.1736602783e+01
    1.3609906006e+02    2.1784603119e+01
    1.3619906616e+02    2.1832603455e+01
    1.3629907227e+02    2.1880504608e+01
    1.3639907837e+02    2.1928501129e+01
    1.3649908447e+02    2.1976303101e+01
    1.3659910583e+02    2.2023895264e+01
    1.3669911194e+02    2.2071598053e+01
    1.3679910278e+02    2.2119197845e+01
    1.3689913940e+02    2.2166599274e+01
    1.3699909973e+02    2.2213897705e+01
    1.3709910583e+02    2.2261199951e+01
    1.3719914246e+02    2.2308399200e+01
    1.3729911804e+02    2.2355400085e+01
    1.3739913940e+02    2.2402500153e+01
    1.3749914551e+02    2.2449401855e+01
    1.3759915161e+02    2.2496299744e+01
    1.3769914246e+02    2.2543102264e+01
    1.3779916382e+02    2.2589801788e+01
    1.3789916992e+02    2.2636600494e+01
    1.3799919128e+02    2.2683303833e+01
    1.3809918213e+02    2.2730003357e+01
    1.3819920349e+02    2.2776702881e+01
    1.3829920959e+02    2.2823295593e+01
    1.3839918518e+02    2.2869895935e+01
    1.3849920654e+02    2.2916397095e+01
    1.3859921265e+02    2.2962898254e+01
    1.3869923401e+02    2.3009498596e+01
    1.3879925537e+02    2.3055900574e+01
    1.3889923096e+02    2.3102298737e+01
    1.3899923706e+02    2.3148601532e+01
    1.3909922791e+02    2.3194900513e+01
    1.3919926453e+02    2.3241199493e+01
    1.3929924011e+02    2.3287300110e+01
    1.3939926147e+02    2.3333499908e+01
    1.3949928284e+02    2.3379600525e+01
    1.3959925842e+02    2.3425601959e+01
    1.3969927979e+02    2.3471504211e+01
    1.3979927063e+02    2.3517395020e+01
    1.3989929199e+02    2.3563198090e+01
    1.3999929810e+02    2.3608798981e+01
    1.4009931946e+02    2.3679100037e+01
    1.4019932556e+02    2.3749496460e+01
    1.4029933167e+02    2.3819896698e+01
    1.4039932251e+02    2.3890102386e+01
    1.4049931335e+02    2.3960296631e+01
    1.4059933472e+02    2.4030300140e+01
    1.4069937134e+02    2.4100402832e+01
    1.4079934692e+02    2.4170295715e+01
    1.4089938354e+02    2.4240100861e+01
    1.4099935913e+02    2.4309703827e+01
    1.4109938049e+02    2.4379299164e+01
    1.4119938660e+02    2.4448699951e+01
    1.4129939270e+02    2.4518203735e+01
    1.4139935303e+02    2.4587398529e+01
    1.4149938965e+02    2.4656700134e+01
    1.4159939575e+02    2.4725894928e+01
    1.4169938660e+02    2.4794998169e+01
    1.4179939270e+02    2.4864200592e+01
    1.4189942932e+02    2.4933296204e+01
    1.4199942017e+02    2.5002201080e+01
    1.4209945679e+02    2.5071201324e+01
    1.4219946289e+02    2.5139896393e+01
    1.4229945374e+02    2.5208499908e+01
    1.4239944458e+02    2.5277004242e+01
    1.4249945068e+02    2.5345298767e+01
    1.4259944153e+02    2.5413501740e+01
    1.4269946289e+02    2.5481601715e+01
    1.4279948425e+02    2.5549297333e+01
    1.4289950562e+02    2.5617000580e+01
    1.4299948120e+02    2.5684505463e+01
    1.4309950256e+02    2.5751598358e+01
    1.4319952393e+02    2.5818702698e+01
    1.4329948425e+02    2.5885498047e+01
    1.4339950562e+02    2.5952201843e+01
    1.4349952698e+02    2.6018798828e+01
    1.4359951782e+02    2.6085098267e+01
    1.4369955444e+02    2.6151397705e+01
    1.4379951477e+02    2.6217399597e+01
    1.4389956665e+02    2.6283294678e+01
    1.4399957275e+02    2.6349098206e+01
    1.4409956360e+02    2.6414703369e+01
    1.4419955444e+02    2.6480094910e+01
    1.4429954529e+02    2.6545303345e+01
    1.4439958191e+02    2.6610198975e+01
    1.4449957275e+02    2.6675102234e+01
    1.4459960938e+02    2.6739799500e+01
    1.4469956970e+02    2.6804298401e+01
    1.4479959106e+02    2.6868499756e+01
    1.4489961243e+02    2.6932701111e+01
    1.4499963379e+02    2.6996696472e+01
    1.4509960938e+02    2.7060302734e+01
    1.4519964600e+02    2.7123901367e+01
    1.4529963684e+02    2.7187194824e+01
    1.4539962769e+02    2.7250297546e+01
    1.4549961853e+02    2.7313201904e+01
    1.4559965515e+02    2.7375999451e+01
    1.4569961548e+02    2.7438598633e+01
    1.4579963684e+02    2.7500900269e+01
    1.4589964294e+02    2.7563201904e+01
    1.4599966431e+02    2.7625198364e+01
    1.4609968567e+02    2.7687095642e+01
    1.4619966125e+02    2.7748802185e+01
    1.4629966736e+02    2.7810203552e+01
    1.4639968872e+02    2.7871498108e+01
    1.4649969482e+02    2.7932601929e+01
    1.4659968567e+02    2.7993400574e+01
    1.4669969177e+02    2.8053901672e+01
    1.4679968262e+02    2.8114204407e+01
    1.4689970398e+02    2.8174301147e+01
    1.4699975586e+02    2.8234199524e+01
    1.4709976196e+02    2.8293701172e+01
    1.4719976807e+02    2.8353004456e+01
    1.4729974365e+02    2.8412002563e+01
    1.4739976501e+02    2.8470802307e+01
    1.4749975586e+02    2.8529197693e+01
    1.4759977722e+02    2.8587402344e+01
    1.4769979858e+02    2.8645202637e+01
    1.4779975891e+02    2.8702896118e+01
    1.4789976501e+02    2.8760200500e+01
    1.4799980164e+02    2.8817298889e+01
    1.4809980774e+02    2.8874099731e+01
    1.4819979858e+02    2.8930603027e+01
    1.4829980469e+02    2.8986900330e+01
    1.4839981079e+02    2.9042999268e+01
    1.4849981689e+02    2.9098800659e+01
    1.4859982300e+02    2.9154396057e+01
    1.4869981384e+02    2.9209701538e+01
    1.4879981995e+02    2.9264900208e+01
    1.4889987183e+02    2.9319900513e+01
    1.4899986267e+02    2.9374603271e+01
    1.4909982300e+02    2.9428199768e+01
    1.4919987488e+02    2.9482398987e+01
    1.4929986572e+02    2.9536399841e+01
    1.4939988708e+02    2.9590003967e+01
    1.4949987793e+02    2.9643501282e+01
    1.4959988403e+02    2.9696594238e+01
    1.4969989014e+02    2.9748497009e+01
    1.4979988098e+02    2.9801002502e+01
    1.4989988708e+02    2.9853302002e+01
    1.4999992371e+02    2.9905204773e+01
    1.5009991455e+02    2.9980895996e+01
    1.5019990540e+02    3.0055305481e+01
    1.5029995728e+02    3.0130401611e+01
    1.5039993286e+02    3.0205299377e+01
    1.5049995422e+02    3.0279899597e+01
    1.5059992981e+02    3.0354202271e+01
    1.5069998169e+02    3.0427200317e+01
    1.5079997253e+02    3.0500900269e+01
    1.5089997864e+02    3.0574394226e+01
    1.5099998474e+02    3.0647499084e+01
    1.5109999084e+02    3.0720306396e+01
    1.5119999695e+02    3.0791801453e+01
    1.5129997253e+02    3.0864006042e+01
    1.5140002441e+02    3.0935897827e+01
    1.5150000000e+02    3.1007598877e+01
    1.5160000610e+02    3.1077896118e+01
    1.5170002747e+02    3.1148902893e+01
    1.5180000305e+02    3.1219696045e+01
    1.5190002441e+02    3.1290000916e+01
    1.5200006104e+02    3.1360000610e+01
    1.5210006714e+02    3.1428703308e+01
    1.5220002747e+02    3.1498100281e+01
    1.5230004883e+02    3.1567001343e+01
    1.5240007019e+02    3.1635505676e+01
    1.5250009155e+02    3.1703697205e+01
    1.5260006714e+02    3.1770500183e+01
    1.5270005798e+02    3.1837898254e+01
    1.5280006409e+02    3.1904899597e+01
    1.5290007019e+02    3.1971397400e+01
    1.5300007629e+02    3.2036605835e+01
    1.5310012817e+02    3.2102195740e+01
    1.5320011902e+02    3.2167503357e+01
    1.5330010986e+02    3.2232398987e+01
    1.5340010071e+02    3.2295898438e+01
    1.5350013733e+02    3.2359893799e+01
    1.5360015869e+02    3.2423599243e+01
    1.5370014954e+02    3.2486900330e+01
    1.5380015564e+02    3.2549797058e+01
    1.5390017700e+02    3.2611305237e+01
    1.5400018311e+02    3.2673400879e+01
    1.5410015869e+02    3.2735198975e+01
    1.5420019531e+02    3.2796501160e+01
    1.5430018616e+02    3.2857498169e+01
    1.5440017700e+02    3.2917198181e+01
    1.5450016785e+02    3.2977401733e+01
    1.5460017395e+02    3.3037300110e+01
    1.5470019531e+02    3.3096702576e+01
    1.5480023193e+02    3.3155799866e+01
    1.5490020752e+02    3.3213500977e+01
    1.5500018311e+02    3.3271797180e+01
    1.5510021973e+02    3.3329696655e+01
    1.5520021057e+02    3.3387207031e+01
    1.5530026245e+02    3.3443199158e+01
    1.5540025330e+02    3.3499801636e+01
    1.5550025940e+02    3.3555999756e+01
    1.5560025024e+02    3.3611801147e+01
    1.5570027161e+02    3.3667198181e+01
    1.5580026245e+02    3.3721099854e+01
    1.5590025330e+02    3.3775695801e+01
    1.5600030518e+02    3.3829704285e+01
    1.5610029602e+02    3.3883399963e+01
    1.5620031738e+02    3.3935699463e+01
    1.5630029297e+02    3.3988494873e+01
    1.5640031433e+02    3.4040901184e+01
    1.5650033569e+02    3.4092803955e+01
    1.5660029602e+02    3.4144401550e+01
    1.5670031738e+02    3.4194404602e+01
    1.5680029297e+02    3.4245002747e+01
    1.5690032959e+02    3.4295005798e+01
    1.5700036621e+02    3.4344596863e+01
    1.5710032654e+02    3.4392799377e+01
    1.5720033264e+02    3.4441398621e+01
    1.5730038452e+02    3.4489601135e+01
    1.5740034485e+02    3.4537399292e+01
    1.5750036621e+02    3.4584602356e+01
    1.5760040283e+02    3.4630294800e+01
    1.5770039368e+02    3.4676597595e+01
    1.5780041504e+02    3.4722396851e+01
    1.5790037537e+02    3.4767898560e+01
    1.5800038147e+02    3.4812805176e+01
    1.5810041809e+02    3.4856201172e+01
    1.5820042419e+02    3.4900199890e+01
    1.5830039978e+02    3.4943901062e+01
    1.5840045166e+02    3.4986999512e+01
    1.5850042725e+02    3.5028701782e+01
    1.5860043335e+02    3.5070999146e+01
    1.5870042419e+02    3.5112899780e+01
    1.5880047607e+02    3.5154304504e+01
    1.5890043640e+02    3.5195297241e+01
    1.5900044250e+02    3.5234901428e+01
    1.5910044861e+02    3.5275093079e+01
    1.5920045471e+02    3.5314796448e+01
    1.5930047607e+02    3.5354103088e+01
    1.5940048218e+02    3.5392898560e+01
    1.5950051880e+02    3.5430206299e+01
    1.5960047913e+02    3.5468299866e+01
    1.5970051575e+02    3.5505699158e+01
    1.5980049133e+02    3.5542701721e+01
    1.5990051270e+02    3.5578201294e+01
    1.6000050354e+02    3.5614295959e+01
    1.6010052490e+02    3.5671897888e+01
    1.6020053101e+02    3.5729103088e+01
    1.6030053711e+02    3.5784805298e+01
    1.6040054321e+02    3.5841003418e+01
    1.6050053406e+02    3.5896797180e+01
    1.6060057068e+02    3.5952003479e+01
    1.6070057678e+02    3.6005897522e+01
    1.6080056763e+02    3.6060295105e+01
    1.6090054321e+02    3.6114196777e+01
    1.6100061035e+02    3.6166496277e+01
    1.6110060120e+02    3.6219505310e+01
    1.6120059204e+02    3.6272102356e+01
    1.6130061340e+02    3.6323104858e+01
    1.6140058899e+02    3.6374801636e+01
    1.6150061035e+02    3.6426002502e+01
    1.6160060120e+02    3.6475807190e+01
    1.6170063782e+02    3.6526100159e+01
    1.6180064392e+02    3.6576004028e+01
    1.6190066528e+02    3.6625495911e+01
    1.6200062561e+02    3.6673599243e+01
    1.6210067749e+02    3.6722000122e+01
    1.6220065308e+02    3.6770095825e+01
    1.6230065918e+02    3.6816696167e+01
    1.6240066528e+02    3.6863800049e+01
    1.6250065613e+02    3.6910408020e+01
    1.6260069275e+02    3.6955406189e+01
    1.6270069885e+02    3.7000900269e+01
    1.6280068970e+02    3.7046005249e+01
    1.6290069580e+02    3.7089500427e+01
    1.6300068665e+02    3.7133491516e+01
    1.6310069275e+02    3.7177001953e+01
    1.6320071411e+02    3.7218902588e+01
    1.6330075073e+02    3.7261405945e+01
    1.6340072632e+02    3.7303398132e+01
    1.6350071716e+02    3.7343894958e+01
    1.6360072327e+02    3.7384902954e+01
    1.6370077515e+02    3.7425292969e+01
    1.6380078125e+02    3.7465301514e+01
    1.6390075684e+02    3.7503898621e+01
    1.6400079346e+02    3.7542991638e+01
    1.6410075378e+02    3.7581703186e+01
    1.6420075989e+02    3.7618896484e+01
    1.6430078125e+02    3.7656509399e+01
    1.6440077209e+02    3.7693794250e+01
    1.6450082397e+02    3.7730506897e+01
    1.6460081482e+02    3.7765907288e+01
    1.6470082092e+02    3.7801696777e+01
    1.6480082703e+02    3.7837104797e+01
    1.6490081787e+02    3.7871101379e+01
    1.6500080872e+02    3.7905593872e+01
    1.6510081482e+02    3.7939598083e+01
    1.6520086670e+02    3.7972000122e+01
    1.6530082703e+02    3.8005104065e+01
    1.6540086365e+02    3.8037597656e+01
    1.6550088501e+02    3.8068595886e+01
    1.6560087585e+02    3.8100204468e+01
    1.6570089722e+02    3.8131294250e+01
    1.6580088806e+02    3.8160995483e+01
    1.6590087891e+02    3.8191001892e+01
    1.6600086975e+02    3.8221008301e+01
    1.6610089111e+02    3.8249008179e+01
    1.6620091248e+02    3.8277999878e+01
    1.6630093384e+02    3.8307006836e+01
    1.6640089417e+02    3.8334999084e+01
    1.6650094604e+02    3.8360992432e+01
    1.6660090637e+02    3.8388999939e+01
    1.6670091248e+02    3.8414993286e+01
    1.6680090332e+02    3.8440010071e+01
    1.6690095520e+02    3.8465995789e+01
    1.6700094604e+02    3.8491004944e+01
    1.6710096741e+02    3.8515007019e+01
    1.6720097351e+02    3.8538993835e+01
    1.6730093384e+02    3.8563003540e+01
    1.6740095520e+02    3.8586006165e+01
    1.6750094604e+02    3.8608993530e+01
    1.6760098267e+02    3.8630996704e+01
    1.6770100403e+02    3.8653007507e+01
    1.6780101013e+02    3.8673004150e+01
    1.6790100098e+02    3.8694000244e+01
    1.6800103760e+02    3.8715003967e+01
    1.6810104370e+02    3.8734001160e+01
    1.6820104980e+02    3.8753997803e+01
    1.6830102539e+02    3.8773002625e+01
    1.6840106201e+02    3.8791000366e+01
    1.6850105286e+02    3.8809989929e+01
    1.6860104370e+02    3.8828002930e+01
    1.6870103455e+02    3.8845001221e+01
    1.6880105591e+02    3.8863006592e+01
    1.6890107727e+02    3.8879997253e+01
    1.6900105286e+02    3.8895996094e+01
    1.6910107422e+02    3.8912002563e+01
    1.6920109558e+02    3.8927993774e+01
    1.6930110168e+02    3.8943000793e+01
    1.6940107727e+02    3.8957000732e+01
    1.6950111389e+02    3.8972007751e+01
    1.6960108948e+02    3.8986000061e+01
    1.6970112610e+02    3.8999000549e+01
    1.6980111694e+02    3.9012001038e+01
    1.6990115356e+02    3.9024993896e+01
    1.7000111389e+02    3.9038002014e+01
    1.7010116577e+02    3.9069999695e+01
    1.7020114136e+02    3.9101989746e+01
    1.7030116272e+02    3.9134002686e+01
    1.7040115356e+02    3.9165000916e+01
    1.7050114441e+02    3.9195999146e+01
    1.7060116577e+02    3.9226005554e+01
    1.7070118713e+02    3.9257003784e+01
    1.7080116272e+02    3.9285995483e+01
    1.7090118408e+02    3.9315994263e+01
    1.7100120544e+02    3.9345001221e+01
    1.7110118103e+02    3.9373001099e+01
    1.7120118713e+02    3.9400993347e+01
    1.7130120850e+02    3.9429008484e+01
    1.7140122986e+02    3.9457000732e+01
    1.7150120544e+02    3.9483993530e+01
    1.7160122681e+02    3.9510993958e+01
    1.7170126343e+02    3.9538002014e+01
    1.7180123901e+02    3.9564002991e+01
    1.7190124512e+02    3.9589996338e+01
    1.7200126648e+02    3.9616004944e+01
    1.7210127258e+02    3.9641990662e+01
    1.7220124817e+02    3.9666000366e+01
    1.7230125427e+02    3.9692001343e+01
    1.7240127563e+02    3.9715995789e+01
    1.7250126648e+02    3.9740005493e+01
    1.7260128784e+02    3.9763000488e+01
    1.7270126343e+02    3.9785995483e+01
    1.7280128479e+02    3.9808990479e+01
    1.7290129089e+02    3.9831001282e+01
    1.7300132751e+02    3.9852996826e+01
    1.7310130310e+02    3.9874992371e+01
    1.7320133972e+02    3.9896003723e+01
    1.7330133057e+02    3.9916999817e+01
    1.7340136719e+02    3.9936996460e+01
    1.7350134277e+02    3.9956993103e+01
    1.7360136414e+02    3.9977005005e+01
    1.7370135498e+02    3.9997001648e+01
    1.7380137634e+02    4.0015991211e+01
    1.7390138245e+02    4.0035003662e+01
    1.7400138855e+02    4.0053001404e+01
    1.7410139465e+02    4.0071998596e+01
    1.7420141602e+02    4.0089996338e+01
    1.7430140686e+02    4.0107002258e+01
    1.7440141296e+02    4.0125000000e+01
    1.7450140381e+02    4.0141998291e+01
    1.7460139465e+02    4.0159004211e+01
    1.7470138550e+02    4.0175003052e+01
    1.7480140686e+02    4.0191993713e+01
    1.7490144348e+02    4.0208999634e+01
    1.7500144958e+02    4.0223991394e+01
    1.7510145569e+02    4.0240005493e+01
    1.7520144653e+02    4.0255004883e+01
    1.7530143738e+02    4.0268997192e+01
    1.7540147400e+02    4.0283988953e+01
    1.7550143433e+02    4.0298004150e+01
    1.7560147095e+02    4.0311996460e+01
    1.7570147705e+02    4.0325996399e+01
    1.7580149841e+02    4.0339004517e+01
    1.7590151978e+02    4.0352005005e+01
    1.7600149536e+02    4.0364997864e+01
    1.7610148621e+02    4.0377990723e+01
    1.7620150757e+02    4.0390007019e+01
    1.7630151367e+02    4.0402000427e+01
    1.7640151978e+02    4.0413993835e+01
    1.7650155640e+02    4.0426002502e+01
    1.7660154724e+02    4.0437004089e+01
    1.7670152283e+02    4.0447998047e+01
    1.7680152893e+02    4.0459007263e+01
    1.7690156555e+02    4.0469001770e+01
    1.7700157166e+02    4.0478996277e+01
    1.7710154724e+02    4.0488990784e+01
    1.7720158386e+02    4.0499008179e+01
    1.7730160522e+02    4.0508995056e+01
    1.7740156555e+02    4.0516998291e+01
    1.7750158691e+02    4.0526008606e+01
    1.7760156250e+02    4.0535003662e+01
    1.7770161438e+02    4.0544006348e+01
    1.7780162048e+02    4.0553001404e+01
    1.7790162659e+02    4.0560997009e+01
    1.7800160217e+02    4.0568008423e+01
    1.7810165405e+02    4.0576004028e+01
    1.7820162964e+02    4.0582992554e+01
    1.7830160522e+02    4.0589996338e+01
    1.7840162659e+02    4.0597000122e+01
    1.7850166321e+02    4.0604003906e+01
    1.7860165405e+02    4.0610992432e+01
    1.7870167542e+02    4.0617004395e+01
    1.7880166626e+02    4.0623001099e+01
    1.7890167236e+02    4.0628997803e+01
    1.7900167847e+02    4.0634994507e+01
    1.7910171509e+02    4.0641006470e+01
    1.7920170593e+02    4.0645996094e+01
    1.7930168152e+02    4.0651000977e+01
    1.7940171814e+02    4.0656005859e+01
    1.7950173950e+02    4.0660995483e+01
    1.7960169983e+02    4.0666000366e+01
    1.7970173645e+02    4.0670989990e+01
    1.7980174255e+02    4.0675003052e+01
    1.7990173340e+02    4.0679000854e+01
    1.8000172424e+02    4.0684005737e+01
    1.8010173035e+02    4.0705001831e+01
    1.8020178223e+02    4.0727005005e+01
    1.8030174255e+02    4.0747009277e+01
    1.8040174866e+02    4.0768997192e+01
    1.8050175476e+02    4.0789001465e+01
    1.8060176086e+02    4.0808990479e+01
    1.8070179749e+02    4.0830001831e+01
    1.8080177307e+02    4.0850006104e+01
    1.8090176392e+02    4.0870010376e+01
    1.8100181580e+02    4.0889007568e+01
    1.8110179138e+02    4.0910003662e+01
    1.8120179749e+02    4.0929000854e+01
    1.8130183411e+02    4.0948989868e+01
    1.8140184021e+02    4.0968002319e+01
    1.8150183105e+02    4.0986999512e+01
    1.8160183716e+02    4.1005996704e+01
    1.8170185852e+02    4.1025009155e+01
    1.8180183411e+02    4.1043991089e+01
    1.8190184021e+02    4.1063003540e+01
    1.8200190735e+02    4.1081008911e+01
    1.8210185242e+02    4.1098999023e+01
    1.8220187378e+02    4.1117996216e+01
    1.8230189514e+02    4.1136001587e+01
    1.8240187073e+02    4.1154998779e+01
    1.8250192261e+02    4.1171997070e+01
    1.8260188293e+02    4.1190002441e+01
    1.8270188904e+02    4.1207000732e+01
    1.8280194092e+02    4.1225006104e+01
    1.8290188599e+02    4.1241989136e+01
    1.8300195312e+02    4.1259994507e+01
    1.8310191345e+02    4.1276000977e+01
    1.8320191956e+02    4.1294006348e+01
    1.8330195618e+02    4.1309997559e+01
    1.8340196228e+02    4.1326995850e+01
    1.8350198364e+02    4.1341995239e+01
    1.8360194397e+02    4.1358001709e+01
    1.8370198059e+02    4.1375000000e+01
    1.8380198669e+02    4.1389999390e+01
    1.8390197754e+02    4.1406997681e+01
    1.8400195312e+02    4.1421997070e+01
    1.8410197449e+02    4.1437988281e+01
    1.8420198059e+02    4.1453002930e+01
    1.8430200195e+02    4.1469009399e+01
    1.8440202332e+02    4.1483993530e+01
    1.8450201416e+02    4.1500000000e+01
    1.8460200500e+02    4.1513992310e+01
    1.8470205688e+02    4.1529998779e+01
    1.8480201721e+02    4.1544006348e+01
    1.8490202332e+02    4.1557998657e+01
    1.8500205994e+02    4.1574005127e+01
    1.8510206604e+02    4.1588012695e+01
    1.8520207214e+02    4.1602996826e+01
    1.8530203247e+02    4.1617004395e+01
    1.8540205383e+02    4.1630996704e+01
    1.8550209045e+02    4.1645004272e+01
    1.8560208130e+02    4.1660003662e+01
    1.8570210266e+02    4.1673004150e+01
    1.8580209351e+02    4.1686996460e+01
    1.8590209961e+02    4.1701004028e+01
    1.8600210571e+02    4.1714996338e+01
    1.8610212708e+02    4.1727996826e+01
    1.8620210266e+02    4.1741012573e+01
    1.8630212402e+02    4.1755004883e+01
    1.8640211487e+02    4.1768005371e+01
    1.8650213623e+02    4.1781997681e+01
    1.8660217285e+02    4.1793991089e+01
    1.8670216370e+02    4.1807998657e+01
    1.8680215454e+02    4.1820007324e+01
    1.8690214539e+02    4.1833999634e+01
    1.8700218201e+02    4.1846008301e+01
    1.8710217285e+02    4.1859008789e+01
    1.8720219421e+02    4.1871002197e+01
    1.8730218506e+02    4.1884002686e+01
    1.8740220642e+02    4.1895004272e+01
    1.8750221252e+02    4.1908004761e+01
    1.8760217285e+02    4.1919998169e+01
    1.8770222473e+02    4.1930999756e+01
    1.8780221558e+02    4.1942993164e+01
    1.8790225220e+02    4.1955001831e+01
    1.8800224304e+02    4.1967010498e+01
    1.8810224915e+02    4.1977996826e+01
    1.8820225525e+02    4.1990005493e+01
    1.8830224609e+02    4.2000991821e+01
    1.8840225220e+02    4.2013000488e+01
    1.8850227356e+02    4.2024002075e+01
    1.8860226440e+02    4.2036010742e+01
    1.8870228577e+02    4.2046997070e+01
    1.8880230713e+02    4.2057998657e+01
    1.8890226746e+02    4.2069000244e+01
    1.8900228882e+02    4.2080001831e+01
    1.8910229492e+02    4.2091003418e+01
    1.8920233154e+02    4.2102005005e+01
    1.8930229187e+02    4.2113006592e+01
    1.8940229797e+02    4.2122985840e+01
    1.8950230408e+02    4.2134994507e+01
    1.8960232544e+02    4.2145004272e+01
    1.8970231628e+02    4.2156005859e+01
    1.8980232239e+02    4.2166000366e+01
    1.8990237427e+02    4.2175994873e+01
    1.9000233459e+02    4.2185989380e+01
    1.9010235596e+02    4.2211990356e+01
    1.9020234680e+02    4.2236999512e+01
    1.9030238342e+02    4.2261001587e+01
    1.9040237427e+02    4.2286010742e+01
    1.9050238037e+02    4.2311004639e+01
    1.9060235596e+02    4.2335006714e+01
    1.9070237732e+02    4.2358993530e+01
    1.9080242920e+02    4.2384994507e+01
    1.9090237427e+02    4.2408996582e+01
    1.9100241089e+02    4.2432998657e+01
    1.9110241699e+02    4.2457000732e+01
    1.9120245361e+02    4.2481002808e+01
    1.9130244446e+02    4.2504989624e+01
    1.9140242004e+02    4.2529006958e+01
    1.9150244141e+02    4.2553009033e+01
    1.9160246277e+02    4.2576995850e+01
    1.9170246887e+02    4.2601013184e+01
    1.9180247498e+02    4.2623992920e+01
    1.9190246582e+02    4.2647994995e+01
    1.9200250244e+02    4.2671005249e+01
    1.9210246277e+02    4.2694992065e+01
    1.9220245361e+02    4.2718994141e+01
    1.9230247498e+02    4.2742004395e+01
    1.9240252686e+02    4.2764999390e+01
    1.9250250244e+02    4.2788009644e+01
    1.9260253906e+02    4.2811004639e+01
    1.9270251465e+02    4.2833999634e+01
    1.9280250549e+02    4.2856002808e+01
    1.9290252686e+02    4.2880004883e+01
    1.9300254822e+02    4.2901992798e+01
    1.9310252380e+02    4.2923995972e+01
    1.9320257568e+02    4.2945999146e+01
    1.9330253601e+02    4.2969009399e+01
    1.9340255737e+02    4.2990005493e+01
    1.9350256348e+02    4.3012008667e+01
    1.9360255432e+02    4.3035003662e+01
    1.9370256042e+02    4.3055999756e+01
    1.9380259705e+02    4.3077987671e+01
    1.9390257263e+02    4.3098999023e+01
    1.9400256348e+02    4.3119995117e+01
    1.9410261536e+02    4.3141006470e+01
    1.9420260620e+02    4.3162002563e+01
    1.9430262756e+02    4.3183990479e+01
    1.9440261841e+02    4.3205001831e+01
[...]
    2.5130607605e+02    2.8135986328e+01
    2.5140611267e+02    2.8083007812e+01
    2.5150613403e+02    2.8028991699e+01
    2.5160612488e+02    2.7976013184e+01
    2.5170614624e+02    2.7920989990e+01
    2.5180613708e+02    2.7868011475e+01
    2.5190614319e+02    2.7813995361e+01
    2.5200613403e+02    2.7760009766e+01
    2.5210615540e+02    2.7705993652e+01
    2.5220616150e+02    2.7653015137e+01
    2.5230613708e+02    2.7597991943e+01
    2.5240618896e+02    2.7544006348e+01
    2.5250619507e+02    2.7488983154e+01
    2.5260615540e+02    2.7434997559e+01
    2.5270620728e+02    2.7381011963e+01
    2.5280619812e+02    2.7326995850e+01
    2.5290618896e+02    2.7272003174e+01
    2.5300619507e+02    2.7216979980e+01
    2.5310618591e+02    2.7161987305e+01
    2.5320622253e+02    2.7108001709e+01
    2.5330619812e+02    2.7053009033e+01
    2.5340621948e+02    2.6997985840e+01
    2.5350625610e+02    2.6942993164e+01
    2.5360626221e+02    2.6888000488e+01
    2.5370625305e+02    2.6832000732e+01
    2.5380627441e+02    2.6776977539e+01
    2.5390625000e+02    2.6720977783e+01
    2.5400627136e+02    2.6665985107e+01
    2.5410626221e+02    2.6609985352e+01
    2.5420626831e+02    2.6554992676e+01
    2.5430627441e+02    2.6497985840e+01
    2.5440626526e+02    2.6441986084e+01
    2.5450631714e+02    2.6385986328e+01
    2.5460627747e+02    2.6328979492e+01
    2.5470631409e+02    2.6272979736e+01
    2.5480630493e+02    2.6216003418e+01
    2.5490632629e+02    2.6160003662e+01
    2.5500633240e+02    2.6101989746e+01
    2.5510630798e+02    2.6044982910e+01
    2.5520632935e+02    2.5987976074e+01
    2.5530636597e+02    2.5930999756e+01
    2.5540632629e+02    2.5872985840e+01
    2.5550633240e+02    2.5815002441e+01
    2.5560638428e+02    2.5757019043e+01
    2.5570634460e+02    2.5699005127e+01
    2.5580636597e+02    2.5640991211e+01
    2.5590635681e+02    2.5582977295e+01
    2.5600637817e+02    2.5524993896e+01
    2.5610638428e+02    2.5466979980e+01
    2.5620639038e+02    2.5407012939e+01
    2.5630639648e+02    2.5348022461e+01
    2.5640640259e+02    2.5290008545e+01
    2.5650637817e+02    2.5231018066e+01
    2.5660641479e+02    2.5171020508e+01
    2.5670639038e+02    2.5112030029e+01
    2.5680639648e+02    2.5052001953e+01
    2.5690640259e+02    2.4992004395e+01
    2.5700643921e+02    2.4932006836e+01
    2.5710641479e+02    2.4873016357e+01
    2.5720642090e+02    2.4813018799e+01
    2.5730642700e+02    2.4752014160e+01
    2.5740643311e+02    2.4692016602e+01
    2.5750643921e+02    2.4630004883e+01
    2.5760644531e+02    2.4570007324e+01
    2.5770645142e+02    2.4509002686e+01
    2.5780648804e+02    2.4447998047e+01
    2.5790649414e+02    2.4387023926e+01
    2.5800650024e+02    2.4325012207e+01
    2.5810650635e+02    2.4264007568e+01
    2.5820648193e+02    2.4201995850e+01
    2.5830648804e+02    2.4140014648e+01
    2.5840649414e+02    2.4078002930e+01
    2.5850653076e+02    2.4016021729e+01
    2.5860650635e+02    2.3954010010e+01
    2.5870651245e+02    2.3891021729e+01
    2.5880651855e+02    2.3828002930e+01
    2.5890655518e+02    2.3765014648e+01
    2.5900653076e+02    2.3701995850e+01
    2.5910656738e+02    2.3639007568e+01
    2.5920657349e+02    2.3576019287e+01
    2.5930657959e+02    2.3511993408e+01
    2.5940655518e+02    2.3447998047e+01
    2.5950659180e+02    2.3384002686e+01
    2.5960659790e+02    2.3320007324e+01
    2.5970657349e+02    2.3256011963e+01
    2.5980661011e+02    2.3192016602e+01
    2.5990658569e+02    2.3127990723e+01
    2.6000659180e+02    2.3063018799e+01
    2.6010662842e+02    2.2998016357e+01
    2.6020660400e+02    2.2934020996e+01
    2.6030664062e+02    2.2869018555e+01
    2.6040661621e+02    2.2804992676e+01
    2.6050662231e+02    2.2739990234e+01
    2.6060665894e+02    2.2674987793e+01
    2.6070666504e+02    2.2610992432e+01
    2.6080664062e+02    2.2545013428e+01
    2.6090667725e+02    2.2480010986e+01
    2.6100665283e+02    2.2413970947e+01
    2.6110668945e+02    2.2347991943e+01
    2.6120666504e+02    2.2281005859e+01
    2.6130670166e+02    2.2216003418e+01
    2.6140667725e+02    2.2149017334e+01
    2.6150668335e+02    2.2083007812e+01
    2.6160671997e+02    2.2015991211e+01
    2.6170669556e+02    2.1948974609e+01
    2.6180670166e+02    2.1881988525e+01
    2.6190673828e+02    2.1813995361e+01
    2.6200671387e+02    2.1747009277e+01
    2.6210671997e+02    2.1679016113e+01
    2.6220672607e+02    2.1611022949e+01
    2.6230676270e+02    2.1543975830e+01
    2.6240676880e+02    2.1475006104e+01
    2.6250677490e+02    2.1407012939e+01
    2.6260678101e+02    2.1337005615e+01
    2.6270675659e+02    2.1269012451e+01
    2.6280679321e+02    2.1199005127e+01
    2.6290676880e+02    2.1129974365e+01
    2.6300680542e+02    2.1061004639e+01
    2.6310681152e+02    2.0990997314e+01
    2.6320678711e+02    2.0920989990e+01
    2.6330682373e+02    2.0850006104e+01
    2.6340679932e+02    2.0781005859e+01
    2.6350683594e+02    2.0709014893e+01
    2.6360684204e+02    2.0638977051e+01
    2.6370681763e+02    2.0566986084e+01
    2.6380685425e+02    2.0496002197e+01
    2.6390686035e+02    2.0425018311e+01
    2.6400686646e+02    2.0352996826e+01
    2.6410684204e+02    2.0281005859e+01
    2.6420684814e+02    2.0209014893e+01
    2.6430685425e+02    2.0135986328e+01
    2.6440686035e+02    2.0062988281e+01
    2.6450689697e+02    1.9990997314e+01
    2.6460687256e+02    1.9916992188e+01
    2.6470687866e+02    1.9843994141e+01
    2.6480688477e+02    1.9770019531e+01
    2.6490692139e+02    1.9695983887e+01
    2.6500692749e+02    1.9622985840e+01
    2.6510690308e+02    1.9548004150e+01
    2.6520693970e+02    1.9473999023e+01
    2.6530694580e+02    1.9399017334e+01
    2.6540695190e+02    1.9325012207e+01
    2.6550692749e+02    1.9250000000e+01
    2.6560696411e+02    1.9174987793e+01
    2.6570693970e+02    1.9100006104e+01
    2.6580697632e+02    1.9023986816e+01
    2.6590695190e+02    1.8949005127e+01
    2.6600695801e+02    1.8872009277e+01
    2.6610696411e+02    1.8797027588e+01
    2.6620697021e+02    1.8720001221e+01
    2.6630700684e+02    1.8643981934e+01
    2.6640701294e+02    1.8566986084e+01
    2.6650698853e+02    1.8490997314e+01
    2.6660702515e+02    1.8414001465e+01
    2.6670700073e+02    1.8335998535e+01
    2.6680700684e+02    1.8258972168e+01
    2.6690701294e+02    1.8180999756e+01
    2.6700704956e+02    1.8104003906e+01
    2.6710705566e+02    1.8026000977e+01
    2.6720706177e+02    1.7947998047e+01
    2.6730703735e+02    1.7870025635e+01
    2.6740704346e+02    1.7791015625e+01
    2.6750704956e+02    1.7712982178e+01
    2.6760705566e+02    1.7634002686e+01
    2.6770709229e+02    1.7554992676e+01
    2.6780706787e+02    1.7475006104e+01
    2.6790707397e+02    1.7395996094e+01
    2.6800711060e+02    1.7316009521e+01
    2.6810708618e+02    1.7236999512e+01
    2.6820709229e+02    1.7156982422e+01
    2.6830709839e+02    1.7076995850e+01
    2.6840713501e+02    1.6997009277e+01
    2.6850714111e+02    1.6916015625e+01
    2.6860711670e+02    1.6835998535e+01
    2.6870715332e+02    1.6753997803e+01
    2.6880712891e+02    1.6673980713e+01
    2.6890716553e+02    1.6592987061e+01
    2.6900714111e+02    1.6510986328e+01
    2.6910714722e+02    1.6429992676e+01
    2.6920718384e+02    1.6347015381e+01
    2.6930715942e+02    1.6266021729e+01
    2.6940719604e+02    1.6183013916e+01
    2.6950717163e+02    1.6100982666e+01
    2.6960717773e+02    1.6018005371e+01
    2.6970721436e+02    1.5936004639e+01
    2.6980722046e+02    1.5852996826e+01
    2.6990716553e+02    1.5770019531e+01
    2.7000723267e+02    1.5686004639e+01
    2.7010720825e+02    1.5601013184e+01
    2.7020724487e+02    1.5515991211e+01
    2.7030725098e+02    1.5430999756e+01
    2.7040722656e+02    1.5345001221e+01
    2.7050723267e+02    1.5259002686e+01
    2.7060723877e+02    1.5173004150e+01
    2.7070724487e+02    1.5087005615e+01
    2.7080725098e+02    1.5000976562e+01
    2.7090725708e+02    1.4915008545e+01
    2.7100729370e+02    1.4828002930e+01
    2.7110729980e+02    1.4740997314e+01
    2.7120730591e+02    1.4653991699e+01
    2.7130731201e+02    1.4566986084e+01
    2.7140728760e+02    1.4479003906e+01
    2.7150729370e+02    1.4390991211e+01
    2.7160733032e+02    1.4302978516e+01
    2.7170730591e+02    1.4214996338e+01
    2.7180731201e+02    1.4127014160e+01
    2.7190734863e+02    1.4039001465e+01
    2.7200735474e+02    1.3950988770e+01
    2.7210736084e+02    1.3861999512e+01
    2.7220736694e+02    1.3773010254e+01
    2.7230734253e+02    1.3684020996e+01
    2.7240734863e+02    1.3595001221e+01
    2.7250738525e+02    1.3505981445e+01
    2.7260739136e+02    1.3415985107e+01
    2.7270736694e+02    1.3326019287e+01
    2.7280740356e+02    1.3235992432e+01
    2.7290740967e+02    1.3145996094e+01
    2.7300741577e+02    1.3056976318e+01
    2.7310739136e+02    1.2967010498e+01
    2.7320739746e+02    1.2877014160e+01
    2.7330743408e+02    1.2786010742e+01
    2.7340744019e+02    1.2695983887e+01
    2.7350741577e+02    1.2605987549e+01
    2.7360742188e+02    1.2515014648e+01
    2.7370745850e+02    1.2425018311e+01
    2.7380746460e+02    1.2333984375e+01
    2.7390747070e+02    1.2242004395e+01
    2.7400747681e+02    1.2151000977e+01
    2.7410748291e+02    1.2061004639e+01
    2.7420745850e+02    1.1970001221e+01
    2.7430746460e+02    1.1878997803e+01
    2.7440747070e+02    1.1787017822e+01
    2.7450747681e+02    1.1696014404e+01
    2.7460748291e+02    1.1605010986e+01
    2.7470748901e+02    1.1513000488e+01
    2.7480749512e+02    1.1421997070e+01
    2.7490750122e+02    1.1330017090e+01
    2.7500753784e+02    1.1238006592e+01
    2.7510754395e+02    1.1144989014e+01
    2.7520751953e+02    1.1052978516e+01
    2.7530752563e+02    1.0960998535e+01
    2.7540753174e+02    1.0869018555e+01
    2.7550753784e+02    1.0777008057e+01
    2.7560754395e+02    1.0684997559e+01
    2.7570758057e+02    1.0592010498e+01
    2.7580758667e+02    1.0500000000e+01
    2.7590759277e+02    1.0407012939e+01
    2.7600759888e+02    1.0315002441e+01
    2.7610757446e+02    1.0221984863e+01
    2.7620761108e+02    1.0129028320e+01
    2.7630758667e+02    1.0035003662e+01
    2.7640759277e+02    9.9419860840e+00
    2.7650762939e+02    9.8489990234e+00
    2.7660760498e+02    9.7560119629e+00
    2.7670764160e+02    9.6620178223e+00
    2.7680761719e+02    9.5690002441e+00
    2.7690765381e+02    9.4759826660e+00
    2.7700765991e+02    9.3819885254e+00
    2.7710760498e+02    9.2880249023e+00
    2.7720767212e+02    9.1950073242e+00
    2.7730764771e+02    9.1010131836e+00
    2.7740768433e+02    9.0069885254e+00
    2.7750765991e+02    8.9120178223e+00
    2.7760766602e+02    8.8179931641e+00
    2.7770770264e+02    8.7229919434e+00
    2.7780767822e+02    8.6289978027e+00
    2.7790771484e+02    8.5350036621e+00
    2.7800769043e+02    8.4400024414e+00
    2.7810769653e+02    8.3460083008e+00
    2.7820773315e+02    8.2510070801e+00
    2.7830773926e+02    8.1559753418e+00
    2.7840771484e+02    8.0610046387e+00
    2.7850772095e+02    7.9670104980e+00
    2.7860775757e+02    7.8710021973e+00
    2.7870773315e+02    7.7749938965e+00
    2.7880770874e+02    7.6800231934e+00
    2.7890774536e+02    7.5849914551e+00
    2.7900778198e+02    7.4889831543e+00
    2.7910775757e+02    7.3939819336e+00
    2.7920779419e+02    7.2979736328e+00
    2.7930776978e+02    7.2030029297e+00
    2.7940777588e+02    7.1069946289e+00
    2.7950778198e+02    7.0119934082e+00
    2.7960781860e+02    6.9159851074e+00
    2.7970782471e+02    6.8200073242e+00
    2.7980783081e+02    6.7239990234e+00
    2.7990780640e+02    6.6269836426e+00
    2.8000781250e+02    6.5309753418e+00
    2.8010781860e+02    6.4309997559e+00
    2.8020782471e+02    6.3320007324e+00
    2.8030786133e+02    6.2320251465e+00
    2.8040783691e+02    6.1320190430e+00
    2.8050787354e+02    6.0330200195e+00
    2.8060787964e+02    5.9330139160e+00
    2.8070785522e+02    5.8330078125e+00
    2.8080789185e+02    5.7340087891e+00
    2.8090789795e+02    5.6340026855e+00
    2.8100790405e+02    5.5339965820e+00
    2.8110787964e+02    5.4349975586e+00
    2.8120791626e+02    5.3349914551e+00
    2.8130792236e+02    5.2349853516e+00
    2.8140792847e+02    5.1359863281e+00
    2.8150790405e+02    5.0359802246e+00
    2.8160791016e+02    4.9359741211e+00
    2.8170791626e+02    4.8359985352e+00
    2.8180795288e+02    4.7359924316e+00
    2.8190795898e+02    4.6360168457e+00
    2.8200793457e+02    4.5360107422e+00
    2.8210797119e+02    4.4370117188e+00
    2.8220797729e+02    4.3370056152e+00
    2.8230795288e+02    4.2369995117e+00
    2.8240795898e+02    4.1380004883e+00
    2.8250796509e+02    4.0379943848e+00
    2.8260800171e+02    3.9379882812e+00
    2.8270797729e+02    3.8389892578e+00
    2.8280801392e+02    3.7389831543e+00
    2.8290798950e+02    3.6390075684e+00
    2.8300799561e+02    3.5400085449e+00
    2.8310803223e+02    3.4400024414e+00
    2.8320800781e+02    3.3399963379e+00
    2.8330804443e+02    3.2409973145e+00
    2.8340802002e+02    3.1409912109e+00
    2.8350805664e+02    3.0400085449e+00
    2.8360806274e+02    2.9409790039e+00
    2.8370800781e+02    2.8420104980e+00
    2.8380807495e+02    2.7409973145e+00
    2.8390805054e+02    2.6419982910e+00
    2.8400808716e+02    2.5419921875e+00
    2.8410806274e+02    2.4420166016e+00
    2.8420809937e+02    2.3430175781e+00
    2.8430807495e+02    2.2430114746e+00
    2.8440808105e+02    2.1430053711e+00
    2.8450808716e+02    2.0429992676e+00
    2.8460809326e+02    1.9440002441e+00
    2.8470812988e+02    1.8439941406e+00
    2.8480810547e+02    1.7439880371e+00
    2.8490814209e+02    1.6449890137e+00
    2.8500811768e+02    1.5449829102e+00
    2.8510812378e+02    1.4450073242e+00
    2.8520816040e+02    1.3460083008e+00
    2.8530813599e+02    1.2460021973e+00
    2.8540817261e+02    1.1459960938e+00
    2.8550814819e+02    1.0469970703e+00
    2.8560815430e+02    9.4799804688e-01
    2.8570819092e+02    8.4799194336e-01
    2.8580816650e+02    7.4899291992e-01
    2.8590820312e+02    6.4898681641e-01
    2.8600820923e+02    5.4901123047e-01
    2.8610818481e+02    4.4900512695e-01
    2.8620819092e+02    3.5000610352e-01
    2.8630819702e+02    2.5000000000e-01
    2.8640820312e+02    1.4999389648e-01
    2.8650820923e+02    5.2001953125e-02
    2.8660821533e+02   -4.8004150391e-02
    2.8670825195e+02   -1.4797973633e-01
    2.8680822754e+02   -2.4597167969e-01
    2.8690826416e+02   -3.4597778320e-01
    2.8700823975e+02   -4.4500732422e-01
    2.8710827637e+02   -5.4400634766e-01
    2.8720825195e+02   -6.4300537109e-01
    2.8730825806e+02   -7.4200439453e-01
    2.8740829468e+02   -8.3996582031e-01
    2.8750830078e+02   -9.3896484375e-01
    2.8760830688e+02   -1.0380249023e+00
    2.8770828247e+02   -1.1359863281e+00
    2.8780828857e+02   -1.2339477539e+00
    2.8790832520e+02   -1.3330078125e+00
    2.8800833130e+02   -1.4310302734e+00
    2.8810830688e+02   -1.5289916992e+00
    2.8820834351e+02   -1.6270141602e+00
    2.8830834961e+02   -1.7260131836e+00
    2.8840832520e+02   -1.8229980469e+00
    2.8850833130e+02   -1.9210205078e+00
    2.8860836792e+02   -2.0189819336e+00
    2.8870834351e+02   -2.1149902344e+00
    2.8880834961e+02   -2.2130126953e+00
    2.8890835571e+02   -2.3109741211e+00
    2.8900839233e+02   -2.4080200195e+00
    2.8910839844e+02   -2.5049438477e+00
    2.8920837402e+02   -2.6019897461e+00
    2.8930841064e+02   -2.6989746094e+00
    2.8940838623e+02   -2.7959594727e+00
    2.8950842285e+02   -2.8930053711e+00
    2.8960839844e+02   -2.9890136719e+00
    2.8970843506e+02   -3.0859985352e+00
    2.8980841064e+02   -3.1820068359e+00
    2.8990844727e+02   -3.2780151367e+00
    2.9000845337e+02   -3.3760375977e+00
    2.9010845947e+02   -3.4760131836e+00
    2.9020843506e+02   -3.5780029297e+00
    2.9030844116e+02   -3.6789550781e+00
    2.9040847778e+02   -3.7789916992e+00
    2.9050845337e+02   -3.8800048828e+00
    2.9060848999e+02   -3.9800415039e+00
    2.9070846558e+02   -4.0809936523e+00
    2.9080850220e+02   -4.1820068359e+00
    2.9090847778e+02   -4.2819824219e+00
    2.9100854492e+02   -4.3829956055e+00
    2.9110852051e+02   -4.4830322266e+00
    2.9120849609e+02   -4.5820312500e+00
    2.9130850220e+02   -4.6829833984e+00
    2.9140850830e+02   -4.7830200195e+00
    2.9150854492e+02   -4.8820190430e+00
    2.9160855103e+02   -4.9819946289e+00
    2.9170855713e+02   -5.0819702148e+00
    2.9180856323e+02   -5.1809692383e+00
    2.9190853882e+02   -5.2810058594e+00
    2.9200854492e+02   -5.3800048828e+00
    2.9210858154e+02   -5.4790039062e+00
    2.9220855713e+02   -5.5780029297e+00
    2.9230856323e+02   -5.6780395508e+00
    2.9240859985e+02   -5.7760009766e+00
    2.9250857544e+02   -5.8750000000e+00
    2.9260858154e+02   -5.9739990234e+00
    2.9270861816e+02   -6.0719604492e+00
    2.9280862427e+02   -6.1710205078e+00
    2.9290863037e+02   -6.2700195312e+00
    2.9300860596e+02   -6.3670043945e+00
    2.9310864258e+02   -6.4660034180e+00
    2.9320864868e+02   -6.5629882812e+00
    2.9330862427e+02   -6.6610107422e+00
    2.9340866089e+02   -6.7589721680e+00
    2.9350866699e+02   -6.8560180664e+00
    2.9360864258e+02   -6.9539794922e+00
    2.9370864868e+02   -7.0510253906e+00
    2.9380868530e+02   -7.1480102539e+00
    2.9390869141e+02   -7.2449951172e+00
    2.9400866699e+02   -7.3419799805e+00
    2.9410867310e+02   -7.4379882812e+00
    2.9420870972e+02   -7.5350341797e+00
    2.9430868530e+02   -7.6320190430e+00
    2.9440872192e+02   -7.7280273438e+00
    2.9450869751e+02   -7.8239746094e+00
    2.9460870361e+02   -7.9200439453e+00
    2.9470870972e+02   -8.0160522461e+00
    2.9480874634e+02   -8.1119995117e+00
    2.9490872192e+02   -8.2069702148e+00
    2.9500872803e+02   -8.3020019531e+00
    2.9510876465e+02   -8.3980102539e+00
    2.9520874023e+02   -8.4929809570e+00
    2.9530877686e+02   -8.5869750977e+00
    2.9540875244e+02   -8.6820068359e+00
    2.9550878906e+02   -8.7760009766e+00
    2.9560879517e+02   -8.8710327148e+00
    2.9570877075e+02   -8.9650268555e+00
    2.9580877686e+02   -9.0589599609e+00
    2.9590878296e+02   -9.1519775391e+00
    2.9600881958e+02   -9.2460327148e+00
    2.9610879517e+02   -9.3390502930e+00
    2.9620880127e+02   -9.4320068359e+00
    2.9630883789e+02   -9.5249633789e+00
    2.9640881348e+02   -9.6170043945e+00
    2.9650885010e+02   -9.7100219727e+00
    2.9660882568e+02   -9.8029785156e+00
    2.9670883179e+02   -9.8939819336e+00
    2.9680886841e+02   -9.9869995117e+00
    2.9690887451e+02   -1.0079040527e+01
    2.9700885010e+02   -1.0170043945e+01
    2.9710888672e+02   -1.0262023926e+01
    2.9720889282e+02   -1.0352966309e+01
    2.9730886841e+02   -1.0442993164e+01
    2.9740887451e+02   -1.0535034180e+01
    2.9750891113e+02   -1.0625976562e+01
    2.9760891724e+02   -1.0716003418e+01
    2.9770889282e+02   -1.0805969238e+01
    2.9780889893e+02   -1.0895996094e+01
    2.9790893555e+02   -1.0986022949e+01
    2.9800894165e+02   -1.1075988770e+01
    2.9810888672e+02   -1.1164978027e+01
    2.9820895386e+02   -1.1253967285e+01
    2.9830892944e+02   -1.1343994141e+01
    2.9840896606e+02   -1.1432006836e+01
    2.9850897217e+02   -1.1520996094e+01
    2.9860897827e+02   -1.1609985352e+01
    2.9870895386e+02   -1.1699035645e+01
    2.9880899048e+02   -1.1786010742e+01
    2.9890899658e+02   -1.1875000000e+01
    2.9900900269e+02   -1.1961975098e+01
    2.9910897827e+02   -1.2049987793e+01
    2.9920898438e+02   -1.2137023926e+01
    2.9930902100e+02   -1.2223999023e+01
    2.9940902710e+02   -1.2310974121e+01
    2.9950900269e+02   -1.2398986816e+01
    2.9960900879e+02   -1.2484985352e+01
    2.9970904541e+02   -1.2571044922e+01
    2.9980905151e+02   -1.2658020020e+01
    2.9990905762e+02   -1.2744018555e+01
endcurve
