Curveplot
LS-DYNA keyword deck by LS-PrePost
Abscissa
Ordinate
XY data
CHOP_NASX_mo-1 #pts=3000
* Minval=    -1.3679992676e+01 at time=       299.9090576172
* Maxval=     3.4978988647e+01 at time=       213.8038330078
    0.0000000000e+00    0.0000000000e+00
    9.9969372153e-02    1.5628200490e-03
    1.9999055564e-01    3.1265385915e-03
    2.9997798800e-01    4.6895337291e-03
    3.9999884367e-01    6.2532415614e-03
    4.9999368191e-01    7.8161545098e-03
    5.9994947910e-01    9.3785123900e-03
    6.9995683432e-01    1.0943921283e-02
    7.9995691776e-01    1.2507842854e-02
    8.9995783567e-01    1.4069465920e-02
    9.9997615814e-01    1.5629855916e-02
    1.0999749899e+00    1.7189409584e-02
    1.1999589205e+00    1.8750138581e-02
    1.2999641895e+00    2.0312774926e-02
    1.3999682665e+00    2.1878007799e-02
    1.4999890327e+00    2.3446736857e-02
    1.5999946594e+00    2.5017654523e-02
    1.6999493837e+00    2.6589080691e-02
    1.7999840975e+00    2.8163636103e-02
    1.8999625444e+00    2.9736764729e-02
    1.9999979734e+00    3.1311519444e-02
    2.0999755859e+00    3.2886173576e-02
    2.1999657154e+00    3.4459862858e-02
    2.2999944687e+00    3.6033190787e-02
    2.3999969959e+00    3.7604581565e-02
    2.4999971390e+00    3.9175301790e-02
    2.5999636650e+00    4.0744520724e-02
    2.6999635696e+00    4.2312607169e-02
    2.7999787331e+00    4.3878857046e-02
    2.8999865055e+00    4.5443791896e-02
    2.9999670982e+00    4.7004818916e-02
    3.0999732018e+00    4.8564836383e-02
    3.1999964714e+00    5.0122771412e-02
    3.2999606133e+00    5.1677547395e-02
    3.3999693394e+00    5.3232301027e-02
    3.4999444485e+00    5.4786879569e-02
    3.5999779701e+00    5.6343179196e-02
    3.6999688148e+00    5.7898890227e-02
    3.7999927998e+00    5.9456601739e-02
    3.8999881744e+00    6.1013568193e-02
    3.9999790192e+00    6.2571235001e-02
    4.0999979973e+00    6.4128629863e-02
    4.1999869347e+00    6.5685622394e-02
    4.2999892235e+00    6.7241199315e-02
    4.3999638557e+00    6.8795137107e-02
    4.4999594688e+00    7.0348322392e-02
    4.5999741554e+00    7.1901038289e-02
    4.6999936104e+00    7.3451332748e-02
    4.7999687195e+00    7.4999161065e-02
    4.8999819756e+00    7.6546378434e-02
    4.9999451637e+00    7.8090578318e-02
    5.0999517441e+00    7.9633995891e-02
    5.1999678612e+00    8.1174433231e-02
    5.2999477386e+00    8.2711115479e-02
    5.3999924660e+00    8.4245458245e-02
    5.4999446869e+00    8.5775606334e-02
    5.5999689102e+00    8.7304204702e-02
    5.6999573708e+00    8.8830783963e-02
    5.7999835014e+00    9.0354971588e-02
    5.8999633789e+00    9.1878443956e-02
    5.9999904633e+00    9.3401275575e-02
    6.0999917984e+00    9.4920545816e-02
    6.1999559402e+00    9.6439324319e-02
    6.2999868393e+00    9.7955890000e-02
    6.3999643326e+00    9.9469386041e-02
    6.4999818802e+00    1.0097996891e-01
    6.5999855995e+00    1.0248628259e-01
    6.6999430656e+00    1.0398704559e-01
    6.7999916077e+00    1.0548759997e-01
    6.8999857903e+00    1.0698196292e-01
    6.9999866486e+00    1.0847531259e-01
    7.0999903679e+00    1.0996519029e-01
    7.1999754906e+00    1.1145085096e-01
    7.2999916077e+00    1.1293482035e-01
    7.3999700546e+00    1.1441510171e-01
    7.4999904633e+00    1.1589144170e-01
    7.5999941826e+00    1.1736723781e-01
    7.6999754906e+00    1.1883895844e-01
    7.7999663353e+00    1.2030906975e-01
    7.8999881744e+00    1.2177966535e-01
    7.9999499321e+00    1.2324469537e-01
    8.0999841690e+00    1.2471251190e-01
    8.1999864578e+00    1.2617889047e-01
    8.2999477386e+00    1.2764433026e-01
    8.3999547958e+00    1.2910929322e-01
    8.4999647141e+00    1.3057339191e-01
    8.5999832153e+00    1.3203504682e-01
    8.6999530792e+00    1.3349267840e-01
    8.7999639511e+00    1.3494920731e-01
    8.8999767303e+00    1.3640168309e-01
    8.9999771118e+00    1.3785280287e-01
    9.0999765396e+00    1.3930012286e-01
    9.1999673843e+00    1.4074556530e-01
    9.2999715805e+00    1.4218871295e-01
    9.3999557495e+00    1.4362767339e-01
    9.4999561310e+00    1.4506518841e-01
    9.5999441147e+00    1.4650020003e-01
    9.6999645233e+00    1.4793232083e-01
    9.7999467850e+00    1.4936088026e-01
    9.8999977112e+00    1.5078826249e-01
    9.9999589920e+00    1.5221060812e-01
    1.0099968910e+01    1.5612079203e-01
    1.0199953079e+01    1.6002909839e-01
    1.0299945831e+01    1.6393521428e-01
    1.0399965286e+01    1.6784167290e-01
    1.0499965668e+01    1.7174474895e-01
    1.0599949837e+01    1.7564740777e-01
    1.0699962616e+01    1.7955160141e-01
    1.0800002098e+01    1.8344990909e-01
    1.0899985313e+01    1.8733985722e-01
    1.0999961853e+01    1.9122545421e-01
    1.1099952698e+01    1.9510777295e-01
    1.1199979782e+01    1.9899269938e-01
    1.1299984932e+01    2.0287480950e-01
    1.1399976730e+01    2.0675724745e-01
    1.1499999046e+01    2.1064300835e-01
    1.1599985123e+01    2.1452869475e-01
    1.1699957848e+01    2.1841397882e-01
    1.1799983025e+01    2.2230149806e-01
    1.1899961472e+01    2.2618326545e-01
    1.1999995232e+01    2.3006540537e-01
    1.2099998474e+01    2.3394383490e-01
    1.2199968338e+01    2.3781652749e-01
    1.2299962997e+01    2.4168479443e-01
    1.2399999619e+01    2.4554979801e-01
    1.2499962807e+01    2.4940867722e-01
    1.2599994659e+01    2.5326451659e-01
    1.2699981689e+01    2.5711280107e-01
    1.2799963951e+01    2.6095452905e-01
    1.2899968147e+01    2.6478877664e-01
    1.2999986649e+01    2.6861771941e-01
    1.3099967003e+01    2.7243679762e-01
    1.3199962616e+01    2.7624860406e-01
    1.3299996376e+01    2.8005498648e-01
    1.3399962425e+01    2.8385087848e-01
    1.3499993324e+01    2.8764510155e-01
    1.3599989891e+01    2.9143449664e-01
    1.3700004578e+01    2.9521918297e-01
    1.3799965858e+01    2.9900079966e-01
    1.3900013924e+01    3.0278009176e-01
    1.3999975204e+01    3.0655330420e-01
    1.4099980354e+01    3.1032338738e-01
    1.4199968338e+01    3.1408560276e-01
    1.4300005913e+01    3.1784310937e-01
    1.4399991035e+01    3.2159459591e-01
    1.4499982834e+01    3.2533890009e-01
    1.4599979401e+01    3.2907858491e-01
    1.4700016975e+01    3.3281320333e-01
    1.4800003052e+01    3.3653751016e-01
    1.4899967194e+01    3.4025791287e-01
    1.4999972343e+01    3.4397271276e-01
    1.5100006104e+01    3.4768140316e-01
    1.5200000763e+01    3.5138079524e-01
    1.5300013542e+01    3.5507020354e-01
    1.5399974823e+01    3.5875019431e-01
    1.5499973297e+01    3.6242237687e-01
    1.5600020409e+01    3.6608690023e-01
    1.5700016975e+01    3.6974099278e-01
    1.5800010681e+01    3.7338909507e-01
    1.5899975777e+01    3.7702912092e-01
    1.5999968529e+01    3.8066458702e-01
    1.6100006104e+01    3.8429561257e-01
    1.6199974060e+01    3.8791531324e-01
    1.6300014496e+01    3.9153128862e-01
    1.6399993896e+01    3.9513650537e-01
    1.6500005722e+01    3.9873272181e-01
    1.6599990845e+01    4.0231919289e-01
    1.6699998856e+01    4.0589651465e-01
    1.6800025940e+01    4.0946519375e-01
    1.6899978638e+01    4.1302439570e-01
    1.7000017166e+01    4.1657510400e-01
    1.7100017548e+01    4.2011538148e-01
    1.7200006485e+01    4.2364829779e-01
    1.7299999237e+01    4.2717078328e-01
    1.7400011063e+01    4.3068698049e-01
    1.7500020981e+01    4.3419408798e-01
    1.7599994659e+01    4.3769082427e-01
    1.7699985504e+01    4.4118112326e-01
    1.7799989700e+01    4.4466522336e-01
    1.7900009155e+01    4.4813981652e-01
    1.8000007629e+01    4.5160979033e-01
    1.8100017548e+01    4.5507398248e-01
    1.8200019836e+01    4.5853370428e-01
    1.8299976349e+01    4.6199089289e-01
    1.8400022507e+01    4.6544250846e-01
    1.8499998093e+01    4.6888568997e-01
    1.8599983215e+01    4.7232291102e-01
    1.8700006485e+01    4.7575283051e-01
    1.8799987793e+01    4.7917559743e-01
    1.8899988174e+01    4.8259058595e-01
    1.9000005722e+01    4.8599758744e-01
    1.9099994659e+01    4.8939743638e-01
    1.9199981689e+01    4.9278742075e-01
    1.9300027847e+01    4.9617001414e-01
    1.9399980545e+01    4.9954107404e-01
    1.9500032425e+01    5.0290709734e-01
    1.9600013733e+01    5.0626122952e-01
    1.9700033188e+01    5.0960981846e-01
    1.9799993515e+01    5.1294678450e-01
    1.9900007248e+01    5.1627600193e-01
    1.9999984741e+01    5.1959383488e-01
    2.0099990845e+01    5.2559441328e-01
    2.0200040817e+01    5.3159070015e-01
    2.0299999237e+01    5.3757315874e-01
    2.0400026321e+01    5.4355186224e-01
    2.0500040054e+01    5.4952371120e-01
    2.0600002289e+01    5.5548262596e-01
    2.0699995041e+01    5.6143790483e-01
    2.0799997330e+01    5.6738388538e-01
    2.0900028229e+01    5.7331609726e-01
    2.1000000000e+01    5.7923477888e-01
    2.1100023270e+01    5.8514624834e-01
    2.1200017929e+01    5.9104847908e-01
    2.1300012589e+01    5.9694248438e-01
    2.1400011063e+01    6.0283148289e-01
    2.1500007629e+01    6.0871398449e-01
    2.1600028992e+01    6.1459505558e-01
    2.1700025558e+01    6.2046647072e-01
    2.1800006866e+01    6.2633031607e-01
    2.1899997711e+01    6.3218533993e-01
    2.2000017166e+01    6.3803189993e-01
    2.2099994659e+01    6.4386731386e-01
    2.2200014114e+01    6.4969396591e-01
    2.2300012589e+01    6.5550619364e-01
    2.2400020599e+01    6.6130810976e-01
    2.2500034332e+01    6.6709804535e-01
    2.2600044250e+01    6.7287498713e-01
    2.2700012207e+01    6.7863649130e-01
    2.2800018311e+01    6.8438714743e-01
    2.2900026321e+01    6.9012171030e-01
    2.3000047684e+01    6.9584238529e-01
    2.3100036621e+01    7.0154517889e-01
    2.3200029373e+01    7.0723301172e-01
    2.3300020218e+01    7.1290570498e-01
    2.3400012970e+01    7.1856260300e-01
    2.3500017166e+01    7.2420853376e-01
    2.3600040436e+01    7.2984308004e-01
    2.3700029373e+01    7.3546338081e-01
    2.3800006866e+01    7.4107384682e-01
    2.3900020599e+01    7.4667340517e-01
    2.4000034332e+01    7.5225985050e-01
    2.4100019455e+01    7.5783407688e-01
    2.4200014114e+01    7.6339471340e-01
    2.4300003052e+01    7.6893973351e-01
    2.4400007248e+01    7.7447152138e-01
    2.4500022888e+01    7.7998852730e-01
    2.4600021362e+01    7.8549265862e-01
    2.4700025558e+01    7.9098272324e-01
    2.4800027847e+01    7.9645878077e-01
    2.4900009155e+01    8.0192160606e-01
    2.5000049591e+01    8.0737179518e-01
    2.5100011826e+01    8.1280374527e-01
    2.5200056076e+01    8.1822580099e-01
    2.5300014496e+01    8.2362681627e-01
    2.5400028229e+01    8.2901388407e-01
    2.5500017166e+01    8.3438342810e-01
    2.5600038528e+01    8.3973658085e-01
    2.5700052261e+01    8.4507501125e-01
    2.5800018311e+01    8.5039699078e-01
    2.5900047302e+01    8.5570603609e-01
    2.6000038147e+01    8.6100095510e-01
    2.6100030899e+01    8.6628198624e-01
    2.6200033188e+01    8.7154799700e-01
    2.6300012589e+01    8.7679797411e-01
    2.6400020599e+01    8.8203299046e-01
    2.6500019073e+01    8.8725095987e-01
    2.6600025177e+01    8.9245098829e-01
    2.6700038910e+01    8.9763998985e-01
    2.6800050735e+01    9.0280407667e-01
    2.6900020599e+01    9.0795099735e-01
    2.7000040054e+01    9.1308802366e-01
    2.7100059509e+01    9.1820001602e-01
    2.7200029373e+01    9.2330497503e-01
    2.7300035477e+01    9.2838191986e-01
    2.7400028229e+01    9.3344503641e-01
    2.7500034332e+01    9.3850100040e-01
    2.7600067139e+01    9.4352900982e-01
    2.7700021744e+01    9.4854497910e-01
    2.7800018311e+01    9.5355194807e-01
    2.7900060654e+01    9.5853406191e-01
    2.8000028610e+01    9.6351402998e-01
    2.8100032806e+01    9.6846801043e-01
    2.8200035095e+01    9.7341197729e-01
    2.8300062180e+01    9.7835397720e-01
    2.8400035858e+01    9.8327094316e-01
    2.8500066757e+01    9.8818296194e-01
    2.8600051880e+01    9.9306905270e-01
    2.8700052261e+01    9.9793899059e-01
    2.8800039291e+01    1.0028040409e+00
    2.8900037766e+01    1.0076420307e+00
    2.9000066757e+01    1.0124750137e+00
    2.9100070953e+01    1.0172820091e+00
    2.9200029373e+01    1.0220730305e+00
    2.9300035477e+01    1.0268560648e+00
    2.9400074005e+01    1.0316100121e+00
    2.9500064850e+01    1.0363589525e+00
    2.9600063324e+01    1.0410809517e+00
    2.9700048447e+01    1.0457860231e+00
    2.9800052643e+01    1.0504829884e+00
    2.9900037766e+01    1.0551509857e+00
    3.0000030518e+01    1.0598000288e+00
    3.0100051880e+01    1.0704209805e+00
    3.0200067520e+01    1.0810250044e+00
    3.0300071716e+01    1.0916110277e+00
    3.0400043488e+01    1.1021809578e+00
    3.0500032425e+01    1.1127229929e+00
    3.0600063324e+01    1.1232689619e+00
    3.0700061798e+01    1.1337859631e+00
    3.0800043106e+01    1.1442869902e+00
    3.0900053024e+01    1.1547589302e+00
    3.1000055313e+01    1.1652090549e+00
    3.1100034714e+01    1.1756279469e+00
    3.1200080872e+01    1.1860439777e+00
    3.1300062180e+01    1.1964479685e+00
    3.1400072098e+01    1.2068400383e+00
    3.1500070572e+01    1.2172260284e+00
    3.1600053787e+01    1.2275910378e+00
    3.1700050354e+01    1.2379559278e+00
    3.1800060272e+01    1.2483060360e+00
    3.1900064468e+01    1.2586369514e+00
    3.2000026703e+01    1.2689429522e+00
    3.2100051880e+01    1.2792389393e+00
    3.2200065613e+01    1.2895119190e+00
    3.2300048828e+01    1.2997629642e+00
    3.2400024414e+01    1.3099799156e+00
    3.2500053406e+01    1.3201830387e+00
    3.2600021362e+01    1.3303660154e+00
    3.2700046539e+01    1.3405179977e+00
    3.2800056458e+01    1.3506439924e+00
    3.2900035858e+01    1.3607330322e+00
    3.3000053406e+01    1.3708000183e+00
    3.3100025177e+01    1.3808399439e+00
    3.3200035095e+01    1.3908499479e+00
    3.3300052643e+01    1.4008309841e+00
    3.3400028229e+01    1.4107779264e+00
    3.3500053406e+01    1.4207119942e+00
    3.3600013733e+01    1.4306279421e+00
    3.3700012207e+01    1.4405128956e+00
    3.3800052643e+01    1.4503970146e+00
    3.3900043488e+01    1.4602459669e+00
    3.4000041962e+01    1.4700839520e+00
    3.4100032806e+01    1.4798970222e+00
    3.4200038910e+01    1.4896839857e+00
    3.4300029755e+01    1.4994349480e+00
    3.4400024414e+01    1.5091689825e+00
    3.4500041962e+01    1.5188789368e+00
    3.4600028992e+01    1.5285639763e+00
    3.4700027466e+01    1.5382109880e+00
    3.4800022125e+01    1.5478439331e+00
    3.4900005341e+01    1.5574499369e+00
    3.4999980927e+01    1.5670199394e+00
    3.5100032806e+01    1.5765789747e+00
    3.5199989319e+01    1.5860899687e+00
    3.5299980164e+01    1.5955799818e+00
    3.5399993896e+01    1.6050379276e+00
    3.5499984741e+01    1.6144518852e+00
    3.5600017548e+01    1.6238449812e+00
    3.5699970245e+01    1.6332108974e+00
    3.5799976349e+01    1.6425368786e+00
    3.5899997711e+01    1.6518589258e+00
    3.5999988556e+01    1.6611349583e+00
    3.6100006104e+01    1.6703931093e+00
    3.6199993134e+01    1.6796259880e+00
    3.6299991608e+01    1.6888260841e+00
    3.6399982452e+01    1.6979869604e+00
    3.6499977112e+01    1.7071260214e+00
    3.6599960327e+01    1.7162280083e+00
    3.6699962616e+01    1.7252860069e+00
    3.6799980164e+01    1.7343219519e+00
    3.6900001526e+01    1.7433300018e+00
    3.7000003815e+01    1.7522879839e+00
    3.7099960327e+01    1.7612240314e+00
    3.7199996948e+01    1.7701219320e+00
    3.7299957275e+01    1.7789831161e+00
    3.7399974823e+01    1.7878189087e+00
    3.7499973297e+01    1.7966220379e+00
    3.7599990845e+01    1.8053939342e+00
    3.7699962616e+01    1.8141270876e+00
    3.7799957275e+01    1.8228409290e+00
    3.7899986267e+01    1.8315260410e+00
    3.7999946594e+01    1.8401739597e+00
    3.8099952698e+01    1.8488070965e+00
    3.8199977875e+01    1.8574168682e+00
    3.8299942017e+01    1.8660060167e+00
    3.8399940491e+01    1.8745689392e+00
    3.8499961853e+01    1.8831009865e+00
    3.8599952698e+01    1.8915929794e+00
    3.8699943542e+01    1.9000660181e+00
    3.8799926758e+01    1.9085049629e+00
    3.8899929047e+01    1.9169020653e+00
    3.8999965668e+01    1.9252879620e+00
    3.9099929810e+01    1.9336240292e+00
    3.9199947357e+01    1.9419388771e+00
    3.9299926758e+01    1.9502201080e+00
    3.9399963379e+01    1.9584629536e+00
    3.9499942780e+01    1.9666680098e+00
    3.9599914551e+01    1.9748499393e+00
    3.9699916840e+01    1.9829990864e+00
    3.9799957275e+01    1.9911129475e+00
    3.9899959564e+01    1.9991910458e+00
    3.9999923706e+01    2.0072269440e+00
    4.0099937439e+01    2.0230200291e+00
    4.0199920654e+01    2.0387911797e+00
    4.0299907684e+01    2.0545220375e+00
    4.0399902344e+01    2.0702219009e+00
    4.0499912262e+01    2.0859010220e+00
    4.0599941254e+01    2.1015510559e+00
    4.0699932098e+01    2.1171789169e+00
    4.0799915314e+01    2.1327540874e+00
    4.0899909973e+01    2.1482810974e+00
    4.0999912262e+01    2.1637799740e+00
    4.1099918365e+01    2.1792399883e+00
    4.1199924469e+01    2.1946620941e+00
    4.1299896240e+01    2.2100689411e+00
    4.1399898529e+01    2.2254400253e+00
    4.1499912262e+01    2.2408041954e+00
    4.1599884033e+01    2.2561349869e+00
    4.1699913025e+01    2.2714481354e+00
    4.1799896240e+01    2.2867250443e+00
    4.1899913788e+01    2.3019740582e+00
    4.1999908447e+01    2.3171939850e+00
    4.2099922180e+01    2.3323798180e+00
    4.2199886322e+01    2.3475198746e+00
    4.2299922943e+01    2.3626241684e+00
    4.2399871826e+01    2.3776831627e+00
    4.2499904633e+01    2.3927071095e+00
    4.2599872589e+01    2.4076850414e+00
    4.2699874878e+01    2.4226150513e+00
    4.2799869537e+01    2.4375088215e+00
    4.2899879456e+01    2.4523558617e+00
    4.2999862671e+01    2.4671421051e+00
    4.3099868774e+01    2.4818880558e+00
    4.3199905396e+01    2.4965801239e+00
    4.3299907684e+01    2.5112218857e+00
    4.3399898529e+01    2.5258128643e+00
    4.3499855042e+01    2.5403649807e+00
    4.3599872589e+01    2.5548818111e+00
    4.3699867249e+01    2.5693531036e+00
    4.3799896240e+01    2.5837969780e+00
    4.3899856567e+01    2.5981950760e+00
    4.3999885559e+01    2.6125609875e+00
    4.4099891663e+01    2.6268839836e+00
    4.4199867249e+01    2.6411528587e+00
    4.4299858093e+01    2.6553771496e+00
    4.4399879456e+01    2.6695611477e+00
    4.4499858856e+01    2.6837019920e+00
    4.4599876404e+01    2.6977961063e+00
    4.4699840546e+01    2.7118279934e+00
    4.4799873352e+01    2.7258410454e+00
    4.4899883270e+01    2.7397928238e+00
    4.4999877930e+01    2.7537078857e+00
    4.5099845886e+01    2.7675681114e+00
    4.5199844360e+01    2.7813730240e+00
    4.5299839020e+01    2.7951350212e+00
    4.5399822235e+01    2.8088340759e+00
    4.5499824524e+01    2.8224849701e+00
    4.5599822998e+01    2.8360748291e+00
    4.5699844360e+01    2.8496222496e+00
    4.5799823761e+01    2.8631229401e+00
    4.5899822235e+01    2.8765680790e+00
    4.5999855042e+01    2.8899750710e+00
    4.6099830627e+01    2.9033279419e+00
    4.6199844360e+01    2.9166419506e+00
    4.6299812317e+01    2.9298968315e+00
    4.6399829865e+01    2.9431071281e+00
    4.6499832153e+01    2.9562640190e+00
    4.6599807739e+01    2.9693560600e+00
    4.6699855804e+01    2.9824049473e+00
    4.6799850464e+01    2.9953839779e+00
    4.6899826050e+01    3.0083098412e+00
    4.6999835968e+01    3.0211868286e+00
    4.7099834442e+01    3.0340011120e+00
    4.7199813843e+01    3.0467710495e+00
    4.7299812317e+01    3.0594770908e+00
    4.7399799347e+01    3.0721406937e+00
    4.7499816895e+01    3.0847368240e+00
    4.7599807739e+01    3.0972912312e+00
    4.7699836731e+01    3.1097929478e+00
    4.7799804688e+01    3.1222391129e+00
    4.7899787903e+01    3.1346337795e+00
    4.7999805450e+01    3.1469900608e+00
    4.8099811554e+01    3.1593098640e+00
    4.8199802399e+01    3.1715798378e+00
    4.8299804688e+01    3.1838202477e+00
    4.8399799347e+01    3.1959998608e+00
    4.8499828339e+01    3.2081501484e+00
    4.8599803925e+01    3.2202298641e+00
    4.8699810028e+01    3.2322700024e+00
    4.8799808502e+01    3.2442598343e+00
    4.8899799347e+01    3.2561898232e+00
    4.8999794006e+01    3.2680802345e+00
    4.9099792480e+01    3.2799098492e+00
    4.9199817657e+01    3.2916901112e+00
    4.9299774170e+01    3.3034198284e+00
    4.9399799347e+01    3.3151001930e+00
    4.9499805450e+01    3.3267197609e+00
    4.9599765778e+01    3.3382799625e+00
    4.9699779510e+01    3.3498001099e+00
    4.9799777985e+01    3.3612499237e+00
    4.9899784088e+01    3.3726601601e+00
    4.9999759674e+01    3.3839998245e+00
    5.0099765778e+01    3.4048600197e+00
    5.0199790955e+01    3.4257102013e+00
    5.0299774170e+01    3.4464898109e+00
    5.0399799347e+01    3.4672198296e+00
    5.0499790192e+01    3.4879102707e+00
    5.0599781036e+01    3.5085401535e+00
    5.0699787140e+01    3.5291399956e+00
    5.0799785614e+01    3.5496597290e+00
    5.0899772644e+01    3.5701098442e+00
    5.0999782562e+01    3.5905001163e+00
    5.1099773407e+01    3.6108300686e+00
    5.1199760437e+01    3.6311099529e+00
    5.1299774170e+01    3.6513397694e+00
    5.1399742126e+01    3.6715302467e+00
    5.1499763489e+01    3.6916899681e+00
    5.1599750519e+01    3.7117900848e+00
    5.1699771881e+01    3.7318596840e+00
    5.1799739838e+01    3.7518701553e+00
    5.1899738312e+01    3.7718200684e+00
    5.1999740601e+01    3.7917299271e+00
    5.2099754333e+01    3.8115797043e+00
    5.2199748993e+01    3.8313698769e+00
    5.2299751282e+01    3.8510901928e+00
    5.2399753571e+01    3.8707399368e+00
    5.2499752045e+01    3.8903298378e+00
    5.2599731445e+01    3.9098596573e+00
    5.2699722290e+01    3.9293203354e+00
    5.2799758911e+01    3.9487099648e+00
    5.2899726868e+01    3.9680199623e+00
    5.2999736786e+01    3.9872598648e+00
    5.3099754333e+01    4.0064201355e+00
    5.3199714661e+01    4.0255002975e+00
    5.3299724579e+01    4.0444998741e+00
    5.3399726868e+01    4.0634298325e+00
    5.3499721527e+01    4.0823097229e+00
    5.3599708557e+01    4.1011099815e+00
    5.3699748993e+01    4.1198601723e+00
    5.3799709320e+01    4.1385397911e+00
    5.3899726868e+01    4.1571598053e+00
    5.3999721527e+01    4.1757302284e+00
    5.4099693298e+01    4.1942100525e+00
    5.4199707031e+01    4.2126297951e+00
    5.4299690247e+01    4.2309699059e+00
    5.4399692535e+01    4.2492504120e+00
    5.4499698639e+01    4.2674598694e+00
    5.4599689484e+01    4.2855901718e+00
    5.4699687958e+01    4.3036699295e+00
    5.4799682617e+01    4.3216600418e+00
    5.4899684906e+01    4.3395900726e+00
    5.4999702454e+01    4.3574500084e+00
    5.5099720001e+01    4.3752398491e+00
    5.5199710846e+01    4.3929395676e+00
    5.5299713135e+01    4.4105701447e+00
    5.5399700165e+01    4.4281201363e+00
    5.5499687195e+01    4.4455900192e+00
    5.5599689484e+01    4.4629797935e+00
    5.5699680328e+01    4.4802799225e+00
    5.5799705505e+01    4.4975399971e+00
    5.5899681091e+01    4.5147099495e+00
    5.5999660492e+01    4.5318098068e+00
    5.6099704742e+01    4.5488500595e+00
    5.6199672699e+01    4.5657901764e+00
    5.6299667358e+01    4.5826797485e+00
    5.6399673462e+01    4.5994901657e+00
    5.6499664307e+01    4.6162099838e+00
    5.6599678040e+01    4.6328501701e+00
    5.6699691772e+01    4.6494102478e+00
    5.6799652100e+01    4.6658802032e+00
    5.6899677277e+01    4.6822900772e+00
    5.6999671936e+01    4.6986002922e+00
    5.7099697113e+01    4.7148303986e+00
    5.7199676514e+01    4.7309799194e+00
    5.7299652100e+01    4.7470498085e+00
    5.7399658203e+01    4.7630500793e+00
    5.7499645233e+01    4.7789697647e+00
    5.7599658966e+01    4.7947998047e+00
    5.7699672699e+01    4.8105697632e+00
    5.7799648285e+01    4.8262500763e+00
    5.7899642944e+01    4.8418703079e+00
    5.7999679565e+01    4.8574099541e+00
    5.8099643707e+01    4.8728899956e+00
    5.8199649811e+01    4.8883099556e+00
    5.8299633026e+01    4.9036602974e+00
    5.8399639130e+01    4.9189400673e+00
    5.8499671936e+01    4.9341602325e+00
    5.8599662781e+01    4.9492797852e+00
    5.8699653625e+01    4.9643497467e+00
    5.8799621582e+01    4.9793200493e+00
    5.8899646759e+01    4.9942302704e+00
    5.8999633789e+01    5.0090599060e+00
    5.9099666595e+01    5.0238199234e+00
    5.9199634552e+01    5.0384902954e+00
    5.9299610138e+01    5.0530900955e+00
    5.9399658203e+01    5.0676097870e+00
    5.9499626160e+01    5.0820398331e+00
    5.9599647522e+01    5.0964002609e+00
    5.9699642181e+01    5.1106801033e+00
    5.9799633026e+01    5.1248798370e+00
    5.9899600983e+01    5.1389799118e+00
    5.9999641418e+01    5.1530094147e+00
    6.0099624634e+01    5.1781501770e+00
    6.0199611664e+01    5.2032399178e+00
    6.0299610138e+01    5.2282495499e+00
    6.0399639130e+01    5.2532100677e+00
    6.0499641418e+01    5.2780699730e+00
    6.0599597931e+01    5.3028497696e+00
    6.0699615479e+01    5.3275699615e+00
    6.0799621582e+01    5.3521900177e+00
    6.0899604797e+01    5.3767099380e+00
    6.0999618530e+01    5.4011497498e+00
    6.1099601746e+01    5.4254899025e+00
    6.1199615479e+01    5.4497604370e+00
    6.1299621582e+01    5.4739503860e+00
    6.1399589539e+01    5.4980707169e+00
    6.1499622345e+01    5.5221405029e+00
    6.1599594116e+01    5.5461297035e+00
    6.1699611664e+01    5.5700597763e+00
    6.1799571991e+01    5.5939102173e+00
    6.1899570465e+01    5.6176795959e+00
    6.1999580383e+01    5.6413803101e+00
    6.2099594116e+01    5.6649799347e+00
    6.2199600220e+01    5.6885004044e+00
    6.2299606323e+01    5.7119297981e+00
    6.2399574280e+01    5.7352399826e+00
    6.2499568939e+01    5.7584800720e+00
    6.2599597931e+01    5.7816305161e+00
    6.2699577332e+01    5.8046803474e+00
    6.2799564362e+01    5.8276200294e+00
    6.2899555206e+01    5.8504600525e+00
    6.2999576569e+01    5.8732004166e+00
    6.3099571228e+01    5.8958201408e+00
    6.3199584961e+01    5.9183397293e+00
    6.3299587250e+01    5.9407596588e+00
    6.3399547577e+01    5.9630498886e+00
    6.3499572754e+01    5.9852895737e+00
    6.3599555969e+01    6.0074195862e+00
    6.3699588776e+01    6.0294599533e+00
    6.3799549103e+01    6.0514001846e+00
    6.3899539948e+01    6.0732703209e+00
    6.3999588013e+01    6.0950498581e+00
    6.4099540710e+01    6.1167201996e+00
    6.4199569702e+01    6.1382999420e+00
    6.4299560547e+01    6.1597900391e+00
    6.4399559021e+01    6.1811599731e+00
    6.4499580383e+01    6.2024307251e+00
    6.4599548340e+01    6.2235999107e+00
    6.4699569702e+01    6.2446804047e+00
    6.4799568176e+01    6.2656698227e+00
    6.4899559021e+01    6.2865605354e+00
    6.4999549866e+01    6.3073406219e+00
    6.5099555969e+01    6.3280200958e+00
    6.5199554443e+01    6.3485994339e+00
    6.5299545288e+01    6.3690705299e+00
    6.5399528503e+01    6.3894195557e+00
    6.5499534607e+01    6.4096698761e+00
    6.5599548340e+01    6.4298095703e+00
    6.5699523926e+01    6.4498395920e+00
    6.5799530029e+01    6.4697799683e+00
    6.5899536133e+01    6.4895997047e+00
    6.5999542236e+01    6.5093994141e+00
    6.6099525452e+01    6.5290002823e+00
    6.6199531555e+01    6.5484905243e+00
    6.6299537659e+01    6.5679802895e+00
    6.6399520874e+01    6.5872697830e+00
    6.6499534607e+01    6.6065397263e+00
    6.6599533081e+01    6.6255898476e+00
    6.6699516296e+01    6.6446399689e+00
    6.6799514771e+01    6.6634798050e+00
    6.6899497986e+01    6.6822004318e+00
    6.6999519348e+01    6.7009000778e+00
    6.7099494934e+01    6.7194099426e+00
    6.7199516296e+01    6.7378902435e+00
    6.7299545288e+01    6.7561597824e+00
    6.7399536133e+01    6.7744297981e+00
    6.7499534607e+01    6.7924900055e+00
    6.7599494934e+01    6.8104505539e+00
    6.7699523926e+01    6.8283805847e+00
    6.7799491882e+01    6.8461303711e+00
    6.7899528503e+01    6.8638501167e+00
    6.7999496460e+01    6.8814001083e+00
    6.8099494934e+01    6.8989500999e+00
    6.8199531555e+01    6.9162998199e+00
    6.8299507141e+01    6.9336595535e+00
    6.8399497986e+01    6.9508295059e+00
    6.8499481201e+01    6.9679002762e+00
    6.8599517822e+01    6.9849400520e+00
    6.8699485779e+01    7.0018000603e+00
    6.8799491882e+01    7.0186400414e+00
    6.8899482727e+01    7.0352797508e+00
    6.8999511719e+01    7.0518999100e+00
    6.9099487305e+01    7.0683298111e+00
    6.9199485779e+01    7.0846505165e+00
    6.9299499512e+01    7.1009502411e+00
    6.9399482727e+01    7.1170501709e+00
    6.9499458313e+01    7.1331400871e+00
    6.9599494934e+01    7.1490101814e+00
    6.9699470520e+01    7.1648797989e+00
    6.9799484253e+01    7.1805295944e+00
    6.9899482727e+01    7.1961598396e+00
    6.9999481201e+01    7.2115802765e+00
    7.0099487305e+01    7.2379999161e+00
    7.0199455261e+01    7.2642998695e+00
    7.0299499512e+01    7.2905902863e+00
    7.0399452209e+01    7.3166899681e+00
    7.0499488831e+01    7.3427600861e+00
    7.0599441528e+01    7.3686504364e+00
    7.0699470520e+01    7.3945102692e+00
    7.0799446106e+01    7.4201698303e+00
    7.0899482727e+01    7.4457798004e+00
    7.0999481201e+01    7.4711804390e+00
    7.1099456787e+01    7.4964599609e+00
    7.1199447632e+01    7.5217394829e+00
    7.1299430847e+01    7.5468101501e+00
    7.1399467468e+01    7.5718598366e+00
    7.1499427795e+01    7.5967497826e+00
    7.1599456787e+01    7.6216201782e+00
    7.1699462891e+01    7.6462898254e+00
    7.1799430847e+01    7.6708698273e+00
    7.1899452209e+01    7.6954202652e+00
    7.1999465942e+01    7.7198600769e+00
    7.2099418640e+01    7.7441096306e+00
    7.2199432373e+01    7.7682204247e+00
    7.2299461365e+01    7.7923002243e+00
    7.2399459839e+01    7.8161697388e+00
    7.2499458313e+01    7.8400206566e+00
    7.2599411011e+01    7.8636603355e+00
    7.2699409485e+01    7.8871498108e+00
    7.2799415588e+01    7.9106206894e+00
    7.2899436951e+01    7.9339404106e+00
    7.2999443054e+01    7.9570198059e+00
    7.3099418640e+01    7.9799804688e+00
    7.3199409485e+01    8.0029001236e+00
    7.3299407959e+01    8.0255699158e+00
    7.3399421692e+01    8.0482196808e+00
    7.3499420166e+01    8.0706405640e+00
    7.3599449158e+01    8.0930299759e+00
    7.3699409485e+01    8.1152191162e+00
    7.3799430847e+01    8.1373710632e+00
    7.3899414062e+01    8.1593198776e+00
    7.3999435425e+01    8.1812295914e+00
    7.4099388123e+01    8.2029399872e+00
    7.4199432373e+01    8.2245903015e+00
    7.4299423218e+01    8.2460298538e+00
    7.4399414062e+01    8.2673301697e+00
    7.4499397278e+01    8.2885999680e+00
    7.4599395752e+01    8.3096399307e+00
    7.4699401855e+01    8.3306493759e+00
    7.4799407959e+01    8.3514404297e+00
    7.4899383545e+01    8.3720998764e+00
    7.4999374390e+01    8.3927402496e+00
    7.5099372864e+01    8.4131402969e+00
    7.5199401855e+01    8.4334897995e+00
    7.5299400330e+01    8.4536104202e+00
    7.5399368286e+01    8.4737100601e+00
    7.5499412537e+01    8.4935302734e+00
    7.5599403381e+01    8.5133399963e+00
    7.5699401855e+01    8.5329103470e+00
    7.5799392700e+01    8.5524501801e+00
    7.5899391174e+01    8.5717697144e+00
    7.5999374390e+01    8.5910606384e+00
    7.6099372864e+01    8.6101093292e+00
    7.6199371338e+01    8.6290302277e+00
    7.6299362183e+01    8.6479206085e+00
    7.6399375916e+01    8.6665706635e+00
    7.6499389648e+01    8.6851692200e+00
    7.6599357605e+01    8.7035503387e+00
    7.6699348450e+01    8.7218799591e+00
    7.6799377441e+01    8.7399501801e+00
    7.6899375916e+01    8.7579898834e+00
    7.6999374390e+01    8.7757902145e+00
    7.7099380493e+01    8.7935400009e+00
    7.7199340820e+01    8.8110790253e+00
    7.7299354553e+01    8.8284502029e+00
    7.7399383545e+01    8.8457794189e+00
    7.7499359131e+01    8.8628797531e+00
    7.7599380493e+01    8.8799400330e+00
    7.7699363708e+01    8.8967599869e+00
    7.7799369812e+01    8.9135494232e+00
    7.7899368286e+01    8.9301004410e+00
    7.7999328613e+01    8.9466495514e+00
    7.8099365234e+01    8.9629402161e+00
    7.8199363708e+01    8.9792289734e+00
    7.8299369812e+01    8.9952898026e+00
    7.8399345398e+01    9.0112400055e+00
    7.8499320984e+01    9.0271501541e+00
    7.8599342346e+01    9.0428085327e+00
    7.8699363708e+01    9.0584411621e+00
    7.8799362183e+01    9.0738391876e+00
    7.8899337769e+01    9.0892086029e+00
    7.8999343872e+01    9.1043395996e+00
    7.9099319458e+01    9.1194496155e+00
    7.9199348450e+01    9.1342906952e+00
    7.9299324036e+01    9.1491298676e+00
    7.9399360657e+01    9.1637001038e+00
    7.9499328613e+01    9.1781492233e+00
    7.9599342346e+01    9.1925506592e+00
    7.9699325562e+01    9.2067193985e+00
    7.9799316406e+01    9.2208499908e+00
    7.9899345398e+01    9.2347202301e+00
    7.9999305725e+01    9.2485694885e+00
    8.0099342346e+01    9.2738494873e+00
    8.0199333191e+01    9.2991094589e+00
    8.0299293518e+01    9.3242511749e+00
    8.0399330139e+01    9.3492202759e+00
    8.0499305725e+01    9.3740797043e+00
    8.0599334717e+01    9.3987884521e+00
    8.0699310303e+01    9.4233903885e+00
    8.0799316406e+01    9.4478302002e+00
    8.0899307251e+01    9.4721097946e+00
    8.0999328613e+01    9.4962205887e+00
    8.1099319458e+01    9.5202102661e+00
    8.1199317932e+01    9.5440492630e+00
    8.1299308777e+01    9.5677709579e+00
    8.1399307251e+01    9.5913600922e+00
    8.1499328613e+01    9.6148195267e+00
    8.1599304199e+01    9.6380796432e+00
    8.1699287415e+01    9.6612997055e+00
    8.1799285889e+01    9.6843910217e+00
    8.1899276733e+01    9.7073307037e+00
    8.1999313354e+01    9.7301197052e+00
    8.2099304199e+01    9.7527894974e+00
    8.2199279785e+01    9.7753210068e+00
    8.2299285889e+01    9.7976799011e+00
    8.2399307251e+01    9.8198890686e+00
    8.2499305725e+01    9.8419609070e+00
    8.2599281311e+01    9.8639001846e+00
    8.2699295044e+01    9.8856496811e+00
    8.2799285889e+01    9.9072589874e+00
    8.2899284363e+01    9.9286909103e+00
    8.2999282837e+01    9.9499702454e+00
    8.3099266052e+01    9.9710798264e+00
    8.3199256897e+01    9.9920206070e+00
    8.3299255371e+01    1.0012800217e+01
    8.3399284363e+01    1.0033399582e+01
    8.3499290466e+01    1.0053869247e+01
    8.3599258423e+01    1.0074200630e+01
    8.3699249268e+01    1.0094369888e+01
    8.3799255371e+01    1.0114398956e+01
    8.3899253845e+01    1.0134290695e+01
    8.3999267578e+01    1.0154020309e+01
    8.4099250793e+01    1.0173609734e+01
    8.4199279785e+01    1.0193018913e+01
    8.4299278259e+01    1.0212290764e+01
    8.4399246216e+01    1.0231310844e+01
    8.4499252319e+01    1.0250260353e+01
    8.4599258423e+01    1.0269049644e+01
    8.4699241638e+01    1.0287698746e+01
    8.4799263000e+01    1.0306180000e+01
    8.4899230957e+01    1.0324529648e+01
    8.4999267578e+01    1.0342699051e+01
    8.5099235535e+01    1.0360740662e+01
    8.5199218750e+01    1.0378600121e+01
    8.5299270630e+01    1.0396269798e+01
    8.5399238586e+01    1.0413801193e+01
    8.5499221802e+01    1.0431200027e+01
    8.5599266052e+01    1.0448299408e+01
    8.5699218750e+01    1.0465398788e+01
    8.5799255371e+01    1.0482300758e+01
    8.5899230957e+01    1.0498999596e+01
    8.5999252319e+01    1.0515599251e+01
    8.6099250793e+01    1.0532000542e+01
    8.6199241638e+01    1.0548200607e+01
    8.6299201965e+01    1.0564399719e+01
    8.6399223328e+01    1.0580299377e+01
    8.6499237061e+01    1.0596000671e+01
    8.6599212646e+01    1.0611599922e+01
    8.6699195862e+01    1.0627099037e+01
    8.6799232483e+01    1.0642300606e+01
    8.6899223328e+01    1.0657400131e+01
    8.6999206543e+01    1.0672399521e+01
    8.7099243164e+01    1.0687099457e+01
    8.7199203491e+01    1.0701700211e+01
    8.7299224854e+01    1.0716099739e+01
    8.7399185181e+01    1.0730299950e+01
    8.7499229431e+01    1.0744501114e+01
    8.7599227905e+01    1.0758399963e+01
    8.7699218750e+01    1.0772199631e+01
    8.7799224854e+01    1.0785799026e+01
    8.7899185181e+01    1.0799199104e+01
    8.7999221802e+01    1.0812500954e+01
    8.8099212646e+01    1.0825600624e+01
    8.8199195862e+01    1.0838699341e+01
    8.8299171448e+01    1.0851498604e+01
    8.8399208069e+01    1.0864300728e+01
    8.8499183655e+01    1.0876799583e+01
    8.8599166870e+01    1.0889199257e+01
    8.8699211121e+01    1.0901500702e+01
    8.8799171448e+01    1.0913599968e+01
    8.8899185181e+01    1.0925499916e+01
    8.8999160767e+01    1.0937300682e+01
    8.9099159241e+01    1.0948900223e+01
    8.9199157715e+01    1.0960299492e+01
    8.9299163818e+01    1.0971599579e+01
    8.9399192810e+01    1.0982700348e+01
    8.9499198914e+01    1.0993700027e+01
    8.9599166870e+01    1.1004499435e+01
    8.9699180603e+01    1.1015200615e+01
    8.9799156189e+01    1.1025700569e+01
    8.9899185181e+01    1.1035900116e+01
    8.9999168396e+01    1.1046099663e+01
    9.0099151611e+01    1.1070499420e+01
    9.0199172974e+01    1.1094799995e+01
    9.0299179077e+01    1.1119100571e+01
    9.0399139404e+01    1.1143099785e+01
    9.0499183655e+01    1.1166900635e+01
    9.0599143982e+01    1.1190599442e+01
    9.0699142456e+01    1.1214300156e+01
    9.0799156189e+01    1.1237601280e+01
    9.0899139404e+01    1.1260800362e+01
    9.0999168396e+01    1.1283900261e+01
    9.1099174500e+01    1.1306798935e+01
    9.1199127197e+01    1.1329500198e+01
    9.1299171448e+01    1.1352100372e+01
    9.1399139404e+01    1.1374499321e+01
    9.1499168396e+01    1.1396800041e+01
    9.1599166870e+01    1.1418900490e+01
    9.1699142456e+01    1.1440899849e+01
    9.1799125671e+01    1.1462800980e+01
    9.1899154663e+01    1.1484498978e+01
    9.1999153137e+01    1.1506000519e+01
    9.2099143982e+01    1.1527400017e+01
    9.2199119568e+01    1.1548599243e+01
    9.2299148560e+01    1.1569600105e+01
    9.2399139404e+01    1.1590500832e+01
    9.2499153137e+01    1.1611200333e+01
    9.2599121094e+01    1.1631700516e+01
    9.2699157715e+01    1.1651999474e+01
    9.2799110413e+01    1.1672200203e+01
    9.2899139404e+01    1.1692099571e+01
    9.2999130249e+01    1.1711899757e+01
    9.3099121094e+01    1.1731400490e+01
    9.3199134827e+01    1.1750800133e+01
    9.3299125671e+01    1.1769999504e+01
    9.3399093628e+01    1.1789000511e+01
    9.3499107361e+01    1.1807800293e+01
    9.3599113464e+01    1.1826499939e+01
    9.3699134827e+01    1.1844999313e+01
    9.3799087524e+01    1.1863300323e+01
    9.3899116516e+01    1.1881500244e+01
    9.3999114990e+01    1.1899499893e+01
    9.4099082947e+01    1.1917300224e+01
    9.4199111938e+01    1.1935000420e+01
    9.4299102783e+01    1.1952400208e+01
    9.4399124146e+01    1.1969598770e+01
    9.4499122620e+01    1.1986799240e+01
    9.4599075317e+01    1.2003700256e+01
    9.4699111938e+01    1.2020399094e+01
    9.4799095154e+01    1.2037099838e+01
    9.4899108887e+01    1.2053400993e+01
    9.4999092102e+01    1.2069600105e+01
    9.5099082947e+01    1.2085700035e+01
    9.5199111938e+01    1.2101498604e+01
    9.5299110413e+01    1.2117099762e+01
    9.5399093628e+01    1.2132699966e+01
    9.5499084473e+01    1.2147899628e+01
    9.5599067688e+01    1.2162899971e+01
    9.5699066162e+01    1.2177900314e+01
    9.5799087524e+01    1.2192599297e+01
    9.5899055481e+01    1.2207100868e+01
    9.5999053955e+01    1.2221400261e+01
    9.6099098206e+01    1.2235699654e+01
    9.6199073792e+01    1.2249599457e+01
    9.6299064636e+01    1.2263500214e+01
    9.6399047852e+01    1.2277099609e+01
    9.6499092102e+01    1.2290599823e+01
    9.6599067688e+01    1.2303800583e+01
    9.6699096680e+01    1.2316801071e+01
    9.6799072266e+01    1.2329700470e+01
    9.6899040222e+01    1.2342399597e+01
    9.6999069214e+01    1.2354799271e+01
    9.7099060059e+01    1.2367099762e+01
    9.7199050903e+01    1.2379301071e+01
    9.7299049377e+01    1.2391099930e+01
    9.7399040222e+01    1.2402799606e+01
    9.7499069214e+01    1.2414400101e+01
    9.7599044800e+01    1.2425699234e+01
    9.7699035645e+01    1.2436800003e+01
    9.7799072266e+01    1.2447799683e+01
    9.7899047852e+01    1.2458600998e+01
    9.7999061584e+01    1.2469301224e+01
    9.8099075317e+01    1.2479700089e+01
    9.8199073792e+01    1.2489999771e+01
    9.8299034119e+01    1.2500099182e+01
    9.8399024963e+01    1.2510200500e+01
    9.8499023438e+01    1.2519901276e+01
    9.8599014282e+01    1.2529499054e+01
    9.8699043274e+01    1.2538999557e+01
    9.8799011230e+01    1.2548198700e+01
    9.8899017334e+01    1.2557199478e+01
    9.8999015808e+01    1.2566200256e+01
    9.9099052429e+01    1.2574899673e+01
    9.9199012756e+01    1.2583400726e+01
    9.9299049377e+01    1.2591800690e+01
    9.9399002075e+01    1.2599899292e+01
    9.9499053955e+01    1.2607900620e+01
    9.9599021912e+01    1.2615699768e+01
    9.9699043274e+01    1.2623300552e+01
    9.9799018860e+01    1.2630699158e+01
    9.9899032593e+01    1.2638000488e+01
    9.9999023438e+01    1.2645000458e+01
    1.0009902954e+02    1.2669300079e+01
    1.0019899750e+02    1.2693599701e+01
    1.0029901123e+02    1.2717699051e+01
    1.0039903259e+02    1.2741699219e+01
    1.0049900055e+02    1.2765399933e+01
    1.0059899139e+02    1.2788999557e+01
    1.0069902802e+02    1.2812299728e+01
    1.0079902649e+02    1.2835599899e+01
    1.0089900208e+02    1.2858499527e+01
    1.0099900818e+02    1.2881401062e+01
    1.0109902191e+02    1.2903999329e+01
    1.0119898224e+02    1.2926401138e+01
    1.0129901123e+02    1.2948698044e+01
    1.0139897919e+02    1.2970800400e+01
    1.0149900055e+02    1.2992799759e+01
    1.0159899902e+02    1.3014600754e+01
    1.0169902039e+02    1.3036298752e+01
    1.0179900360e+02    1.3057701111e+01
    1.0189897156e+02    1.3078998566e+01
    1.0199900818e+02    1.3100101471e+01
    1.0209900665e+02    1.3121101379e+01
    1.0219898224e+02    1.3141899109e+01
    1.0229900360e+02    1.3162397385e+01
    1.0239900208e+02    1.3182701111e+01
    1.0249894714e+02    1.3202898026e+01
    1.0259899139e+02    1.3222900391e+01
    1.0269898987e+02    1.3242702484e+01
    1.0279900360e+02    1.3262199402e+01
    1.0289897919e+02    1.3281497955e+01
    1.0299897766e+02    1.3300699234e+01
    1.0309893799e+02    1.3319601059e+01
    1.0319896698e+02    1.3338199615e+01
    1.0329898071e+02    1.3356700897e+01
    1.0339898682e+02    1.3375000000e+01
    1.0349894714e+02    1.3393001556e+01
    1.0359893799e+02    1.3410900116e+01
    1.0369895172e+02    1.3428602219e+01
    1.0379898071e+02    1.3446098328e+01
    1.0389894104e+02    1.3463399887e+01
    1.0399894714e+02    1.3480499268e+01
    1.0409895325e+02    1.3497400284e+01
    1.0419898224e+02    1.3514198303e+01
    1.0429895782e+02    1.3530700684e+01
    1.0439893341e+02    1.3547098160e+01
    1.0449893951e+02    1.3563100815e+01
    1.0459896088e+02    1.3579097748e+01
    1.0469893646e+02    1.3594800949e+01
    1.0479891968e+02    1.3610399246e+01
    1.0489893341e+02    1.3625600815e+01
    1.0499897003e+02    1.3640802383e+01
    1.0509896851e+02    1.3655700684e+01
    1.0519892120e+02    1.3670402527e+01
    1.0529895782e+02    1.3684799194e+01
    1.0539893341e+02    1.3699098587e+01
    1.0549891663e+02    1.3713100433e+01
    1.0559893036e+02    1.3727001190e+01
    1.0569895172e+02    1.3740600586e+01
    1.0579892731e+02    1.3754001617e+01
    1.0589893341e+02    1.3767299652e+01
    1.0599893188e+02    1.3780401230e+01
    1.0609892273e+02    1.3793199539e+01
    1.0619892883e+02    1.3805801392e+01
    1.0629894257e+02    1.3818298340e+01
    1.0639891815e+02    1.3830501556e+01
    1.0649893951e+02    1.3842399597e+01
    1.0659892273e+02    1.3854200363e+01
    1.0669892120e+02    1.3865699768e+01
    1.0679889679e+02    1.3877099991e+01
    1.0689891815e+02    1.3888198853e+01
    1.0699889374e+02    1.3899101257e+01
    1.0709890747e+02    1.3909799576e+01
    1.0719891357e+02    1.3920299530e+01
    1.0729888153e+02    1.3930599213e+01
    1.0739890289e+02    1.3940601349e+01
    1.0749890137e+02    1.3950399399e+01
    1.0759889984e+02    1.3960100174e+01
    1.0769889069e+02    1.3969497681e+01
    1.0779891205e+02    1.3978700638e+01
    1.0789887238e+02    1.3987697601e+01
    1.0799889374e+02    1.3996599197e+01
    1.0809887695e+02    1.4005201340e+01
    1.0819888306e+02    1.4013700485e+01
    1.0829888916e+02    1.4021997452e+01
    1.0839885712e+02    1.4030099869e+01
    1.0849890900e+02    1.4038101196e+01
    1.0859886932e+02    1.4045799255e+01
    1.0869889069e+02    1.4053300858e+01
    1.0879888153e+02    1.4060600281e+01
    1.0889891052e+02    1.4067701340e+01
    1.0899886322e+02    1.4074699402e+01
    1.0909886169e+02    1.4081401825e+01
    1.0919888306e+02    1.4087900162e+01
    1.0929886627e+02    1.4094301224e+01
    1.0939888000e+02    1.4100299835e+01
    1.0949886322e+02    1.4106201172e+01
    1.0959884644e+02    1.4111898422e+01
    1.0969889069e+02    1.4117500305e+01
    1.0979888916e+02    1.4122697830e+01
    1.0989888763e+02    1.4127799988e+01
    1.0999887085e+02    1.4132598877e+01
    1.1009889221e+02    1.4158498764e+01
    1.1019885254e+02    1.4184402466e+01
    1.1029885864e+02    1.4210000992e+01
    1.1039884949e+02    1.4235498428e+01
    1.1049887848e+02    1.4260702133e+01
    1.1059884644e+02    1.4285800934e+01
    1.1069886017e+02    1.4310699463e+01
    1.1079885101e+02    1.4335401535e+01
    1.1089884186e+02    1.4359800339e+01
    1.1099884033e+02    1.4383998871e+01
    1.1109886169e+02    1.4408000946e+01
    1.1119882965e+02    1.4431798935e+01
    1.1129882050e+02    1.4455398560e+01
    1.1139884186e+02    1.4478801727e+01
    1.1149884796e+02    1.4502199173e+01
    1.1159883118e+02    1.4525300980e+01
    1.1169885254e+02    1.4548200607e+01
    1.1179886627e+02    1.4570898056e+01
    1.1189882660e+02    1.4593502045e+01
    1.1199881744e+02    1.4615900040e+01
    1.1209880829e+02    1.4637998581e+01
    1.1219880676e+02    1.4660001755e+01
    1.1229885101e+02    1.4681699753e+01
    1.1239884186e+02    1.4703197479e+01
    1.1249880219e+02    1.4724500656e+01
    1.1259883881e+02    1.4745498657e+01
    1.1269882965e+02    1.4766397476e+01
    1.1279884338e+02    1.4786901474e+01
    1.1289881134e+02    1.4807298660e+01
    1.1299884033e+02    1.4827501297e+01
    1.1309880829e+02    1.4847299576e+01
    1.1319882202e+02    1.4866899490e+01
    1.1329878998e+02    1.4886201859e+01
    1.1339878845e+02    1.4905399323e+01
    1.1349884033e+02    1.4924297333e+01
    1.1359879303e+02    1.4943000793e+01
    1.1369882202e+02    1.4961500168e+01
    1.1379881287e+02    1.4979801178e+01
    1.1389880371e+02    1.4997900009e+01
    1.1399880219e+02    1.5015798569e+01
    1.1409879303e+02    1.5033500671e+01
    1.1419882965e+02    1.5050800323e+01
    1.1429879761e+02    1.5068098068e+01
    1.1439880371e+02    1.5085000992e+01
    1.1449880981e+02    1.5101699829e+01
    1.1459877777e+02    1.5118299484e+01
    1.1469877625e+02    1.5134601593e+01
    1.1479879761e+02    1.5150600433e+01
    1.1489877319e+02    1.5166498184e+01
    1.1499877167e+02    1.5182100296e+01
    1.1509879303e+02    1.5197500229e+01
    1.1519876099e+02    1.5212697983e+01
    1.1529878998e+02    1.5227500916e+01
    1.1539875793e+02    1.5242198944e+01
    1.1549878693e+02    1.5256702423e+01
    1.1559877014e+02    1.5270801544e+01
    1.1569879913e+02    1.5284797668e+01
    1.1579876709e+02    1.5298500061e+01
    1.1589878082e+02    1.5312099457e+01
    1.1599878693e+02    1.5325298309e+01
    1.1609876251e+02    1.5338302612e+01
    1.1619876862e+02    1.5351299286e+01
    1.1629878235e+02    1.5363800049e+01
    1.1639877319e+02    1.5376201630e+01
    1.1649877167e+02    1.5388298035e+01
    1.1659876251e+02    1.5400203705e+01
    1.1669873810e+02    1.5411800385e+01
    1.1679875183e+02    1.5423198700e+01
    1.1689875793e+02    1.5434303284e+01
    1.1699874878e+02    1.5445201874e+01
    1.1709877777e+02    1.5455799103e+01
    1.1719873047e+02    1.5466300964e+01
    1.1729876709e+02    1.5476398468e+01
    1.1739875031e+02    1.5486297607e+01
    1.1749877167e+02    1.5496101379e+01
    1.1759873199e+02    1.5505500793e+01
    1.1769876099e+02    1.5514698029e+01
    1.1779875183e+02    1.5523799896e+01
    1.1789875793e+02    1.5532600403e+01
    1.1799873352e+02    1.5541099548e+01
    1.1809876251e+02    1.5549499512e+01
    1.1819875336e+02    1.5557697296e+01
    1.1829872894e+02    1.5565700531e+01
    1.1839875031e+02    1.5573398590e+01
    1.1849875641e+02    1.5580997467e+01
    1.1859874725e+02    1.5588302612e+01
    1.1869872284e+02    1.5595500946e+01
    1.1879873657e+02    1.5602298737e+01
    1.1889871979e+02    1.5609001160e+01
    1.1899871063e+02    1.5615398407e+01
    1.1909873199e+02    1.5621597290e+01
    1.1919870758e+02    1.5627601624e+01
    1.1929871368e+02    1.5633399963e+01
    1.1939875031e+02    1.5638900757e+01
    1.1949871063e+02    1.5644199371e+01
    1.1959871674e+02    1.5649299622e+01
    1.1969869232e+02    1.5654102325e+01
    1.1979871368e+02    1.5658699036e+01
    1.1989874268e+02    1.5663097382e+01
    1.1999874115e+02    1.5667201996e+01
    1.2009868622e+02    1.5694400787e+01
    1.2019869232e+02    1.5721599579e+01
    1.2029868317e+02    1.5748600006e+01
    1.2039869690e+02    1.5775402069e+01
    1.2049871063e+02    1.5801998138e+01
    1.2059870148e+02    1.5828399658e+01
    1.2069872284e+02    1.5854499817e+01
    1.2079869080e+02    1.5880397797e+01
    1.2089871216e+02    1.5906101227e+01
    1.2099870300e+02    1.5931499481e+01
    1.2109870911e+02    1.5956798553e+01
    1.2119867706e+02    1.5981903076e+01
    1.2129868317e+02    1.6006999969e+01
    1.2139865875e+02    1.6031898499e+01
    1.2149868011e+02    1.6056697845e+01
    1.2159867096e+02    1.6081497192e+01
    1.2169869232e+02    1.6106098175e+01
    1.2179866791e+02    1.6130699158e+01
    1.2189868164e+02    1.6154998779e+01
    1.2199868011e+02    1.6179100037e+01
    1.2209867859e+02    1.6203102112e+01
    1.2219869995e+02    1.6226802826e+01
    1.2229868317e+02    1.6250400543e+01
    1.2239865875e+02    1.6273597717e+01
    1.2249867249e+02    1.6296600342e+01
    1.2259866333e+02    1.6319400787e+01
    1.2269864655e+02    1.6341899872e+01
    1.2279865265e+02    1.6364101410e+01
    1.2289865875e+02    1.6386100769e+01
    1.2299868774e+02    1.6407699585e+01
    1.2309866333e+02    1.6429100037e+01
    1.2319866943e+02    1.6450202942e+01
    1.2329866791e+02    1.6470996857e+01
    1.2339865112e+02    1.6491699219e+01
    1.2349868774e+02    1.6511997223e+01
    1.2359864044e+02    1.6532100677e+01
    1.2369863892e+02    1.6552101135e+01
    1.2379862976e+02    1.6571800232e+01
    1.2389866638e+02    1.6591400146e+01
    1.2399867249e+02    1.6610698700e+01
    1.2409864807e+02    1.6629802704e+01
    1.2419863892e+02    1.6648799896e+01
    1.2429863739e+02    1.6667400360e+01
    1.2439864349e+02    1.6686000824e+01
    1.2449864960e+02    1.6704299927e+01
    1.2459866333e+02    1.6722499847e+01
    1.2469866180e+02    1.6740398407e+01
    1.2479860687e+02    1.6758201599e+01
    1.2489864349e+02    1.6775901794e+01
    1.2499861908e+02    1.6793300629e+01
    1.2509860992e+02    1.6810699463e+01
    1.2519863129e+02    1.6827899933e+01
    1.2529863739e+02    1.6844997406e+01
    1.2539864349e+02    1.6861999512e+01
    1.2549861145e+02    1.6878799438e+01
    1.2559861755e+02    1.6895500183e+01
    1.2569860840e+02    1.6912200928e+01
    1.2579863739e+02    1.6928699493e+01
    1.2589859772e+02    1.6945201874e+01
    1.2599859619e+02    1.6961700439e+01
    1.2609860229e+02    1.6978103638e+01
    1.2619863129e+02    1.6994499207e+01
    1.2629859161e+02    1.7010700226e+01
    1.2639859772e+02    1.7026901245e+01
    1.2649858856e+02    1.7043098450e+01
    1.2659860229e+02    1.7059001923e+01
    1.2669857788e+02    1.7074901581e+01
    1.2679862976e+02    1.7090602875e+01
    1.2689858246e+02    1.7106197357e+01
    1.2699862671e+02    1.7121700287e+01
    1.2709860992e+02    1.7136997223e+01
    1.2719857788e+02    1.7152198792e+01
    1.2729859161e+02    1.7167098999e+01
    1.2739859009e+02    1.7181900024e+01
    1.2749858856e+02    1.7196498871e+01
    1.2759860992e+02    1.7210899353e+01
    1.2769857025e+02    1.7225200653e+01
    1.2779862213e+02    1.7239299774e+01
    1.2789858246e+02    1.7253299713e+01
    1.2799859619e+02    1.7267097473e+01
    1.2809858704e+02    1.7280899048e+01
    1.2819859314e+02    1.7294601440e+01
    1.2829858398e+02    1.7308097839e+01
    1.2839860535e+02    1.7321704865e+01
    1.2849859619e+02    1.7335201263e+01
    1.2859858704e+02    1.7348796844e+01
    1.2869862366e+02    1.7362201691e+01
    1.2879862976e+02    1.7375595093e+01
    1.2889865112e+02    1.7388999939e+01
    1.2899861145e+02    1.7402297974e+01
    1.2909866333e+02    1.7415500641e+01
    1.2919865417e+02    1.7428798676e+01
    1.2929866028e+02    1.7442001343e+01
    1.2939866638e+02    1.7455097198e+01
    1.2949868774e+02    1.7468101501e+01
    1.2959864807e+02    1.7481101990e+01
    1.2969868469e+02    1.7494201660e+01
    1.2979867554e+02    1.7507099152e+01
    1.2989869690e+02    1.7520095825e+01
    1.2999870300e+02    1.7533199310e+01
    1.3009872437e+02    1.7571495056e+01
    1.3019871521e+02    1.7610298157e+01
    1.3029873657e+02    1.7648998260e+01
    1.3039871216e+02    1.7687797546e+01
    1.3049873352e+02    1.7726699829e+01
    1.3059875488e+02    1.7765499115e+01
    1.3069874573e+02    1.7804298401e+01
    1.3079876709e+02    1.7843101501e+01
    1.3089877319e+02    1.7881999969e+01
    1.3099873352e+02    1.7920600891e+01
    1.3109875488e+02    1.7959400177e+01
    1.3119879150e+02    1.7998001099e+01
    1.3129879761e+02    1.8036800385e+01
    1.3139877319e+02    1.8075401306e+01
    1.3149879456e+02    1.8114204407e+01
    1.3159877014e+02    1.8152896881e+01
    1.3169879150e+02    1.8191795349e+01
    1.3179881287e+02    1.8230594635e+01
    1.3189883423e+02    1.8269298553e+01
    1.3199879456e+02    1.8307899475e+01
    1.3209880066e+02    1.8346500397e+01
    1.3219883728e+02    1.8385097504e+01
    1.3229884338e+02    1.8423599243e+01
    1.3239886475e+02    1.8461997986e+01
    1.3249885559e+02    1.8500400543e+01
    1.3259884644e+02    1.8538600922e+01
    1.3269886780e+02    1.8576801300e+01
    1.3279887390e+02    1.8614803314e+01
    1.3289889526e+02    1.8652900696e+01
    1.3299887085e+02    1.8690902710e+01
    1.3309886169e+02    1.8728702545e+01
    1.3319886780e+02    1.8766502380e+01
    1.3329891968e+02    1.8804302216e+01
    1.3339888000e+02    1.8841896057e+01
    1.3349891663e+02    1.8879596710e+01
    1.3359889221e+02    1.8917297363e+01
    1.3369892883e+02    1.8954799652e+01
    1.3379895020e+02    1.8992496490e+01
    1.3389889526e+02    1.9030097961e+01
    1.3399891663e+02    1.9067699432e+01
    1.3409895325e+02    1.9105400085e+01
    1.3419894409e+02    1.9143100739e+01
    1.3429893494e+02    1.9180801392e+01
    1.3439897156e+02    1.9218601227e+01
    1.3449896240e+02    1.9256301880e+01
    1.3459898376e+02    1.9294002533e+01
    1.3469897461e+02    1.9331802368e+01
    1.3479896545e+02    1.9369602203e+01
    1.3489900208e+02    1.9407402039e+01
    1.3499899292e+02    1.9445095062e+01
    1.3509898376e+02    1.9482898712e+01
    1.3519903564e+02    1.9520595551e+01
    1.3529902649e+02    1.9558197021e+01
    1.3539900208e+02    1.9595798492e+01
    1.3549900818e+02    1.9633499146e+01
    1.3559902954e+02    1.9670997620e+01
    1.3569906616e+02    1.9708599091e+01
    1.3579904175e+02    1.9746002197e+01
    1.3589903259e+02    1.9783500671e+01
    1.3599902344e+02    1.9821102142e+01
    1.3609906006e+02    1.9858501434e+01
    1.3619906616e+02    1.9895801544e+01
    1.3629907227e+02    1.9933204651e+01
    1.3639907837e+02    1.9970603943e+01
    1.3649908447e+02    2.0007804871e+01
    1.3659910583e+02    2.0044895172e+01
    1.3669911194e+02    2.0082096100e+01
    1.3679910278e+02    2.0118995667e+01
    1.3689913940e+02    2.0155899048e+01
    1.3699909973e+02    2.0192798615e+01
    1.3709910583e+02    2.0229499817e+01
    1.3719914246e+02    2.0266197205e+01
    1.3729911804e+02    2.0302700043e+01
    1.3739913940e+02    2.0339298248e+01
    1.3749914551e+02    2.0375701904e+01
    1.3759915161e+02    2.0412101746e+01
    1.3769914246e+02    2.0448501587e+01
    1.3779916382e+02    2.0484802246e+01
    1.3789916992e+02    2.0521202087e+01
    1.3799919128e+02    2.0557403564e+01
    1.3809918213e+02    2.0593704224e+01
    1.3819920349e+02    2.0630104065e+01
    1.3829920959e+02    2.0666397095e+01
    1.3839918518e+02    2.0702697754e+01
    1.3849920654e+02    2.0738899231e+01
    1.3859921265e+02    2.0775096893e+01
    1.3869923401e+02    2.0811397552e+01
    1.3879925537e+02    2.0847599030e+01
    1.3889923096e+02    2.0883800507e+01
    1.3899923706e+02    2.0919898987e+01
    1.3909922791e+02    2.0956001282e+01
    1.3919926453e+02    2.0992099762e+01
    1.3929924011e+02    2.1028102875e+01
    1.3939926147e+02    2.1064102173e+01
    1.3949928284e+02    2.1100002289e+01
    1.3959925842e+02    2.1135902405e+01
    1.3969927979e+02    2.1171703339e+01
    1.3979927063e+02    2.1207496643e+01
    1.3989929199e+02    2.1243198395e+01
    1.3999929810e+02    2.1278697968e+01
    1.4009931946e+02    2.1339000702e+01
    1.4019932556e+02    2.1399295807e+01
    1.4029933167e+02    2.1459598541e+01
    1.4039932251e+02    2.1519702911e+01
    1.4049931335e+02    2.1579795837e+01
    1.4059933472e+02    2.1639801025e+01
    1.4069937134e+02    2.1699802399e+01
    1.4079934692e+02    2.1759696960e+01
    1.4089938354e+02    2.1819499969e+01
    1.4099935913e+02    2.1879001617e+01
    1.4109938049e+02    2.1938598633e+01
    1.4119938660e+02    2.1998001099e+01
    1.4129939270e+02    2.2057403564e+01
    1.4139935303e+02    2.2116600037e+01
    1.4149938965e+02    2.2175903320e+01
    1.4159939575e+02    2.2235099792e+01
    1.4169938660e+02    2.2294296265e+01
    1.4179939270e+02    2.2353500366e+01
    1.4189942932e+02    2.2412597656e+01
    1.4199942017e+02    2.2471595764e+01
    1.4209945679e+02    2.2530601501e+01
    1.4219946289e+02    2.2589393616e+01
    1.4229945374e+02    2.2648101807e+01
    1.4239944458e+02    2.2706703186e+01
    1.4249945068e+02    2.2764999390e+01
    1.4259944153e+02    2.2823204041e+01
    1.4269946289e+02    2.2881301880e+01
    1.4279948425e+02    2.2938995361e+01
    1.4289950562e+02    2.2996704102e+01
    1.4299948120e+02    2.3054100037e+01
    1.4309950256e+02    2.3111198425e+01
    1.4319952393e+02    2.3168197632e+01
    1.4329948425e+02    2.3224800110e+01
    1.4339950562e+02    2.3281402588e+01
    1.4349952698e+02    2.3337799072e+01
    1.4359951782e+02    2.3393997192e+01
    1.4369955444e+02    2.3450096130e+01
    1.4379951477e+02    2.3505905151e+01
    1.4389956665e+02    2.3561599731e+01
    1.4399957275e+02    2.3617301941e+01
    1.4409956360e+02    2.3672599792e+01
    1.4419955444e+02    2.3727798462e+01
    1.4429954529e+02    2.3782699585e+01
    1.4439958191e+02    2.3837394714e+01
    1.4449957275e+02    2.3892097473e+01
    1.4459960938e+02    2.3946403503e+01
    1.4469956970e+02    2.4000495911e+01
    1.4479959106e+02    2.4054496765e+01
    1.4489961243e+02    2.4108200073e+01
    1.4499963379e+02    2.4161796570e+01
    1.4509960938e+02    2.4215103149e+01
    1.4519964600e+02    2.4268203735e+01
    1.4529963684e+02    2.4321098328e+01
    1.4539962769e+02    2.4373703003e+01
    1.4549961853e+02    2.4426200867e+01
    1.4559965515e+02    2.4478401184e+01
    1.4569961548e+02    2.4530403137e+01
    1.4579963684e+02    2.4582199097e+01
    1.4589964294e+02    2.4633895874e+01
    1.4599966431e+02    2.4685302734e+01
    1.4609968567e+02    2.4736595154e+01
    1.4619966125e+02    2.4787696838e+01
    1.4629966736e+02    2.4838500977e+01
    1.4639968872e+02    2.4889198303e+01
    1.4649969482e+02    2.4939498901e+01
    1.4659968567e+02    2.4989601135e+01
    1.4669969177e+02    2.5039398193e+01
    1.4679968262e+02    2.5088897705e+01
    1.4689970398e+02    2.5138206482e+01
    1.4699975586e+02    2.5187194824e+01
    1.4709976196e+02    2.5235900879e+01
    1.4719976807e+02    2.5284301758e+01
    1.4729974365e+02    2.5332298279e+01
    1.4739976501e+02    2.5380004883e+01
    1.4749975586e+02    2.5427398682e+01
    1.4759977722e+02    2.5474601746e+01
    1.4769979858e+02    2.5521202087e+01
    1.4779975891e+02    2.5567695618e+01
    1.4789976501e+02    2.5613800049e+01
    1.4799980164e+02    2.5659599304e+01
    1.4809980774e+02    2.5705101013e+01
    1.4819979858e+02    2.5750396729e+01
    1.4829980469e+02    2.5795303345e+01
    1.4839981079e+02    2.5840095520e+01
    1.4849981689e+02    2.5884399414e+01
    1.4859982300e+02    2.5928497314e+01
    1.4869981384e+02    2.5972396851e+01
    1.4879981995e+02    2.6016098022e+01
    1.4889987183e+02    2.6059600830e+01
    1.4899986267e+02    2.6102806091e+01
    1.4909982300e+02    2.6144798279e+01
    1.4919987488e+02    2.6187301636e+01
    1.4929986572e+02    2.6229698181e+01
    1.4939988708e+02    2.6271697998e+01
    1.4949987793e+02    2.6313400269e+01
    1.4959988403e+02    2.6354698181e+01
    1.4969989014e+02    2.6394798279e+01
    1.4979988098e+02    2.6435501099e+01
    1.4989988708e+02    2.6475898743e+01
    1.4999992371e+02    2.6515899658e+01
    1.5009991455e+02    2.6579597473e+01
    1.5019990540e+02    2.6642005920e+01
    1.5029995728e+02    2.6705101013e+01
    1.5039993286e+02    2.6767898560e+01
    1.5049995422e+02    2.6830299377e+01
    1.5059992981e+02    2.6892601013e+01
    1.5069998169e+02    2.6953399658e+01
    1.5079997253e+02    2.7014900208e+01
    1.5089997864e+02    2.7076095581e+01
    1.5099998474e+02    2.7136901855e+01
    1.5109999084e+02    2.7197402954e+01
    1.5119999695e+02    2.7256599426e+01
    1.5129997253e+02    2.7316505432e+01
    1.5140002441e+02    2.7375900269e+01
    1.5150000000e+02    2.7435104370e+01
    1.5160000610e+02    2.7492996216e+01
    1.5170002747e+02    2.7551498413e+01
    1.5180000305e+02    2.7609695435e+01
    1.5190002441e+02    2.7667503357e+01
    1.5200006104e+02    2.7724800110e+01
    1.5210006714e+02    2.7780799866e+01
    1.5220002747e+02    2.7837493896e+01
    1.5230004883e+02    2.7893600464e+01
    1.5240007019e+02    2.7949203491e+01
    1.5250009155e+02    2.8004501343e+01
    1.5260006714e+02    2.8058403015e+01
    1.5270005798e+02    2.8112800598e+01
    1.5280006409e+02    2.8166702271e+01
    1.5290007019e+02    2.8220100403e+01
    1.5300007629e+02    2.8272003174e+01
    1.5310012817e+02    2.8324394226e+01
    1.5320011902e+02    2.8376502991e+01
    1.5330010986e+02    2.8427993774e+01
    1.5340010071e+02    2.8478004456e+01
    1.5350013733e+02    2.8528594971e+01
    1.5360015869e+02    2.8578697205e+01
    1.5370014954e+02    2.8628402710e+01
    1.5380015564e+02    2.8677696228e+01
    1.5390017700e+02    2.8725502014e+01
    1.5400018311e+02    2.8773902893e+01
    1.5410015869e+02    2.8821899414e+01
    1.5420019531e+02    2.8869400024e+01
    1.5430018616e+02    2.8916503906e+01
    1.5440017700e+02    2.8962295532e+01
    1.5450016785e+02    2.9008598328e+01
    1.5460017395e+02    2.9054397583e+01
    1.5470019531e+02    2.9099800110e+01
    1.5480023193e+02    2.9144798279e+01
    1.5490020752e+02    2.9188400269e+01
    1.5500018311e+02    2.9232597351e+01
    1.5510021973e+02    2.9276199341e+01
    1.5520021057e+02    2.9319404602e+01
    1.5530026245e+02    2.9361099243e+01
    1.5540025330e+02    2.9403404236e+01
    1.5550025940e+02    2.9445098877e+01
    1.5560025024e+02    2.9486503601e+01
    1.5570027161e+02    2.9527198792e+01
    1.5580026245e+02    2.9566604614e+01
    1.5590025330e+02    2.9606498718e+01
    1.5600030518e+02    2.9645797729e+01
    1.5610029602e+02    2.9684799194e+01
    1.5620031738e+02    2.9722198486e+01
    1.5630029297e+02    2.9760200500e+01
    1.5640031433e+02    2.9797698975e+01
    1.5650033569e+02    2.9834701538e+01
    1.5660029602e+02    2.9871200562e+01
    1.5670031738e+02    2.9906105042e+01
    1.5680029297e+02    2.9941596985e+01
    1.5690032959e+02    2.9976501465e+01
    1.5700036621e+02    3.0010795593e+01
    1.5710032654e+02    3.0043701172e+01
    1.5720033264e+02    3.0076995850e+01
    1.5730038452e+02    3.0109703064e+01
    1.5740034485e+02    3.0141998291e+01
    1.5750036621e+02    3.0173698425e+01
    1.5760040283e+02    3.0203796387e+01
    1.5770039368e+02    3.0234497070e+01
    1.5780041504e+02    3.0264495850e+01
    1.5790037537e+02    3.0294197083e+01
    1.5800038147e+02    3.0323204041e+01
    1.5810041809e+02    3.0350700378e+01
    1.5820042419e+02    3.0378799438e+01
    1.5830039978e+02    3.0406394958e+01
    1.5840045166e+02    3.0433403015e+01
    1.5850042725e+02    3.0459098816e+01
    1.5860043335e+02    3.0485198975e+01
    1.5870042419e+02    3.0510894775e+01
    1.5880047607e+02    3.0536003113e+01
    1.5890043640e+02    3.0560798645e+01
    1.5900044250e+02    3.0584098816e+01
    1.5910044861e+02    3.0607894897e+01
    1.5920045471e+02    3.0631202698e+01
    1.5930047607e+02    3.0654106140e+01
    1.5940048218e+02    3.0676399231e+01
    1.5950051880e+02    3.0697204590e+01
    1.5960047913e+02    3.0718597412e+01
    1.5970051575e+02    3.0739303589e+01
    1.5980049133e+02    3.0759696960e+01
    1.5990051270e+02    3.0778404236e+01
    1.6000050354e+02    3.0797599792e+01
    1.6010052490e+02    3.0838294983e+01
    1.6020053101e+02    3.0878501892e+01
    1.6030053711e+02    3.0917205811e+01
    1.6040054321e+02    3.0956298828e+01
    1.6050053406e+02    3.0995002747e+01
    1.6060057068e+02    3.1032997131e+01
    1.6070057678e+02    3.1069702148e+01
    1.6080056763e+02    3.1106796265e+01
    1.6090054321e+02    3.1143394470e+01
    1.6100061035e+02    3.1178398132e+01
    1.6110060120e+02    3.1213905334e+01
    1.6120059204e+02    3.1249000549e+01
    1.6130061340e+02    3.1282501221e+01
    1.6140058899e+02    3.1316604614e+01
    1.6150061035e+02    3.1350196838e+01
    1.6160060120e+02    3.1382408142e+01
    1.6170063782e+02    3.1414901733e+01
    1.6180064392e+02    3.1447105408e+01
    1.6190066528e+02    3.1478698730e+01
    1.6200062561e+02    3.1508995056e+01
    1.6210067749e+02    3.1539505005e+01
    1.6220065308e+02    3.1569694519e+01
    1.6230065918e+02    3.1598190308e+01
    1.6240066528e+02    3.1627197266e+01
    1.6250065613e+02    3.1655609131e+01
    1.6260069275e+02    3.1682403564e+01
    1.6270069885e+02    3.1709693909e+01
    1.6280068970e+02    3.1736404419e+01
    1.6290069580e+02    3.1761604309e+01
    1.6300068665e+02    3.1787094116e+01
    1.6310069275e+02    3.1812103271e+01
    1.6320071411e+02    3.1835403442e+01
    1.6330075073e+02    3.1859008789e+01
    1.6340072632e+02    3.1881996155e+01
    1.6350071716e+02    3.1903999329e+01
    1.6360072327e+02    3.1926002502e+01
    1.6370077515e+02    3.1947998047e+01
    1.6380078125e+02    3.1969001770e+01
    1.6390075684e+02    3.1987998962e+01
    1.6400079346e+02    3.2007995605e+01
    1.6410075378e+02    3.2027999878e+01
    1.6420075989e+02    3.2045997620e+01
    1.6430078125e+02    3.2064002991e+01
    1.6440077209e+02    3.2082000732e+01
    1.6450082397e+02    3.2099006653e+01
    1.6460081482e+02    3.2115005493e+01
    1.6470082092e+02    3.2131996155e+01
    1.6480082703e+02    3.2147003174e+01
    1.6490081787e+02    3.2162002563e+01
    1.6500080872e+02    3.2176994324e+01
    1.6510081482e+02    3.2191001892e+01
    1.6520086670e+02    3.2203994751e+01
    1.6530082703e+02    3.2217002869e+01
    1.6540086365e+02    3.2228996277e+01
    1.6550088501e+02    3.2239997864e+01
    1.6560087585e+02    3.2251998901e+01
    1.6570089722e+02    3.2262992859e+01
    1.6580088806e+02    3.2271995544e+01
    1.6590087891e+02    3.2282997131e+01
    1.6600086975e+02    3.2292007446e+01
    1.6610089111e+02    3.2300003052e+01
    1.6620091248e+02    3.2308998108e+01
    1.6630093384e+02    3.2317001343e+01
    1.6640089417e+02    3.2323997498e+01
    1.6650094604e+02    3.2329994202e+01
    1.6660090637e+02    3.2336997986e+01
    1.6670091248e+02    3.2342994690e+01
    1.6680090332e+02    3.2347007751e+01
    1.6690095520e+02    3.2351997375e+01
    1.6700094604e+02    3.2357002258e+01
    1.6710096741e+02    3.2359008789e+01
    1.6720097351e+02    3.2362998962e+01
    1.6730093384e+02    3.2366004944e+01
    1.6740095520e+02    3.2367004395e+01
    1.6750094604e+02    3.2367996216e+01
    1.6760098267e+02    3.2370002747e+01
    1.6770100403e+02    3.2370010376e+01
    1.6780101013e+02    3.2369003296e+01
    1.6790100098e+02    3.2368995667e+01
    1.6800103760e+02    3.2368003845e+01
    1.6810104370e+02    3.2365005493e+01
    1.6820104980e+02    3.2362998962e+01
    1.6830102539e+02    3.2361000061e+01
    1.6840106201e+02    3.2357002258e+01
    1.6850105286e+02    3.2353996277e+01
    1.6860104370e+02    3.2350997925e+01
    1.6870103455e+02    3.2346000671e+01
    1.6880105591e+02    3.2342002869e+01
    1.6890107727e+02    3.2336997986e+01
    1.6900105286e+02    3.2329994202e+01
    1.6910107422e+02    3.2325004578e+01
    1.6920109558e+02    3.2317993164e+01
    1.6930110168e+02    3.2310997009e+01
    1.6940107727e+02    3.2303001404e+01
    1.6950111389e+02    3.2295005798e+01
    1.6960108948e+02    3.2286994934e+01
    1.6970112610e+02    3.2277000427e+01
    1.6980111694e+02    3.2268005371e+01
    1.6990115356e+02    3.2258995056e+01
    1.7000111389e+02    3.2249000549e+01
    1.7010116577e+02    3.2257995605e+01
    1.7020114136e+02    3.2267990112e+01
    1.7030116272e+02    3.2277008057e+01
    1.7040115356e+02    3.2285003662e+01
    1.7050114441e+02    3.2293998718e+01
    1.7060116577e+02    3.2301010132e+01
    1.7070118713e+02    3.2307998657e+01
    1.7080116272e+02    3.2314994812e+01
    1.7090118408e+02    3.2320991516e+01
    1.7100120544e+02    3.2327003479e+01
    1.7110118103e+02    3.2332000732e+01
    1.7120118713e+02    3.2336997986e+01
    1.7130120850e+02    3.2342002869e+01
    1.7140122986e+02    3.2346000671e+01
    1.7150120544e+02    3.2349998474e+01
    1.7160122681e+02    3.2353996277e+01
    1.7170126343e+02    3.2357002258e+01
    1.7180123901e+02    3.2360000610e+01
    1.7190124512e+02    3.2362991333e+01
    1.7200126648e+02    3.2365005493e+01
    1.7210127258e+02    3.2367996216e+01
    1.7220124817e+02    3.2367996216e+01
    1.7230125427e+02    3.2370002747e+01
    1.7240127563e+02    3.2370994568e+01
    1.7250126648e+02    3.2371009827e+01
    1.7260128784e+02    3.2370002747e+01
    1.7270126343e+02    3.2368995667e+01
    1.7280128479e+02    3.2367996216e+01
    1.7290129089e+02    3.2366004944e+01
    1.7300132751e+02    3.2363998413e+01
    1.7310130310e+02    3.2361991882e+01
    1.7320133972e+02    3.2359008789e+01
    1.7330133057e+02    3.2355003357e+01
    1.7340136719e+02    3.2351997375e+01
    1.7350134277e+02    3.2347991943e+01
    1.7360136414e+02    3.2343002319e+01
    1.7370135498e+02    3.2337997437e+01
    1.7380137634e+02    3.2332992554e+01
    1.7390138245e+02    3.2327003479e+01
    1.7400138855e+02    3.2320999146e+01
    1.7410139465e+02    3.2314994812e+01
    1.7420141602e+02    3.2308990479e+01
    1.7430140686e+02    3.2302001953e+01
    1.7440141296e+02    3.2294998169e+01
    1.7450140381e+02    3.2286994934e+01
    1.7460139465e+02    3.2280006409e+01
    1.7470138550e+02    3.2272003174e+01
    1.7480140686e+02    3.2263000488e+01
    1.7490144348e+02    3.2255004883e+01
    1.7500144958e+02    3.2246002197e+01
    1.7510145569e+02    3.2236999512e+01
    1.7520144653e+02    3.2227005005e+01
    1.7530143738e+02    3.2216995239e+01
    1.7540147400e+02    3.2205993652e+01
    1.7550143433e+02    3.2195999146e+01
    1.7560147095e+02    3.2184997559e+01
    1.7570147705e+02    3.2173995972e+01
    1.7580149841e+02    3.2162002563e+01
    1.7590151978e+02    3.2149993896e+01
    1.7600149536e+02    3.2138000488e+01
    1.7610148621e+02    3.2125991821e+01
    1.7620150757e+02    3.2113998413e+01
    1.7630151367e+02    3.2100997925e+01
    1.7640151978e+02    3.2087997437e+01
    1.7650155640e+02    3.2074005127e+01
    1.7660154724e+02    3.2061004639e+01
    1.7670152283e+02    3.2046997070e+01
    1.7680152893e+02    3.2032012939e+01
    1.7690156555e+02    3.2018005371e+01
    1.7700157166e+02    3.2003005981e+01
    1.7710154724e+02    3.1987991333e+01
    1.7720158386e+02    3.1972000122e+01
    1.7730160522e+02    3.1956985474e+01
    1.7740156555e+02    3.1940002441e+01
    1.7750158691e+02    3.1924011230e+01
    1.7760156250e+02    3.1908004761e+01
    1.7770161438e+02    3.1891998291e+01
    1.7780162048e+02    3.1875000000e+01
    1.7790162659e+02    3.1858001709e+01
    1.7800160217e+02    3.1841003418e+01
    1.7810165405e+02    3.1822998047e+01
    1.7820162964e+02    3.1804992676e+01
    1.7830160522e+02    3.1786987305e+01
    1.7840162659e+02    3.1769012451e+01
    1.7850166321e+02    3.1751007080e+01
    1.7860165405e+02    3.1733001709e+01
    1.7870167542e+02    3.1714004517e+01
    1.7880166626e+02    3.1695999146e+01
    1.7890167236e+02    3.1677001953e+01
    1.7900167847e+02    3.1657989502e+01
    1.7910171509e+02    3.1639007568e+01
    1.7920170593e+02    3.1619003296e+01
    1.7930168152e+02    3.1599990845e+01
    1.7940171814e+02    3.1580001831e+01
    1.7950173950e+02    3.1559997559e+01
    1.7960169983e+02    3.1541000366e+01
    1.7970173645e+02    3.1519989014e+01
    1.7980174255e+02    3.1500000000e+01
    1.7990173340e+02    3.1479995728e+01
    1.8000172424e+02    3.1460006714e+01
    1.8010173035e+02    3.1457000732e+01
    1.8020178223e+02    3.1453994751e+01
    1.8030174255e+02    3.1450012207e+01
    1.8040174866e+02    3.1446990967e+01
    1.8050175476e+02    3.1443008423e+01
    1.8060176086e+02    3.1438995361e+01
    1.8070179749e+02    3.1435989380e+01
    1.8080177307e+02    3.1432006836e+01
    1.8090176392e+02    3.1428009033e+01
    1.8100181580e+02    3.1423995972e+01
    1.8110179138e+02    3.1419998169e+01
    1.8120179749e+02    3.1414993286e+01
    1.8130183411e+02    3.1410995483e+01
    1.8140184021e+02    3.1406005859e+01
    1.8150183105e+02    3.1402008057e+01
    1.8160183716e+02    3.1397994995e+01
    1.8170185852e+02    3.1393997192e+01
    1.8180183411e+02    3.1388992310e+01
    1.8190184021e+02    3.1384994507e+01
    1.8200190735e+02    3.1380004883e+01
    1.8210185242e+02    3.1375000000e+01
    1.8220187378e+02    3.1371002197e+01
    1.8230189514e+02    3.1364990234e+01
    1.8240187073e+02    3.1360992432e+01
    1.8250192261e+02    3.1356002808e+01
    1.8260188293e+02    3.1351013184e+01
    1.8270188904e+02    3.1345993042e+01
    1.8280194092e+02    3.1341003418e+01
    1.8290188599e+02    3.1334991455e+01
    1.8300195312e+02    3.1330001831e+01
    1.8310191345e+02    3.1324996948e+01
    1.8320191956e+02    3.1320007324e+01
    1.8330195618e+02    3.1313995361e+01
    1.8340196228e+02    3.1309005737e+01
    1.8350198364e+02    3.1302993774e+01
    1.8360194397e+02    3.1296997070e+01
    1.8370198059e+02    3.1291000366e+01
    1.8380198669e+02    3.1285003662e+01
    1.8390197754e+02    3.1279998779e+01
    1.8400195312e+02    3.1273986816e+01
    1.8410197449e+02    3.1268997192e+01
    1.8420198059e+02    3.1263000488e+01
    1.8430200195e+02    3.1257003784e+01
    1.8440202332e+02    3.1250991821e+01
    1.8450201416e+02    3.1246002197e+01
    1.8460200500e+02    3.1239990234e+01
    1.8470205688e+02    3.1235000610e+01
    1.8480201721e+02    3.1229003906e+01
    1.8490202332e+02    3.1222991943e+01
    1.8500205994e+02    3.1218002319e+01
    1.8510206604e+02    3.1212005615e+01
    1.8520207214e+02    3.1206985474e+01
    1.8530203247e+02    3.1201995850e+01
    1.8540205383e+02    3.1197006226e+01
    1.8550209045e+02    3.1190994263e+01
    1.8560208130e+02    3.1186004639e+01
    1.8570210266e+02    3.1180007935e+01
    1.8580209351e+02    3.1174987793e+01
    1.8590209961e+02    3.1169998169e+01
    1.8600210571e+02    3.1165008545e+01
    1.8610212708e+02    3.1160003662e+01
    1.8620210266e+02    3.1154998779e+01
    1.8630212402e+02    3.1150009155e+01
    1.8640211487e+02    3.1145004272e+01
    1.8650213623e+02    3.1141006470e+01
    1.8660217285e+02    3.1134994507e+01
    1.8670216370e+02    3.1130996704e+01
    1.8680215454e+02    3.1126007080e+01
    1.8690214539e+02    3.1122009277e+01
    1.8700218201e+02    3.1117004395e+01
    1.8710217285e+02    3.1113006592e+01
    1.8720219421e+02    3.1108001709e+01
    1.8730218506e+02    3.1104003906e+01
    1.8740220642e+02    3.1098999023e+01
    1.8750221252e+02    3.1095001221e+01
    1.8760217285e+02    3.1089996338e+01
    1.8770222473e+02    3.1084991455e+01
    1.8780221558e+02    3.1082000732e+01
    1.8790225220e+02    3.1077011108e+01
    1.8800224304e+02    3.1074005127e+01
    1.8810224915e+02    3.1069000244e+01
    1.8820225525e+02    3.1065994263e+01
    1.8830224609e+02    3.1061996460e+01
    1.8840225220e+02    3.1058990479e+01
    1.8850227356e+02    3.1055007935e+01
    1.8860226440e+02    3.1052001953e+01
    1.8870228577e+02    3.1048995972e+01
    1.8880230713e+02    3.1046005249e+01
    1.8890226746e+02    3.1042999268e+01
    1.8900228882e+02    3.1040008545e+01
    1.8910229492e+02    3.1037002563e+01
    1.8920233154e+02    3.1033996582e+01
    1.8930229187e+02    3.1033004761e+01
    1.8940229797e+02    3.1029998779e+01
    1.8950230408e+02    3.1027999878e+01
    1.8960232544e+02    3.1025009155e+01
    1.8970231628e+02    3.1024002075e+01
    1.8980232239e+02    3.1020996094e+01
    1.8990237427e+02    3.1020004272e+01
    1.9000233459e+02    3.1017990112e+01
    1.9010235596e+02    3.1031997681e+01
    1.9020234680e+02    3.1044998169e+01
    1.9030238342e+02    3.1057998657e+01
    1.9040237427e+02    3.1070999146e+01
    1.9050238037e+02    3.1084991455e+01
    1.9060235596e+02    3.1098007202e+01
    1.9070237732e+02    3.1111999512e+01
    1.9080242920e+02    3.1126998901e+01
    1.9090237427e+02    3.1140991211e+01
    1.9100241089e+02    3.1154998779e+01
    1.9110241699e+02    3.1168991089e+01
    1.9120245361e+02    3.1182998657e+01
    1.9130244446e+02    3.1196990967e+01
    1.9140242004e+02    3.1212005615e+01
    1.9150244141e+02    3.1227005005e+01
    1.9160246277e+02    3.1242004395e+01
    1.9170246887e+02    3.1257003784e+01
    1.9180247498e+02    3.1272003174e+01
    1.9190246582e+02    3.1286987305e+01
    1.9200250244e+02    3.1302001953e+01
    1.9210246277e+02    3.1317993164e+01
    1.9220245361e+02    3.1334991455e+01
    1.9230247498e+02    3.1350006104e+01
    1.9240252686e+02    3.1365997314e+01
    1.9250250244e+02    3.1382003784e+01
    1.9260253906e+02    3.1397003174e+01
    1.9270251465e+02    3.1412994385e+01
    1.9280250549e+02    3.1429000854e+01
    1.9290252686e+02    3.1445999146e+01
    1.9300254822e+02    3.1461990356e+01
    1.9310252380e+02    3.1477996826e+01
    1.9320257568e+02    3.1494003296e+01
    1.9330253601e+02    3.1511001587e+01
    1.9340255737e+02    3.1526992798e+01
    1.9350256348e+02    3.1543014526e+01
    1.9360255432e+02    3.1561004639e+01
    1.9370256042e+02    3.1576995850e+01
    1.9380259705e+02    3.1593994141e+01
    1.9390257263e+02    3.1611007690e+01
    1.9400256348e+02    3.1627990723e+01
    1.9410261536e+02    3.1643997192e+01
    1.9420260620e+02    3.1660995483e+01
    1.9430262756e+02    3.1679000854e+01
    1.9440261841e+02    3.1695999146e+01
[...]
    2.5130607605e+02    2.4273986816e+01
    2.5140611267e+02    2.4247009277e+01
    2.5150613403e+02    2.4220001221e+01
    2.5160612488e+02    2.4192993164e+01
    2.5170614624e+02    2.4165008545e+01
    2.5180613708e+02    2.4138000488e+01
    2.5190614319e+02    2.4110992432e+01
    2.5200613403e+02    2.4083984375e+01
    2.5210615540e+02    2.4057006836e+01
    2.5220616150e+02    2.4029998779e+01
    2.5230613708e+02    2.4001983643e+01
    2.5240618896e+02    2.3973999023e+01
    2.5250619507e+02    2.3946990967e+01
    2.5260615540e+02    2.3919006348e+01
    2.5270620728e+02    2.3890991211e+01
    2.5280619812e+02    2.3863983154e+01
    2.5290618896e+02    2.3835998535e+01
    2.5300619507e+02    2.3807006836e+01
    2.5310618591e+02    2.3778991699e+01
    2.5320622253e+02    2.3750000000e+01
    2.5330619812e+02    2.3721984863e+01
    2.5340621948e+02    2.3694000244e+01
    2.5350625610e+02    2.3665008545e+01
    2.5360626221e+02    2.3635986328e+01
    2.5370625305e+02    2.3606994629e+01
    2.5380627441e+02    2.3578002930e+01
    2.5390625000e+02    2.3548980713e+01
    2.5400627136e+02    2.3518981934e+01
    2.5410626221e+02    2.3489990234e+01
    2.5420626831e+02    2.3459991455e+01
    2.5430627441e+02    2.3428985596e+01
    2.5440626526e+02    2.3398986816e+01
    2.5450631714e+02    2.3368988037e+01
    2.5460627747e+02    2.3338989258e+01
    2.5470631409e+02    2.3307983398e+01
    2.5480630493e+02    2.3277984619e+01
    2.5490632629e+02    2.3246978760e+01
    2.5500633240e+02    2.3214996338e+01
    2.5510630798e+02    2.3183990479e+01
    2.5520632935e+02    2.3151977539e+01
    2.5530636597e+02    2.3121002197e+01
    2.5540632629e+02    2.3088989258e+01
    2.5550633240e+02    2.3055999756e+01
    2.5560638428e+02    2.3023010254e+01
    2.5570634460e+02    2.2991027832e+01
    2.5580636597e+02    2.2958984375e+01
    2.5590635681e+02    2.2925994873e+01
    2.5600637817e+02    2.2892974854e+01
    2.5610638428e+02    2.2859985352e+01
    2.5620639038e+02    2.2825012207e+01
    2.5630639648e+02    2.2791015625e+01
    2.5640640259e+02    2.2758026123e+01
    2.5650637817e+02    2.2723999023e+01
    2.5660641479e+02    2.2689025879e+01
    2.5670639038e+02    2.2655029297e+01
    2.5680639648e+02    2.2619018555e+01
    2.5690640259e+02    2.2584014893e+01
    2.5700643921e+02    2.2549011230e+01
    2.5710641479e+02    2.2513000488e+01
    2.5720642090e+02    2.2477996826e+01
    2.5730642700e+02    2.2442016602e+01
    2.5740643311e+02    2.2406005859e+01
    2.5750643921e+02    2.2368011475e+01
    2.5760644531e+02    2.2332000732e+01
    2.5770645142e+02    2.2295013428e+01
    2.5780648804e+02    2.2257995605e+01
    2.5790649414e+02    2.2221008301e+01
    2.5800650024e+02    2.2183013916e+01
    2.5810650635e+02    2.2145019531e+01
    2.5820648193e+02    2.2106018066e+01
    2.5830648804e+02    2.2067993164e+01
    2.5840649414e+02    2.2029998779e+01
    2.5850653076e+02    2.1990997314e+01
    2.5860650635e+02    2.1951995850e+01
    2.5870651245e+02    2.1912017822e+01
    2.5880651855e+02    2.1872009277e+01
    2.5890655518e+02    2.1832000732e+01
    2.5900653076e+02    2.1791992188e+01
    2.5910656738e+02    2.1752014160e+01
    2.5920657349e+02    2.1710998535e+01
    2.5930657959e+02    2.1671020508e+01
    2.5940655518e+02    2.1628997803e+01
    2.5950659180e+02    2.1587005615e+01
    2.5960659790e+02    2.1545989990e+01
    2.5970657349e+02    2.1503997803e+01
    2.5980661011e+02    2.1462005615e+01
    2.5990658569e+02    2.1420013428e+01
    2.6000659180e+02    2.1377014160e+01
    2.6010662842e+02    2.1334014893e+01
    2.6020660400e+02    2.1292022705e+01
    2.6030664062e+02    2.1248016357e+01
    2.6040661621e+02    2.1205993652e+01
    2.6050662231e+02    2.1161987305e+01
    2.6060665894e+02    2.1118011475e+01
    2.6070666504e+02    2.1075012207e+01
    2.6080664062e+02    2.1029998779e+01
    2.6090667725e+02    2.0986022949e+01
    2.6100665283e+02    2.0940979004e+01
    2.6110668945e+02    2.0895996094e+01
    2.6120666504e+02    2.0850006104e+01
    2.6130670166e+02    2.0804992676e+01
    2.6140667725e+02    2.0757995605e+01
    2.6150668335e+02    2.0713012695e+01
    2.6160671997e+02    2.0665985107e+01
    2.6170669556e+02    2.0618988037e+01
    2.6180670166e+02    2.0571990967e+01
    2.6190673828e+02    2.0523986816e+01
    2.6200671387e+02    2.0476989746e+01
    2.6210671997e+02    2.0428009033e+01
    2.6220672607e+02    2.0380004883e+01
    2.6230676270e+02    2.0332000732e+01
    2.6240676880e+02    2.0281982422e+01
    2.6250677490e+02    2.0234008789e+01
    2.6260678101e+02    2.0183013916e+01
    2.6270675659e+02    2.0134002686e+01
    2.6280679321e+02    2.0083007812e+01
    2.6290676880e+02    2.0032989502e+01
    2.6300680542e+02    1.9981994629e+01
    2.6310681152e+02    1.9929992676e+01
    2.6320678711e+02    1.9878997803e+01
    2.6330682373e+02    1.9826995850e+01
    2.6340679932e+02    1.9775024414e+01
    2.6350683594e+02    1.9722015381e+01
    2.6360684204e+02    1.9668975830e+01
    2.6370681763e+02    1.9614990234e+01
    2.6380685425e+02    1.9562011719e+01
    2.6390686035e+02    1.9507995605e+01
    2.6400686646e+02    1.9454010010e+01
    2.6410684204e+02    1.9399017334e+01
    2.6420684814e+02    1.9344024658e+01
    2.6430685425e+02    1.9289001465e+01
    2.6440686035e+02    1.9231994629e+01
    2.6450689697e+02    1.9177001953e+01
    2.6460687256e+02    1.9119995117e+01
    2.6470687866e+02    1.9063018799e+01
    2.6480688477e+02    1.9006011963e+01
    2.6490692139e+02    1.8948974609e+01
    2.6500692749e+02    1.8890991211e+01
    2.6510690308e+02    1.8833007812e+01
    2.6520693970e+02    1.8774993896e+01
    2.6530694580e+02    1.8716003418e+01
    2.6540695190e+02    1.8657012939e+01
    2.6550692749e+02    1.8598022461e+01
    2.6560696411e+02    1.8537994385e+01
    2.6570693970e+02    1.8479003906e+01
    2.6580697632e+02    1.8417999268e+01
    2.6590695190e+02    1.8358001709e+01
    2.6600695801e+02    1.8296997070e+01
    2.6610696411e+02    1.8236022949e+01
    2.6620697021e+02    1.8175018311e+01
    2.6630700684e+02    1.8113006592e+01
    2.6640701294e+02    1.8050994873e+01
    2.6650698853e+02    1.7989013672e+01
    2.6660702515e+02    1.7927001953e+01
    2.6670700073e+02    1.7864013672e+01
    2.6680700684e+02    1.7800994873e+01
    2.6690701294e+02    1.7736999512e+01
    2.6700704956e+02    1.7673980713e+01
    2.6710705566e+02    1.7609008789e+01
    2.6720706177e+02    1.7545013428e+01
    2.6730703735e+02    1.7481018066e+01
    2.6740704346e+02    1.7416015625e+01
    2.6750704956e+02    1.7350982666e+01
    2.6760705566e+02    1.7285003662e+01
    2.6770709229e+02    1.7220001221e+01
    2.6780706787e+02    1.7152984619e+01
    2.6790707397e+02    1.7087005615e+01
    2.6800711060e+02    1.7020019531e+01
    2.6810708618e+02    1.6953979492e+01
    2.6820709229e+02    1.6886993408e+01
    2.6830709839e+02    1.6819000244e+01
    2.6840713501e+02    1.6751007080e+01
    2.6850714111e+02    1.6683013916e+01
    2.6860711670e+02    1.6615020752e+01
    2.6870715332e+02    1.6546020508e+01
    2.6880712891e+02    1.6476989746e+01
    2.6890716553e+02    1.6407989502e+01
    2.6900714111e+02    1.6337982178e+01
    2.6910714722e+02    1.6269012451e+01
    2.6920718384e+02    1.6197998047e+01
    2.6930715942e+02    1.6128021240e+01
    2.6940719604e+02    1.6057006836e+01
    2.6950717163e+02    1.5986999512e+01
    2.6960717773e+02    1.5914978027e+01
    2.6970721436e+02    1.5843994141e+01
    2.6980722046e+02    1.5772003174e+01
    2.6990716553e+02    1.5700012207e+01
    2.7000723267e+02    1.5627014160e+01
    2.7010720825e+02    1.5553009033e+01
    2.7020724487e+02    1.5477996826e+01
    2.7030725098e+02    1.5403991699e+01
    2.7040722656e+02    1.5329010010e+01
    2.7050723267e+02    1.5253021240e+01
    2.7060723877e+02    1.5178009033e+01
    2.7070724487e+02    1.5101989746e+01
    2.7080725098e+02    1.5026000977e+01
    2.7090725708e+02    1.4949005127e+01
    2.7100729370e+02    1.4872009277e+01
    2.7110729980e+02    1.4795013428e+01
    2.7120730591e+02    1.4717987061e+01
    2.7130731201e+02    1.4639984131e+01
    2.7140728760e+02    1.4562011719e+01
    2.7150729370e+02    1.4484008789e+01
    2.7160733032e+02    1.4404998779e+01
    2.7170730591e+02    1.4325988770e+01
    2.7180731201e+02    1.4248016357e+01
    2.7190734863e+02    1.4167999268e+01
    2.7200735474e+02    1.4088989258e+01
    2.7210736084e+02    1.4009002686e+01
    2.7220736694e+02    1.3929016113e+01
    2.7230734253e+02    1.3848999023e+01
    2.7240734863e+02    1.3768005371e+01
    2.7250738525e+02    1.3686981201e+01
    2.7260739136e+02    1.3605987549e+01
    2.7270736694e+02    1.3524017334e+01
    2.7280740356e+02    1.3442993164e+01
    2.7290740967e+02    1.3360992432e+01
    2.7300741577e+02    1.3278991699e+01
    2.7310739136e+02    1.3197021484e+01
    2.7320739746e+02    1.3114990234e+01
    2.7330743408e+02    1.3032012939e+01
    2.7340744019e+02    1.2949981689e+01
    2.7350741577e+02    1.2866973877e+01
    2.7360742188e+02    1.2783996582e+01
    2.7370745850e+02    1.2700988770e+01
    2.7380746460e+02    1.2617004395e+01
    2.7390747070e+02    1.2533020020e+01
    2.7400747681e+02    1.2449005127e+01
    2.7410748291e+02    1.2364990234e+01
    2.7420745850e+02    1.2281005859e+01
    2.7430746460e+02    1.2196990967e+01
    2.7440747070e+02    1.2111999512e+01
    2.7450747681e+02    1.2028015137e+01
    2.7460748291e+02    1.1942993164e+01
    2.7470748901e+02    1.1858001709e+01
    2.7480749512e+02    1.1772979736e+01
    2.7490750122e+02    1.1687011719e+01
    2.7500753784e+02    1.1602020264e+01
    2.7510754395e+02    1.1514984131e+01
    2.7520751953e+02    1.1428985596e+01
    2.7530752563e+02    1.1343017578e+01
    2.7540753174e+02    1.1256988525e+01
    2.7550753784e+02    1.1169982910e+01
    2.7560754395e+02    1.1083984375e+01
    2.7570758057e+02    1.0997009277e+01
    2.7580758667e+02    1.0910003662e+01
    2.7590759277e+02    1.0822998047e+01
    2.7600759888e+02    1.0734985352e+01
    2.7610757446e+02    1.0647979736e+01
    2.7620761108e+02    1.0560028076e+01
    2.7630758667e+02    1.0471008301e+01
    2.7640759277e+02    1.0382995605e+01
    2.7650762939e+02    1.0294982910e+01
    2.7660760498e+02    1.0207000732e+01
    2.7670764160e+02    1.0118011475e+01
    2.7680761719e+02    1.0028991699e+01
    2.7690765381e+02    9.9400024414e+00
    2.7700765991e+02    9.8509826660e+00
    2.7710760498e+02    9.7620239258e+00
    2.7720767212e+02    9.6719970703e+00
    2.7730764771e+02    9.5830078125e+00
    2.7740768433e+02    9.4929809570e+00
    2.7750765991e+02    9.4020080566e+00
    2.7760766602e+02    9.3110046387e+00
    2.7770770264e+02    9.2210083008e+00
    2.7780767822e+02    9.1309814453e+00
    2.7790771484e+02    9.0400085449e+00
    2.7800769043e+02    8.9490051270e+00
    2.7810769653e+02    8.8580017090e+00
    2.7820773315e+02    8.7659912109e+00
    2.7830773926e+02    8.6749877930e+00
    2.7840771484e+02    8.5840148926e+00
    2.7850772095e+02    8.4920043945e+00
    2.7860775757e+02    8.3999938965e+00
    2.7870773315e+02    8.3069763184e+00
    2.7880770874e+02    8.2140197754e+00
    2.7890774536e+02    8.1220092773e+00
    2.7900778198e+02    8.0289916992e+00
    2.7910775757e+02    7.9360046387e+00
    2.7920779419e+02    7.8429870605e+00
    2.7930776978e+02    7.7500000000e+00
    2.7940777588e+02    7.6570129395e+00
    2.7950778198e+02    7.5639953613e+00
    2.7960781860e+02    7.4700012207e+00
    2.7970782471e+02    7.3760070801e+00
    2.7980783081e+02    7.2820129395e+00
    2.7990780640e+02    7.1869812012e+00
    2.8000781250e+02    7.0929870605e+00
    2.8010781860e+02    6.9950256348e+00
    2.8020782471e+02    6.8979797363e+00
    2.8030786133e+02    6.7990112305e+00
    2.8040783691e+02    6.7010192871e+00
    2.8050787354e+02    6.6030273438e+00
    2.8060787964e+02    6.5039978027e+00
    2.8070785522e+02    6.4060058594e+00
    2.8080789185e+02    6.3080139160e+00
    2.8090789795e+02    6.2090148926e+00
    2.8100790405e+02    6.1099853516e+00
    2.8110787964e+02    6.0119934082e+00
    2.8120791626e+02    5.9119873047e+00
    2.8130792236e+02    5.8129882812e+00
    2.8140792847e+02    5.7149963379e+00
    2.8150790405e+02    5.6149902344e+00
    2.8160791016e+02    5.5159912109e+00
    2.8170791626e+02    5.4169921875e+00
    2.8180795288e+02    5.3169860840e+00
    2.8190795898e+02    5.2170104980e+00
    2.8200793457e+02    5.1180114746e+00
    2.8210797119e+02    5.0180053711e+00
    2.8220797729e+02    4.9179992676e+00
    2.8230795288e+02    4.8179931641e+00
    2.8240795898e+02    4.7189941406e+00
    2.8250796509e+02    4.6189880371e+00
    2.8260800171e+02    4.5180053711e+00
    2.8270797729e+02    4.4190063477e+00
    2.8280801392e+02    4.3179931641e+00
    2.8290798950e+02    4.2179870605e+00
    2.8300799561e+02    4.1179809570e+00
    2.8310803223e+02    4.0169982910e+00
    2.8320800781e+02    3.9159851074e+00
    2.8330804443e+02    3.8159790039e+00
    2.8340802002e+02    3.7149963379e+00
    2.8350805664e+02    3.6140136719e+00
    2.8360806274e+02    3.5129699707e+00
    2.8370800781e+02    3.4120178223e+00
    2.8380807495e+02    3.3110046387e+00
    2.8390805054e+02    3.2090148926e+00
    2.8400808716e+02    3.1090087891e+00
    2.8410806274e+02    3.0069885254e+00
    2.8420809937e+02    2.9060058594e+00
    2.8430807495e+02    2.8039855957e+00
    2.8440808105e+02    2.7030029297e+00
    2.8450808716e+02    2.6000061035e+00
    2.8460809326e+02    2.4989929199e+00
    2.8470812988e+02    2.3970031738e+00
    2.8480810547e+02    2.2949829102e+00
    2.8490814209e+02    2.1929931641e+00
    2.8500811768e+02    2.0909729004e+00
    2.8510812378e+02    1.9890136719e+00
    2.8520816040e+02    1.8870239258e+00
    2.8530813599e+02    1.7839965820e+00
    2.8540817261e+02    1.6809997559e+00
    2.8550814819e+02    1.5800170898e+00
    2.8560815430e+02    1.4770202637e+00
    2.8570819092e+02    1.3739929199e+00
    2.8580816650e+02    1.2720031738e+00
    2.8590820312e+02    1.1690063477e+00
    2.8600820923e+02    1.0650024414e+00
    2.8610818481e+02    9.6200561523e-01
    2.8620819092e+02    8.5998535156e-01
    2.8630819702e+02    7.5598144531e-01
    2.8640820312e+02    6.5298461914e-01
    2.8650820923e+02    5.4998779297e-01
    2.8660821533e+02    4.4699096680e-01
    2.8670825195e+02    3.4301757812e-01
    2.8680822754e+02    2.4002075195e-01
    2.8690826416e+02    1.3702392578e-01
    2.8700823975e+02    3.3020019531e-02
    2.8710827637e+02   -6.9976806641e-02
    2.8720825195e+02   -1.7303466797e-01
    2.8730825806e+02   -2.7697753906e-01
    2.8740829468e+02   -3.8000488281e-01
    2.8750830078e+02   -4.8297119141e-01
    2.8760830688e+02   -5.8697509766e-01
    2.8770828247e+02   -6.8902587891e-01
    2.8780828857e+02   -7.9296875000e-01
    2.8790832520e+02   -8.9703369141e-01
    2.8800833130e+02   -1.0000000000e+00
    2.8810830688e+02   -1.1029663086e+00
    2.8820834351e+02   -1.2070312500e+00
    2.8830834961e+02   -1.3099975586e+00
    2.8840832520e+02   -1.4129638672e+00
    2.8850833130e+02   -1.5170288086e+00
    2.8860836792e+02   -1.6199951172e+00
    2.8870834351e+02   -1.7229614258e+00
    2.8880834961e+02   -1.8270263672e+00
    2.8890835571e+02   -1.9299926758e+00
    2.8900839233e+02   -2.0330200195e+00
    2.8910839844e+02   -2.1369628906e+00
    2.8920837402e+02   -2.2399902344e+00
    2.8930841064e+02   -2.3430175781e+00
    2.8940838623e+02   -2.4459838867e+00
    2.8950842285e+02   -2.5499877930e+00
    2.8960839844e+02   -2.6530151367e+00
    2.8970843506e+02   -2.7559814453e+00
    2.8980841064e+02   -2.8599853516e+00
    2.8990844727e+02   -2.9630126953e+00
    2.9000845337e+02   -3.0670166016e+00
    2.9010845947e+02   -3.1750488281e+00
    2.9020843506e+02   -3.2839965820e+00
    2.9030844116e+02   -3.3919677734e+00
    2.9040847778e+02   -3.5000000000e+00
    2.9050845337e+02   -3.6080322266e+00
    2.9060848999e+02   -3.7160034180e+00
    2.9070846558e+02   -3.8250122070e+00
    2.9080850220e+02   -3.9339599609e+00
    2.9090847778e+02   -4.0410156250e+00
    2.9100854492e+02   -4.1500244141e+00
    2.9110852051e+02   -4.2590332031e+00
    2.9120849609e+02   -4.3660278320e+00
    2.9130850220e+02   -4.4749755859e+00
    2.9140850830e+02   -4.5840454102e+00
    2.9150854492e+02   -4.6910400391e+00
    2.9160855103e+02   -4.7999877930e+00
    2.9170855713e+02   -4.9089965820e+00
    2.9180856323e+02   -5.0159912109e+00
    2.9190853882e+02   -5.1250000000e+00
    2.9200854492e+02   -5.2340087891e+00
    2.9210858154e+02   -5.3419799805e+00
    2.9220855713e+02   -5.4500122070e+00
    2.9230856323e+02   -5.5590209961e+00
    2.9240859985e+02   -5.6670532227e+00
    2.9250857544e+02   -5.7750244141e+00
    2.9260858154e+02   -5.8839721680e+00
    2.9270861816e+02   -5.9920043945e+00
    2.9280862427e+02   -6.1010131836e+00
    2.9290863037e+02   -6.2089843750e+00
    2.9300860596e+02   -6.3170166016e+00
    2.9310864258e+02   -6.4259643555e+00
    2.9320864868e+02   -6.5329589844e+00
    2.9330862427e+02   -6.6420288086e+00
    2.9340866089e+02   -6.7500000000e+00
    2.9350866699e+02   -6.8580322266e+00
    2.9360864258e+02   -6.9660034180e+00
    2.9370864868e+02   -7.0750122070e+00
    2.9380868530e+02   -7.1820068359e+00
    2.9390869141e+02   -7.2910156250e+00
    2.9400866699e+02   -7.3989868164e+00
    2.9410867310e+02   -7.5069580078e+00
    2.9420870972e+02   -7.6150512695e+00
    2.9430868530e+02   -7.7239990234e+00
    2.9440872192e+02   -7.8309936523e+00
    2.9450869751e+02   -7.9389648438e+00
    2.9460870361e+02   -8.0469970703e+00
    2.9470870972e+02   -8.1550292969e+00
    2.9480874634e+02   -8.2630004883e+00
    2.9490872192e+02   -8.3709716797e+00
    2.9500872803e+02   -8.4779663086e+00
    2.9510876465e+02   -8.5859985352e+00
    2.9520874023e+02   -8.6939697266e+00
    2.9530877686e+02   -8.8010253906e+00
    2.9540875244e+02   -8.9089965820e+00
    2.9550878906e+02   -9.0149536133e+00
    2.9560879517e+02   -9.1230468750e+00
    2.9570877075e+02   -9.2299804688e+00
    2.9580877686e+02   -9.3379516602e+00
    2.9590878296e+02   -9.4439697266e+00
    2.9600881958e+02   -9.5520019531e+00
    2.9610879517e+02   -9.6580200195e+00
    2.9620880127e+02   -9.7650146484e+00
    2.9630883789e+02   -9.8729858398e+00
    2.9640881348e+02   -9.9790039062e+00
    2.9650885010e+02   -1.0085998535e+01
    2.9660882568e+02   -1.0192993164e+01
    2.9670883179e+02   -1.0299011230e+01
    2.9680886841e+02   -1.0406005859e+01
    2.9690887451e+02   -1.0513000488e+01
    2.9700885010e+02   -1.0618041992e+01
    2.9710888672e+02   -1.0724975586e+01
    2.9720889282e+02   -1.0831970215e+01
    2.9730886841e+02   -1.0936950684e+01
    2.9740887451e+02   -1.1044006348e+01
    2.9750891113e+02   -1.1150024414e+01
    2.9760891724e+02   -1.1255981445e+01
    2.9770889282e+02   -1.1361999512e+01
    2.9780889893e+02   -1.1468017578e+01
    2.9790893555e+02   -1.1572998047e+01
    2.9800894165e+02   -1.1679992676e+01
    2.9810888672e+02   -1.1785949707e+01
    2.9820895386e+02   -1.1890991211e+01
    2.9830892944e+02   -1.1997009277e+01
    2.9840896606e+02   -1.2102050781e+01
    2.9850897217e+02   -1.2208007812e+01
    2.9860897827e+02   -1.2313964844e+01
    2.9870895386e+02   -1.2419006348e+01
    2.9880899048e+02   -1.2524047852e+01
    2.9890899658e+02   -1.2630004883e+01
    2.9900900269e+02   -1.2734008789e+01
    2.9910897827e+02   -1.2839965820e+01
    2.9920898438e+02   -1.2945007324e+01
    2.9930902100e+02   -1.3050048828e+01
    2.9940902710e+02   -1.3154968262e+01
    2.9950900269e+02   -1.3260986328e+01
    2.9960900879e+02   -1.3364990234e+01
    2.9970904541e+02   -1.3470031738e+01
    2.9980905151e+02   -1.3575012207e+01
    2.9990905762e+02   -1.3679992676e+01
endcurve
