Curveplot
LS-DYNA keyword deck by LS-PrePost
Abscissa
Ordinate
XY data
CHOP_NASZ_mo-1 #pts=3000
* Minval=    -7.4985496521e+01 at time=       199.4029541016
* Maxval=     7.4427700043e+00 at time=       299.9090576172
    0.0000000000e+00    0.0000000000e+00
    9.9969372153e-02    4.6467300494e-12
    1.9999055564e-01    9.5952600532e-07
    2.9997798800e-01    1.2926800537e-06
    3.9999884367e-01    1.7607000018e-06
    4.9999368191e-01    2.0039099127e-06
    5.9994947910e-01    2.7144399155e-06
    6.9995683432e-01    4.6031200327e-06
    7.9995691776e-01    5.8295399867e-06
    8.9995783567e-01    5.9106700974e-06
    9.9997615814e-01    5.3749499784e-06
    1.0999749899e+00    5.2280402087e-06
    1.1999589205e+00    5.3295898397e-06
    1.2999641895e+00    5.4878801166e-06
    1.3999682665e+00    5.8214500314e-06
    1.4999890327e+00    7.6871401689e-06
    1.5999946594e+00    1.1365899809e-05
    1.6999493837e+00    1.6613799744e-05
    1.7999840975e+00    2.4042399673e-05
    1.8999625444e+00    3.1265899452e-05
    1.9999979734e+00    3.9918701077e-05
    2.0999755859e+00    4.9500300520e-05
    2.1999657154e+00    5.7781900978e-05
    2.2999944687e+00    6.5504602389e-05
    2.3999969959e+00    7.1653797932e-05
    2.4999971390e+00    7.6519099821e-05
    2.5999636650e+00    8.0983998487e-05
    2.6999635696e+00    8.3031998656e-05
    2.7999787331e+00    8.1313301052e-05
    2.8999865055e+00    7.7494696598e-05
    2.9999670982e+00    6.9583598815e-05
    3.0999732018e+00    6.0099700931e-05
    3.1999964714e+00    4.9313399359e-05
    3.2999606133e+00    3.7145298847e-05
    3.3999693394e+00    2.4683600714e-05
    3.4999444485e+00    1.2119699932e-05
    3.5999779701e+00   -1.6238200260e-06
    3.6999688148e+00   -1.6869400497e-05
    3.7999927998e+00   -3.1569699786e-05
    3.8999881744e+00   -4.7504701797e-05
    3.9999790192e+00   -6.3197898271e-05
    4.0999979973e+00   -8.0539502960e-05
    4.1999869347e+00   -9.8561496998e-05
    4.2999892235e+00   -1.1903900304e-04
    4.3999638557e+00   -1.4147699403e-04
    4.4999594688e+00   -1.6631999461e-04
    4.5999741554e+00   -1.9328099734e-04
    4.6999936104e+00   -2.2451199766e-04
    4.7999687195e+00   -2.5815999834e-04
    4.8999819756e+00   -2.9381099739e-04
    4.9999451637e+00   -3.3294499735e-04
    5.0999517441e+00   -3.7512599374e-04
    5.1999678612e+00   -4.2178700096e-04
    5.2999477386e+00   -4.7225301387e-04
    5.3999924660e+00   -5.2651501028e-04
    5.4999446869e+00   -5.8353500208e-04
    5.5999689102e+00   -6.4418802503e-04
    5.6999573708e+00   -7.0740102092e-04
    5.7999835014e+00   -7.7459099703e-04
    5.8999633789e+00   -8.4328599041e-04
    5.9999904633e+00   -9.1590097873e-04
    6.0999917984e+00   -9.9329301156e-04
    6.1999559402e+00   -1.0713599622e-03
    6.2999868393e+00   -1.1542199645e-03
    6.3999643326e+00   -1.2404200388e-03
    6.4999818802e+00   -1.3295699609e-03
    6.5999855995e+00   -1.4247200452e-03
    6.6999430656e+00   -1.5249899589e-03
    6.7999916077e+00   -1.6287800390e-03
    6.8999857903e+00   -1.7392799491e-03
    6.9999866486e+00   -1.8525100313e-03
    7.0999903679e+00   -1.9690298941e-03
    7.1999754906e+00   -2.0910101011e-03
    7.2999916077e+00   -2.2167400457e-03
    7.3999700546e+00   -2.3462600075e-03
    7.4999904633e+00   -2.4815099314e-03
    7.5999941826e+00   -2.6175300591e-03
    7.6999754906e+00   -2.7569900267e-03
    7.7999663353e+00   -2.8996400069e-03
    7.8999881744e+00   -3.0439400580e-03
    7.9999499321e+00   -3.1935099978e-03
    8.0999841690e+00   -3.3434899524e-03
    8.1999864578e+00   -3.4960799385e-03
    8.2999477386e+00   -3.6517800763e-03
    8.3999547958e+00   -3.8105100393e-03
    8.4999647141e+00   -3.9723101072e-03
    8.5999832153e+00   -4.1368100792e-03
    8.6999530792e+00   -4.3027801439e-03
    8.7999639511e+00   -4.4729700312e-03
    8.8999767303e+00   -4.6473201364e-03
    8.9999771118e+00   -4.8240697943e-03
    9.0999765396e+00   -5.0050299615e-03
    9.1999673843e+00   -5.1882201806e-03
    9.2999715805e+00   -5.3739999421e-03
    9.3999557495e+00   -5.5642998777e-03
    9.4999561310e+00   -5.7580000721e-03
    9.5999441147e+00   -5.9535601176e-03
    9.6999645233e+00   -6.1536398716e-03
    9.7999467850e+00   -6.3572297804e-03
    9.8999977112e+00   -6.5636797808e-03
    9.9999589920e+00   -6.7741298117e-03
    1.0099968910e+01   -6.9858799689e-03
    1.0199953079e+01   -7.2010997683e-03
    1.0299945831e+01   -7.4190301821e-03
    1.0399965286e+01   -7.6380600221e-03
    1.0499965668e+01   -7.8604603186e-03
    1.0599949837e+01   -8.0850403756e-03
    1.0699962616e+01   -8.3107603714e-03
    1.0800002098e+01   -8.5403202102e-03
    1.0899985313e+01   -8.7765399367e-03
    1.0999961853e+01   -9.0139796957e-03
    1.1099952698e+01   -9.2546204105e-03
    1.1199979782e+01   -9.4970604405e-03
    1.1299984932e+01   -9.7448304296e-03
    1.1399976730e+01   -9.9968602881e-03
    1.1499999046e+01   -1.0249800049e-02
    1.1599985123e+01   -1.0502899997e-02
    1.1699957848e+01   -1.0757500306e-02
    1.1799983025e+01   -1.1012299918e-02
    1.1899961472e+01   -1.1269600131e-02
    1.1999995232e+01   -1.1529799551e-02
    1.2099998474e+01   -1.1792300269e-02
    1.2199968338e+01   -1.2059199624e-02
    1.2299962997e+01   -1.2331300415e-02
    1.2399999619e+01   -1.2609000318e-02
    1.2499962807e+01   -1.2889600359e-02
    1.2599994659e+01   -1.3176999986e-02
    1.2699981689e+01   -1.3470900245e-02
    1.2799963951e+01   -1.3774599880e-02
    1.2899968147e+01   -1.4088300057e-02
    1.2999986649e+01   -1.4409700409e-02
    1.3099967003e+01   -1.4740499668e-02
    1.3199962616e+01   -1.5077199787e-02
    1.3299996376e+01   -1.5420000069e-02
    1.3399962425e+01   -1.5770299360e-02
    1.3499993324e+01   -1.6126699746e-02
    1.3599989891e+01   -1.6489300877e-02
    1.3700004578e+01   -1.6860200092e-02
    1.3799965858e+01   -1.7235500738e-02
    1.3900013924e+01   -1.7618300393e-02
    1.3999975204e+01   -1.8005099148e-02
    1.4099980354e+01   -1.8396800384e-02
    1.4199968338e+01   -1.8796300516e-02
    1.4300005913e+01   -1.9203599542e-02
    1.4399991035e+01   -1.9616199657e-02
    1.4499982834e+01   -2.0039299503e-02
    1.4599979401e+01   -2.0469700918e-02
    1.4700016975e+01   -2.0907999948e-02
    1.4800003052e+01   -2.1355699748e-02
    1.4899967194e+01   -2.1809700876e-02
    1.4999972343e+01   -2.2273700684e-02
    1.5100006104e+01   -2.2748699412e-02
    1.5200000763e+01   -2.3232400417e-02
    1.5300013542e+01   -2.3727700114e-02
    1.5399974823e+01   -2.4231899530e-02
    1.5499973297e+01   -2.4745199829e-02
    1.5600020409e+01   -2.5269400328e-02
    1.5700016975e+01   -2.5801299140e-02
    1.5800010681e+01   -2.6340400800e-02
    1.5899975777e+01   -2.6888599619e-02
    1.5999968529e+01   -2.7445100248e-02
    1.6100006104e+01   -2.8010500595e-02
    1.6199974060e+01   -2.8584899381e-02
    1.6300014496e+01   -2.9165800661e-02
    1.6399993896e+01   -2.9756000265e-02
    1.6500005722e+01   -3.0356900766e-02
    1.6599990845e+01   -3.0966799706e-02
    1.6699998856e+01   -3.1589001417e-02
    1.6800025940e+01   -3.2220501453e-02
    1.6899978638e+01   -3.2860901207e-02
    1.7000017166e+01   -3.3514101058e-02
    1.7100017548e+01   -3.4175001085e-02
    1.7200006485e+01   -3.4843899310e-02
    1.7299999237e+01   -3.5523999482e-02
    1.7400011063e+01   -3.6211900413e-02
    1.7500020981e+01   -3.6907900125e-02
    1.7599994659e+01   -3.7614498287e-02
    1.7699985504e+01   -3.8324698806e-02
    1.7799989700e+01   -3.9042200893e-02
    1.7900009155e+01   -3.9769198745e-02
    1.8000007629e+01   -4.0500000119e-02
    1.8100017548e+01   -4.1239500046e-02
    1.8200019836e+01   -4.1984099895e-02
    1.8299976349e+01   -4.2732499540e-02
    1.8400022507e+01   -4.3491099030e-02
    1.8499998093e+01   -4.4254701585e-02
    1.8599983215e+01   -4.5024301857e-02
    1.8700006485e+01   -4.5801699162e-02
    1.8799987793e+01   -4.6584598720e-02
    1.8899988174e+01   -4.7374699265e-02
    1.9000005722e+01   -4.8172399402e-02
    1.9099994659e+01   -4.8976201564e-02
    1.9199981689e+01   -4.9787100405e-02
    1.9300027847e+01   -5.0606101751e-02
    1.9399980545e+01   -5.1431398839e-02
    1.9500032425e+01   -5.2266698331e-02
    1.9600013733e+01   -5.3109399974e-02
    1.9700033188e+01   -5.3958300501e-02
    1.9799993515e+01   -5.4816000164e-02
    1.9900007248e+01   -5.5682998151e-02
    1.9999984741e+01   -5.6557498872e-02
    2.0099990845e+01   -5.7440001518e-02
    2.0200040817e+01   -5.8327998966e-02
    2.0299999237e+01   -5.9224199504e-02
    2.0400026321e+01   -6.0129001737e-02
    2.0500040054e+01   -6.1038400978e-02
    2.0600002289e+01   -6.1956100166e-02
    2.0699995041e+01   -6.2878698111e-02
    2.0799997330e+01   -6.3806399703e-02
    2.0900028229e+01   -6.4746901393e-02
    2.1000000000e+01   -6.5693803132e-02
    2.1100023270e+01   -6.6648803651e-02
    2.1200017929e+01   -6.7612498999e-02
    2.1300012589e+01   -6.8585202098e-02
    2.1400011063e+01   -6.9565802813e-02
    2.1500007629e+01   -7.0554398000e-02
    2.1600028992e+01   -7.1546502411e-02
    2.1700025558e+01   -7.2544202209e-02
    2.1800006866e+01   -7.3547497392e-02
    2.1899997711e+01   -7.4558101594e-02
    2.2000017166e+01   -7.5577996671e-02
    2.2099994659e+01   -7.6604500413e-02
    2.2200014114e+01   -7.7639997005e-02
    2.2300012589e+01   -7.8685201705e-02
    2.2400020599e+01   -7.9739101231e-02
    2.2500034332e+01   -8.0802299082e-02
    2.2600044250e+01   -8.1877797842e-02
    2.2700012207e+01   -8.2965202630e-02
    2.2800018311e+01   -8.4068201482e-02
    2.2900026321e+01   -8.5185199976e-02
    2.3000047684e+01   -8.6316600442e-02
    2.3100036621e+01   -8.7460897863e-02
    2.3200029373e+01   -8.8616602123e-02
    2.3300020218e+01   -8.9781500399e-02
    2.3400012970e+01   -9.0960003436e-02
    2.3500017166e+01   -9.2149801552e-02
    2.3600040436e+01   -9.3352198601e-02
    2.3700029373e+01   -9.4567202032e-02
    2.3800006866e+01   -9.5791496336e-02
    2.3900020599e+01   -9.7026698291e-02
    2.4000034332e+01   -9.8271496594e-02
    2.4100019455e+01   -9.9525198340e-02
    2.4200014114e+01   -1.0079199821e-01
    2.4300003052e+01   -1.0207100213e-01
    2.4400007248e+01   -1.0336200148e-01
    2.4500022888e+01   -1.0466799885e-01
    2.4600021362e+01   -1.0598599911e-01
    2.4700025558e+01   -1.0731499642e-01
    2.4800027847e+01   -1.0865599662e-01
    2.4900009155e+01   -1.1000700295e-01
    2.5000049591e+01   -1.1137299985e-01
    2.5100011826e+01   -1.1275199801e-01
    2.5200056076e+01   -1.1414500326e-01
    2.5300014496e+01   -1.1555200070e-01
    2.5400028229e+01   -1.1697400361e-01
    2.5500017166e+01   -1.1840700358e-01
    2.5600038528e+01   -1.1985400319e-01
    2.5700052261e+01   -1.2131199986e-01
    2.5800018311e+01   -1.2278199941e-01
    2.5900047302e+01   -1.2426500022e-01
    2.6000038147e+01   -1.2576000392e-01
    2.6100030899e+01   -1.2726899981e-01
    2.6200033188e+01   -1.2878899276e-01
    2.6300012589e+01   -1.3031999767e-01
    2.6400020599e+01   -1.3186299801e-01
    2.6500019073e+01   -1.3341900706e-01
    2.6600025177e+01   -1.3498599827e-01
    2.6700038910e+01   -1.3656899333e-01
    2.6800050735e+01   -1.3816499710e-01
    2.6900020599e+01   -1.3977499306e-01
    2.7000040054e+01   -1.4140200615e-01
    2.7100059509e+01   -1.4304000139e-01
    2.7200029373e+01   -1.4469000697e-01
    2.7300035477e+01   -1.4635500312e-01
    2.7400028229e+01   -1.4802999794e-01
    2.7500034332e+01   -1.4971899986e-01
    2.7600067139e+01   -1.5141999722e-01
    2.7700021744e+01   -1.5312799811e-01
    2.7800018311e+01   -1.5484799445e-01
    2.7900060654e+01   -1.5658000112e-01
    2.8000028610e+01   -1.5831899643e-01
    2.8100032806e+01   -1.6007000208e-01
    2.8200035095e+01   -1.6182899475e-01
    2.8300062180e+01   -1.6359600425e-01
    2.8400035858e+01   -1.6537700593e-01
    2.8500066757e+01   -1.6716699302e-01
    2.8600051880e+01   -1.6896900535e-01
    2.8700052261e+01   -1.7078199983e-01
    2.8800039291e+01   -1.7260399461e-01
    2.8900037766e+01   -1.7443899810e-01
    2.9000066757e+01   -1.7628400028e-01
    2.9100070953e+01   -1.7813999951e-01
    2.9200029373e+01   -1.8000499904e-01
    2.9300035477e+01   -1.8188099563e-01
    2.9400074005e+01   -1.8377000093e-01
    2.9500064850e+01   -1.8567100167e-01
    2.9600063324e+01   -1.8758299947e-01
    2.9700048447e+01   -1.8950800598e-01
    2.9800052643e+01   -1.9144499302e-01
    2.9900037766e+01   -1.9339400530e-01
    3.0000030518e+01   -1.9535499811e-01
    3.0100051880e+01   -1.9732999802e-01
    3.0200067520e+01   -1.9931599498e-01
    3.0300071716e+01   -2.0131500065e-01
    3.0400043488e+01   -2.0332400501e-01
    3.0500032425e+01   -2.0534500480e-01
    3.0600063324e+01   -2.0737800002e-01
    3.0700061798e+01   -2.0941600204e-01
    3.0800043106e+01   -2.1146899462e-01
    3.0900053024e+01   -2.1353800595e-01
    3.1000055313e+01   -2.1561999619e-01
    3.1100034714e+01   -2.1771499515e-01
    3.1200080872e+01   -2.1982300282e-01
    3.1300062180e+01   -2.2194500268e-01
    3.1400072098e+01   -2.2407899797e-01
    3.1500070572e+01   -2.2622199357e-01
    3.1600053787e+01   -2.2837199271e-01
    3.1700050354e+01   -2.3052899539e-01
    3.1800060272e+01   -2.3269300163e-01
    3.1900064468e+01   -2.3486900330e-01
    3.2000026703e+01   -2.3705400527e-01
    3.2100051880e+01   -2.3925100267e-01
    3.2200065613e+01   -2.4146200716e-01
    3.2300048828e+01   -2.4368900061e-01
    3.2400024414e+01   -2.4593000114e-01
    3.2500053406e+01   -2.4818900228e-01
    3.2600021362e+01   -2.5046399236e-01
    3.2700046539e+01   -2.5276800990e-01
    3.2800056458e+01   -2.5509798527e-01
    3.2900035858e+01   -2.5745299459e-01
    3.3000053406e+01   -2.5983598828e-01
    3.3100025177e+01   -2.6223799586e-01
    3.3200035095e+01   -2.6466199756e-01
    3.3300052643e+01   -2.6710298657e-01
    3.3400028229e+01   -2.6956200600e-01
    3.3500053406e+01   -2.7204298973e-01
    3.3600013733e+01   -2.7454000711e-01
    3.3700012207e+01   -2.7705699205e-01
    3.3800052643e+01   -2.7959200740e-01
    3.3900043488e+01   -2.8213900328e-01
    3.4000041962e+01   -2.8470298648e-01
    3.4100032806e+01   -2.8728500009e-01
    3.4200038910e+01   -2.8988799453e-01
    3.4300029755e+01   -2.9251098633e-01
    3.4400024414e+01   -2.9515799880e-01
    3.4500041962e+01   -2.9782798886e-01
    3.4600028992e+01   -3.0052199960e-01
    3.4700027466e+01   -3.0324101448e-01
    3.4800022125e+01   -3.0597999692e-01
    3.4900005341e+01   -3.0874401331e-01
    3.4999980927e+01   -3.1153199077e-01
    3.5100032806e+01   -3.1434899569e-01
    3.5199989319e+01   -3.1719300151e-01
    3.5299980164e+01   -3.2006400824e-01
    3.5399993896e+01   -3.2296100259e-01
    3.5499984741e+01   -3.2588499784e-01
    3.5600017548e+01   -3.2883399725e-01
    3.5699970245e+01   -3.3180400729e-01
    3.5799976349e+01   -3.3480200171e-01
    3.5899997711e+01   -3.3782199025e-01
    3.5999988556e+01   -3.4086799622e-01
    3.6100006104e+01   -3.4394198656e-01
    3.6199993134e+01   -3.4703698754e-01
    3.6299991608e+01   -3.5015898943e-01
    3.6399982452e+01   -3.5330501199e-01
    3.6499977112e+01   -3.5647499561e-01
    3.6599960327e+01   -3.5967800021e-01
    3.6699962616e+01   -3.6291098595e-01
    3.6799980164e+01   -3.6617401242e-01
    3.6900001526e+01   -3.6947199702e-01
    3.7000003815e+01   -3.7279599905e-01
    3.7099960327e+01   -3.7614798546e-01
    3.7199996948e+01   -3.7953200936e-01
    3.7299957275e+01   -3.8293901086e-01
    3.7399974823e+01   -3.8637700677e-01
    3.7499973297e+01   -3.8984298706e-01
    3.7599990845e+01   -3.9333298802e-01
    3.7699962616e+01   -3.9684599638e-01
    3.7799957275e+01   -4.0038201213e-01
    3.7899986267e+01   -4.0393900871e-01
    3.7999946594e+01   -4.0751901269e-01
    3.8099952698e+01   -4.1112199426e-01
    3.8199977875e+01   -4.1474699974e-01
    3.8299942017e+01   -4.1839399934e-01
    3.8399940491e+01   -4.2206400633e-01
    3.8499961853e+01   -4.2576199770e-01
    3.8599952698e+01   -4.2948201299e-01
    3.8699943542e+01   -4.3322399259e-01
    3.8799926758e+01   -4.3699398637e-01
    3.8899929047e+01   -4.4078901410e-01
    3.8999965668e+01   -4.4460898638e-01
    3.9099929810e+01   -4.4845300913e-01
    3.9199947357e+01   -4.5232200623e-01
    3.9299926758e+01   -4.5621699095e-01
    3.9399963379e+01   -4.6014299989e-01
    3.9499942780e+01   -4.6409198642e-01
    3.9599914551e+01   -4.6806699038e-01
    3.9699916840e+01   -4.7207000852e-01
    3.9799957275e+01   -4.7610199451e-01
    3.9899959564e+01   -4.8016300797e-01
    3.9999923706e+01   -4.8424899578e-01
    4.0099937439e+01   -4.8836201429e-01
    4.0199920654e+01   -4.9250000715e-01
    4.0299907684e+01   -4.9666199088e-01
    4.0399902344e+01   -5.0085097551e-01
    4.0499912262e+01   -5.0506401062e-01
    4.0599941254e+01   -5.0930297375e-01
    4.0699932098e+01   -5.1355898380e-01
    4.0799915314e+01   -5.1784300804e-01
    4.0899909973e+01   -5.2215999365e-01
    4.0999912262e+01   -5.2650201321e-01
    4.1099918365e+01   -5.3087300062e-01
    4.1199924469e+01   -5.3527200222e-01
    4.1299896240e+01   -5.3969997168e-01
    4.1399898529e+01   -5.4415798187e-01
    4.1499912262e+01   -5.4863899946e-01
    4.1599884033e+01   -5.5313897133e-01
    4.1699913025e+01   -5.5766302347e-01
    4.1799896240e+01   -5.6220597029e-01
    4.1899913788e+01   -5.6677699089e-01
    4.1999908447e+01   -5.7137101889e-01
    4.2099922180e+01   -5.7599198818e-01
    4.2199886322e+01   -5.8063900471e-01
    4.2299922943e+01   -5.8532202244e-01
    4.2399871826e+01   -5.9003198147e-01
    4.2499904633e+01   -5.9477698803e-01
    4.2599872589e+01   -5.9955501556e-01
    4.2699874878e+01   -6.0438102484e-01
    4.2799869537e+01   -6.0925400257e-01
    4.2899879456e+01   -6.1417198181e-01
    4.2999862671e+01   -6.1913800240e-01
    4.3099868774e+01   -6.2414598465e-01
    4.3199905396e+01   -6.2919402122e-01
    4.3299907684e+01   -6.3427901268e-01
    4.3399898529e+01   -6.3940000534e-01
    4.3499855042e+01   -6.4455801249e-01
    4.3599872589e+01   -6.4976197481e-01
    4.3699867249e+01   -6.5500301123e-01
    4.3799896240e+01   -6.6027998924e-01
    4.3899856567e+01   -6.6558998823e-01
    4.3999885559e+01   -6.7093497515e-01
    4.4099891663e+01   -6.7631602287e-01
    4.4199867249e+01   -6.8173497915e-01
    4.4299858093e+01   -6.8719398975e-01
    4.4399879456e+01   -6.9269901514e-01
    4.4499858856e+01   -6.9824701548e-01
    4.4599876404e+01   -7.0384001732e-01
    4.4699840546e+01   -7.0947200060e-01
    4.4799873352e+01   -7.1514898539e-01
    4.4899883270e+01   -7.2086602449e-01
    4.4999877930e+01   -7.2662901878e-01
    4.5099845886e+01   -7.3243999481e-01
    4.5199844360e+01   -7.3830300570e-01
    4.5299839020e+01   -7.4421501160e-01
    4.5399822235e+01   -7.5017201900e-01
    4.5499824524e+01   -7.5617802143e-01
    4.5599822998e+01   -7.6222598553e-01
    4.5699844360e+01   -7.6831799746e-01
    4.5799823761e+01   -7.7445602417e-01
    4.5899822235e+01   -7.8063797951e-01
    4.5999855042e+01   -7.8686898947e-01
    4.6099830627e+01   -7.9314297438e-01
    4.6199844360e+01   -7.9945898056e-01
    4.6299812317e+01   -8.0581802130e-01
    4.6399829865e+01   -8.1222200394e-01
    4.6499832153e+01   -8.1866997480e-01
    4.6599807739e+01   -8.2516700029e-01
    4.6699855804e+01   -8.3172202110e-01
    4.6799850464e+01   -8.3832401037e-01
    4.6899826050e+01   -8.4497702122e-01
    4.6999835968e+01   -8.5168302059e-01
    4.7099834442e+01   -8.5843300819e-01
    4.7199813843e+01   -8.6522901058e-01
    4.7299812317e+01   -8.7207502127e-01
    4.7399799347e+01   -8.7896502018e-01
    4.7499816895e+01   -8.8590300083e-01
    4.7599807739e+01   -8.9288502932e-01
    4.7699836731e+01   -8.9990699291e-01
    4.7799804688e+01   -9.0696501732e-01
    4.7899787903e+01   -9.1406202316e-01
    4.7999805450e+01   -9.2119902372e-01
    4.8099811554e+01   -9.2837202549e-01
    4.8199802399e+01   -9.3558198214e-01
    4.8299804688e+01   -9.4283199310e-01
    4.8399799347e+01   -9.5012199879e-01
    4.8499828339e+01   -9.5745402575e-01
    4.8599803925e+01   -9.6482300758e-01
    4.8699810028e+01   -9.7223198414e-01
    4.8799808502e+01   -9.7968202829e-01
    4.8899799347e+01   -9.8717302084e-01
    4.8999794006e+01   -9.9470299482e-01
    4.9099792480e+01   -1.0022699833e+00
    4.9199817657e+01   -1.0098899603e+00
    4.9299774170e+01   -1.0175299644e+00
    4.9399799347e+01   -1.0252300501e+00
    4.9499805450e+01   -1.0329699516e+00
    4.9599765778e+01   -1.0407400131e+00
    4.9699779510e+01   -1.0485700369e+00
    4.9799777985e+01   -1.0564399958e+00
    4.9899784088e+01   -1.0643500090e+00
    4.9999759674e+01   -1.0722999573e+00
    5.0099765778e+01   -1.0802999735e+00
    5.0199790955e+01   -1.0883400440e+00
    5.0299774170e+01   -1.0964100361e+00
    5.0399799347e+01   -1.1045399904e+00
    5.0499790192e+01   -1.1126899719e+00
    5.0599781036e+01   -1.1208900213e+00
    5.0699787140e+01   -1.1291300058e+00
    5.0799785614e+01   -1.1374000311e+00
    5.0899772644e+01   -1.1457200050e+00
    5.0999782562e+01   -1.1540900469e+00
    5.1099773407e+01   -1.1624900103e+00
    5.1199760437e+01   -1.1709400415e+00
    5.1299774170e+01   -1.1794400215e+00
    5.1399742126e+01   -1.1879800558e+00
    5.1499763489e+01   -1.1965600252e+00
    5.1599750519e+01   -1.2051800489e+00
    5.1699771881e+01   -1.2138299942e+00
    5.1799739838e+01   -1.2225099802e+00
    5.1899738312e+01   -1.2312400341e+00
    5.1999740601e+01   -1.2400100231e+00
    5.2099754333e+01   -1.2488199472e+00
    5.2199748993e+01   -1.2576700449e+00
    5.2299751282e+01   -1.2665699720e+00
    5.2399753571e+01   -1.2755199671e+00
    5.2499752045e+01   -1.2845100164e+00
    5.2599731445e+01   -1.2935600281e+00
    5.2699722290e+01   -1.3026700020e+00
    5.2799758911e+01   -1.3118499517e+00
    5.2899726868e+01   -1.3210899830e+00
    5.2999736786e+01   -1.3304100037e+00
    5.3099754333e+01   -1.3397799730e+00
    5.3199714661e+01   -1.3492000103e+00
    5.3299724579e+01   -1.3586800098e+00
    5.3399726868e+01   -1.3682199717e+00
    5.3499721527e+01   -1.3778100014e+00
    5.3599708557e+01   -1.3874599934e+00
    5.3699748993e+01   -1.3971699476e+00
    5.3799709320e+01   -1.4069299698e+00
    5.3899726868e+01   -1.4167399406e+00
    5.3999721527e+01   -1.4265999794e+00
    5.4099693298e+01   -1.4364999533e+00
    5.4199707031e+01   -1.4464600086e+00
    5.4299690247e+01   -1.4564900398e+00
    5.4399692535e+01   -1.4665700197e+00
    5.4499698639e+01   -1.4767099619e+00
    5.4599689484e+01   -1.4869099855e+00
    5.4699687958e+01   -1.4971699715e+00
    5.4799682617e+01   -1.5074900389e+00
    5.4899684906e+01   -1.5178699493e+00
    5.4999702454e+01   -1.5283099413e+00
    5.5099720001e+01   -1.5388200283e+00
    5.5199710846e+01   -1.5493899584e+00
    5.5299713135e+01   -1.5600199699e+00
    5.5399700165e+01   -1.5707199574e+00
    5.5499687195e+01   -1.5814800262e+00
    5.5599689484e+01   -1.5923000574e+00
    5.5699680328e+01   -1.6031700373e+00
    5.5799705505e+01   -1.6141099930e+00
    5.5899681091e+01   -1.6251000166e+00
    5.5999660492e+01   -1.6361600161e+00
    5.6099704742e+01   -1.6472799778e+00
    5.6199672699e+01   -1.6584500074e+00
    5.6299667358e+01   -1.6696799994e+00
    5.6399673462e+01   -1.6809699535e+00
    5.6499664307e+01   -1.6923199892e+00
    5.6599678040e+01   -1.7037299871e+00
    5.6699691772e+01   -1.7152199745e+00
    5.6799652100e+01   -1.7267600298e+00
    5.6899677277e+01   -1.7383799553e+00
    5.6999671936e+01   -1.7500599623e+00
    5.7099697113e+01   -1.7618000507e+00
    5.7199676514e+01   -1.7735999823e+00
    5.7299652100e+01   -1.7854700089e+00
    5.7399658203e+01   -1.7973899841e+00
    5.7499645233e+01   -1.8093700409e+00
    5.7599658966e+01   -1.8214199543e+00
    5.7699672699e+01   -1.8335100412e+00
    5.7799648285e+01   -1.8456499577e+00
    5.7899642944e+01   -1.8578499556e+00
    5.7999679565e+01   -1.8700900078e+00
    5.8099643707e+01   -1.8823800087e+00
    5.8199649811e+01   -1.8947299719e+00
    5.8299633026e+01   -1.9071199894e+00
    5.8399639130e+01   -1.9195699692e+00
    5.8499671936e+01   -1.9320800304e+00
    5.8599662781e+01   -1.9446300268e+00
    5.8699653625e+01   -1.9572299719e+00
    5.8799621582e+01   -1.9698899984e+00
    5.8899646759e+01   -1.9826099873e+00
    5.8999633789e+01   -1.9953700304e+00
    5.9099666595e+01   -2.0081899166e+00
    5.9199634552e+01   -2.0210499763e+00
    5.9299610138e+01   -2.0339701176e+00
    5.9399658203e+01   -2.0469601154e+00
    5.9499626160e+01   -2.0599899292e+00
    5.9599647522e+01   -2.0730800629e+00
    5.9699642181e+01   -2.0862200260e+00
    5.9799633026e+01   -2.0994300842e+00
    5.9899600983e+01   -2.1126899719e+00
    5.9999641418e+01   -2.1260099411e+00
    6.0099624634e+01   -2.1393899918e+00
    6.0199611664e+01   -2.1528201103e+00
    6.0299610138e+01   -2.1663000584e+00
    6.0399639130e+01   -2.1798501015e+00
    6.0499641418e+01   -2.1934399605e+00
    6.0599597931e+01   -2.2070899010e+00
    6.0699615479e+01   -2.2207798958e+00
    6.0799621582e+01   -2.2345299721e+00
    6.0899604797e+01   -2.2483398914e+00
    6.0999618530e+01   -2.2622001171e+00
    6.1099601746e+01   -2.2761199474e+00
    6.1199615479e+01   -2.2901000977e+00
    6.1299621582e+01   -2.3041400909e+00
    6.1399589539e+01   -2.3182399273e+00
    6.1499622345e+01   -2.3324000835e+00
    6.1599594116e+01   -2.3465900421e+00
    6.1699611664e+01   -2.3608500957e+00
    6.1799571991e+01   -2.3751399517e+00
    6.1899570465e+01   -2.3894898891e+00
    6.1999580383e+01   -2.4038999081e+00
    6.2099594116e+01   -2.4183700085e+00
    6.2199600220e+01   -2.4328899384e+00
    6.2299606323e+01   -2.4474699497e+00
    6.2399574280e+01   -2.4621100426e+00
    6.2499568939e+01   -2.4768199921e+00
    6.2599597931e+01   -2.4916000366e+00
    6.2699577332e+01   -2.5064499378e+00
    6.2799564362e+01   -2.5213899612e+00
    6.2899555206e+01   -2.5364201069e+00
    6.2999576569e+01   -2.5515298843e+00
    6.3099571228e+01   -2.5667200089e+00
    6.3199584961e+01   -2.5819799900e+00
    6.3299587250e+01   -2.5973100662e+00
    6.3399547577e+01   -2.6126999855e+00
    6.3499572754e+01   -2.6281800270e+00
    6.3599555969e+01   -2.6437299252e+00
    6.3699588776e+01   -2.6593599319e+00
    6.3799549103e+01   -2.6750500202e+00
    6.3899539948e+01   -2.6908099651e+00
    6.3999588013e+01   -2.7066299915e+00
    6.4099540710e+01   -2.7225100994e+00
    6.4199569702e+01   -2.7384700775e+00
    6.4299560547e+01   -2.7544898987e+00
    6.4399559021e+01   -2.7706000805e+00
    6.4499580383e+01   -2.7867898941e+00
    6.4599548340e+01   -2.8030400276e+00
    6.4699569702e+01   -2.8193800449e+00
    6.4799568176e+01   -2.8357899189e+00
    6.4899559021e+01   -2.8522698879e+00
    6.4999549866e+01   -2.8688299656e+00
    6.5099555969e+01   -2.8854799271e+00
    6.5199554443e+01   -2.9022099972e+00
    6.5299545288e+01   -2.9190299511e+00
    6.5399528503e+01   -2.9359099865e+00
    6.5499534607e+01   -2.9528899193e+00
    6.5599548340e+01   -2.9699399471e+00
    6.5699523926e+01   -2.9870600700e+00
    6.5799530029e+01   -3.0042600632e+00
    6.5899536133e+01   -3.0215299129e+00
    6.5999542236e+01   -3.0388898849e+00
    6.6099525452e+01   -3.0563199520e+00
    6.6199531555e+01   -3.0738201141e+00
    6.6299537659e+01   -3.0913999081e+00
    6.6399520874e+01   -3.1090500355e+00
    6.6499534607e+01   -3.1267800331e+00
    6.6599533081e+01   -3.1445999146e+00
    6.6699516296e+01   -3.1624898911e+00
    6.6799514771e+01   -3.1804800034e+00
    6.6899497986e+01   -3.1985599995e+00
    6.6999519348e+01   -3.2167201042e+00
    6.7099494934e+01   -3.2349600792e+00
    6.7199516296e+01   -3.2532899380e+00
    6.7299545288e+01   -3.2716898918e+00
    6.7399536133e+01   -3.2901699543e+00
    6.7499534607e+01   -3.3087298870e+00
    6.7599494934e+01   -3.3273599148e+00
    6.7699523926e+01   -3.3460700512e+00
    6.7799491882e+01   -3.3648300171e+00
    6.7899528503e+01   -3.3836801052e+00
    6.7999496460e+01   -3.4025800228e+00
    6.8099494934e+01   -3.4215500355e+00
    6.8199531555e+01   -3.4405899048e+00
    6.8299507141e+01   -3.4597001076e+00
    6.8399497986e+01   -3.4788799286e+00
    6.8499481201e+01   -3.4981300831e+00
    6.8599517822e+01   -3.5174601078e+00
    6.8699485779e+01   -3.5368499756e+00
    6.8799491882e+01   -3.5563199520e+00
    6.8899482727e+01   -3.5758600235e+00
    6.8999511719e+01   -3.5954799652e+00
    6.9099487305e+01   -3.6151599884e+00
    6.9199485779e+01   -3.6349101067e+00
    6.9299499512e+01   -3.6547400951e+00
    6.9399482727e+01   -3.6746299267e+00
    6.9499458313e+01   -3.6946001053e+00
    6.9599494934e+01   -3.7146599293e+00
    6.9699470520e+01   -3.7347800732e+00
    6.9799484253e+01   -3.7549800873e+00
    6.9899482727e+01   -3.7752599716e+00
    6.9999481201e+01   -3.7956199646e+00
    7.0099487305e+01   -3.8160500526e+00
    7.0199455261e+01   -3.8365499973e+00
    7.0299499512e+01   -3.8571400642e+00
    7.0399452209e+01   -3.8777799606e+00
    7.0499488831e+01   -3.8985199928e+00
    7.0599441528e+01   -3.9193100929e+00
    7.0699470520e+01   -3.9401800632e+00
    7.0799446106e+01   -3.9611101151e+00
    7.0899482727e+01   -3.9821300507e+00
    7.0999481201e+01   -4.0032200813e+00
    7.1099456787e+01   -4.0243802071e+00
    7.1199447632e+01   -4.0456199646e+00
    7.1299430847e+01   -4.0669398308e+00
    7.1399467468e+01   -4.0883498192e+00
    7.1499427795e+01   -4.1098198891e+00
    7.1599456787e+01   -4.1313700676e+00
    7.1699462891e+01   -4.1529798508e+00
    7.1799430847e+01   -4.1746602058e+00
    7.1899452209e+01   -4.1964201927e+00
    7.1999465942e+01   -4.2182497978e+00
    7.2099418640e+01   -4.2401499748e+00
    7.2199432373e+01   -4.2621397972e+00
    7.2299461365e+01   -4.2842001915e+00
    7.2399459839e+01   -4.3063402176e+00
    7.2499458313e+01   -4.3285598755e+00
    7.2599411011e+01   -4.3508601189e+00
    7.2699409485e+01   -4.3732800484e+00
    7.2799415588e+01   -4.3957901001e+00
    7.2899436951e+01   -4.4184198380e+00
    7.2999443054e+01   -4.4411401749e+00
    7.3099418640e+01   -4.4639501572e+00
    7.3199409485e+01   -4.4868497849e+00
    7.3299407959e+01   -4.5098400116e+00
    7.3399421692e+01   -4.5329298973e+00
    7.3499420166e+01   -4.5561099052e+00
    7.3599449158e+01   -4.5794000626e+00
    7.3699409485e+01   -4.6027698517e+00
    7.3799430847e+01   -4.6262297630e+00
    7.3899414062e+01   -4.6497697830e+00
    7.3999435425e+01   -4.6733999252e+00
    7.4099388123e+01   -4.6971001625e+00
    7.4199432373e+01   -4.7209100723e+00
    7.4299423218e+01   -4.7448000908e+00
    7.4399414062e+01   -4.7687897682e+00
    7.4499397278e+01   -4.7928700447e+00
    7.4599395752e+01   -4.8170499802e+00
    7.4699401855e+01   -4.8413100243e+00
    7.4799407959e+01   -4.8656702042e+00
    7.4899383545e+01   -4.8901200294e+00
    7.4999374390e+01   -4.9146699905e+00
    7.5099372864e+01   -4.9393200874e+00
    7.5199401855e+01   -4.9640798569e+00
    7.5299400330e+01   -4.9889397621e+00
    7.5399368286e+01   -5.0138797760e+00
    7.5499412537e+01   -5.0389399529e+00
    7.5599403381e+01   -5.0640802383e+00
    7.5699401855e+01   -5.0893201828e+00
    7.5799392700e+01   -5.1146497726e+00
    7.5899391174e+01   -5.1400699615e+00
    7.5999374390e+01   -5.1655898094e+00
    7.6099372864e+01   -5.1912097931e+00
    7.6199371338e+01   -5.2169198990e+00
    7.6299362183e+01   -5.2427201271e+00
    7.6399375916e+01   -5.2686100006e+00
    7.6499389648e+01   -5.2945899963e+00
    7.6599357605e+01   -5.3206601143e+00
    7.6699348450e+01   -5.3468499184e+00
    7.6799377441e+01   -5.3731498718e+00
    7.6899375916e+01   -5.3995499611e+00
    7.6999374390e+01   -5.4260501862e+00
    7.7099380493e+01   -5.4526500702e+00
    7.7199340820e+01   -5.4793300629e+00
    7.7299354553e+01   -5.5061302185e+00
    7.7399383545e+01   -5.5330300331e+00
    7.7499359131e+01   -5.5600099564e+00
    7.7599380493e+01   -5.5870900154e+00
    7.7699363708e+01   -5.6142501831e+00
    7.7799369812e+01   -5.6414899826e+00
    7.7899368286e+01   -5.6688199043e+00
    7.7999328613e+01   -5.6962199211e+00
    7.8099365234e+01   -5.7237300873e+00
    7.8199363708e+01   -5.7513098717e+00
    7.8299369812e+01   -5.7789697647e+00
    7.8399345398e+01   -5.8067197800e+00
    7.8499320984e+01   -5.8345499039e+00
    7.8599342346e+01   -5.8624801636e+00
    7.8699363708e+01   -5.8905000687e+00
    7.8799362183e+01   -5.9186000824e+00
    7.8899337769e+01   -5.9467802048e+00
    7.8999343872e+01   -5.9750599861e+00
    7.9099319458e+01   -6.0034098625e+00
    7.9199348450e+01   -6.0318698883e+00
    7.9299324036e+01   -6.0603899956e+00
    7.9399360657e+01   -6.0890297890e+00
    7.9499328613e+01   -6.1177301407e+00
    7.9599342346e+01   -6.1465401649e+00
    7.9699325562e+01   -6.1754198074e+00
    7.9799316406e+01   -6.2044000626e+00
    7.9899345398e+01   -6.2334799767e+00
    7.9999305725e+01   -6.2626299858e+00
    8.0099342346e+01   -6.2918901443e+00
    8.0199333191e+01   -6.3212299347e+00
    8.0299293518e+01   -6.3506498337e+00
    8.0399330139e+01   -6.3801798820e+00
    8.0499305725e+01   -6.4097800255e+00
    8.0599334717e+01   -6.4394798279e+00
    8.0699310303e+01   -6.4692401886e+00
    8.0799316406e+01   -6.4991002083e+00
    8.0899307251e+01   -6.5290398598e+00
    8.0999328613e+01   -6.5590901375e+00
    8.1099319458e+01   -6.5892100334e+00
    8.1199317932e+01   -6.6194200516e+00
    8.1299308777e+01   -6.6497302055e+00
    8.1399307251e+01   -6.6801300049e+00
    8.1499328613e+01   -6.7106199265e+00
    8.1599304199e+01   -6.7411799431e+00
    8.1699287415e+01   -6.7718200684e+00
    8.1799285889e+01   -6.8025398254e+00
    8.1899276733e+01   -6.8333501816e+00
    8.1999313354e+01   -6.8642702103e+00
    8.2099304199e+01   -6.8952498436e+00
    8.2199279785e+01   -6.9263200760e+00
    8.2299285889e+01   -6.9574799538e+00
    8.2399307251e+01   -6.9887499809e+00
    8.2499305725e+01   -7.0201001167e+00
    8.2599281311e+01   -7.0515398979e+00
    8.2699295044e+01   -7.0831198692e+00
    8.2799285889e+01   -7.1148099899e+00
    8.2899284363e+01   -7.1466097832e+00
    8.2999282837e+01   -7.1785202026e+00
    8.3099266052e+01   -7.2105298042e+00
    8.3199256897e+01   -7.2426500320e+00
    8.3299255371e+01   -7.2748599052e+00
    8.3399284363e+01   -7.3071999550e+00
    8.3499290466e+01   -7.3396301270e+00
    8.3599258423e+01   -7.3721599579e+00
    8.3699249268e+01   -7.4047999382e+00
    8.3799255371e+01   -7.4375400543e+00
    8.3899253845e+01   -7.4703698158e+00
    8.3999267578e+01   -7.5033102036e+00
    8.4099250793e+01   -7.5363202095e+00
    8.4199279785e+01   -7.5694599152e+00
    8.4299278259e+01   -7.6026902199e+00
    8.4399246216e+01   -7.6360101700e+00
    8.4499252319e+01   -7.6694498062e+00
    8.4599258423e+01   -7.7030000687e+00
    8.4699241638e+01   -7.7366399765e+00
    8.4799263000e+01   -7.7703900337e+00
    8.4899230957e+01   -7.8042402267e+00
    8.4999267578e+01   -7.8382101059e+00
    8.5099235535e+01   -7.8722701073e+00
    8.5199218750e+01   -7.9064497948e+00
    8.5299270630e+01   -7.9407701492e+00
    8.5399238586e+01   -7.9751601219e+00
    8.5499221802e+01   -8.0096597672e+00
    8.5599266052e+01   -8.0442895889e+00
    8.5699218750e+01   -8.0789899826e+00
    8.5799255371e+01   -8.1138200760e+00
    8.5899230957e+01   -8.1487398148e+00
    8.5999252319e+01   -8.1837797165e+00
    8.6099250793e+01   -8.2189302444e+00
    8.6199241638e+01   -8.2541599274e+00
    8.6299201965e+01   -8.2894897461e+00
    8.6399223328e+01   -8.3249301910e+00
    8.6499237061e+01   -8.3604698181e+00
    8.6599212646e+01   -8.3961200714e+00
    8.6699195862e+01   -8.4318799973e+00
    8.6799232483e+01   -8.4677696228e+00
    8.6899223328e+01   -8.5037603378e+00
    8.6999206543e+01   -8.5398597717e+00
    8.7099243164e+01   -8.5760803223e+00
    8.7199203491e+01   -8.6123800278e+00
    8.7299224854e+01   -8.6488103867e+00
    8.7399185181e+01   -8.6853303909e+00
    8.7499229431e+01   -8.7219800949e+00
    8.7599227905e+01   -8.7587099075e+00
    8.7699218750e+01   -8.7955303192e+00
    8.7799224854e+01   -8.8324499130e+00
    8.7899185181e+01   -8.8694496155e+00
    8.7999221802e+01   -8.9065599442e+00
    8.8099212646e+01   -8.9437398911e+00
    8.8199195862e+01   -8.9810104370e+00
    8.8299171448e+01   -9.0183696747e+00
    8.8399208069e+01   -9.0558500290e+00
    8.8499183655e+01   -9.0934000015e+00
    8.8599166870e+01   -9.1310501099e+00
    8.8699211121e+01   -9.1688098907e+00
    8.8799171448e+01   -9.2066402435e+00
    8.8899185181e+01   -9.2445802689e+00
    8.8999160767e+01   -9.2825899124e+00
    8.9099159241e+01   -9.3207101822e+00
    8.9199157715e+01   -9.3589296341e+00
    8.9299163818e+01   -9.3972396851e+00
    8.9399192810e+01   -9.4356498718e+00
    8.9499198914e+01   -9.4741601944e+00
    8.9599166870e+01   -9.5127401352e+00
    8.9699180603e+01   -9.5514297485e+00
    8.9799156189e+01   -9.5902004242e+00
    8.9899185181e+01   -9.6290903091e+00
    8.9999168396e+01   -9.6680498123e+00
    9.0099151611e+01   -9.7071104050e+00
    9.0199172974e+01   -9.7462902069e+00
    9.0299179077e+01   -9.7855396271e+00
    9.0399139404e+01   -9.8248796463e+00
    9.0499183655e+01   -9.8643302917e+00
    9.0599143982e+01   -9.9038496017e+00
    9.0699142456e+01   -9.9434700012e+00
    9.0799156189e+01   -9.9831800461e+00
    9.0899139404e+01   -1.0022999763e+01
    9.0999168396e+01   -1.0062899590e+01
    9.1099174500e+01   -1.0102899551e+01
    9.1199127197e+01   -1.0142900467e+01
    9.1299171448e+01   -1.0183199883e+01
    9.1399139404e+01   -1.0223400116e+01
    9.1499168396e+01   -1.0263799667e+01
    9.1599166870e+01   -1.0304200172e+01
    9.1699142456e+01   -1.0344799995e+01
    9.1799125671e+01   -1.0385399818e+01
    9.1899154663e+01   -1.0426099777e+01
    9.1999153137e+01   -1.0466899872e+01
    9.2099143982e+01   -1.0507800102e+01
    9.2199119568e+01   -1.0548800468e+01
    9.2299148560e+01   -1.0589799881e+01
    9.2399139404e+01   -1.0630999565e+01
    9.2499153137e+01   -1.0672300339e+01
    9.2599121094e+01   -1.0713700294e+01
    9.2699157715e+01   -1.0755200386e+01
    9.2799110413e+01   -1.0796899796e+01
    9.2899139404e+01   -1.0838700294e+01
    9.2999130249e+01   -1.0880499840e+01
    9.3099121094e+01   -1.0922599792e+01
    9.3199134827e+01   -1.0964699745e+01
    9.3299125671e+01   -1.1006899834e+01
    9.3399093628e+01   -1.1049200058e+01
    9.3499107361e+01   -1.1091699600e+01
    9.3599113464e+01   -1.1134200096e+01
    9.3699134827e+01   -1.1176899910e+01
    9.3799087524e+01   -1.1219699860e+01
    9.3899116516e+01   -1.1262599945e+01
    9.3999114990e+01   -1.1305600166e+01
    9.4099082947e+01   -1.1348600388e+01
    9.4199111938e+01   -1.1391900063e+01
    9.4299102783e+01   -1.1435199738e+01
    9.4399124146e+01   -1.1478599548e+01
    9.4499122620e+01   -1.1522100449e+01
    9.4599075317e+01   -1.1565799713e+01
    9.4699111938e+01   -1.1609600067e+01
    9.4799095154e+01   -1.1653400421e+01
    9.4899108887e+01   -1.1697400093e+01
    9.4999092102e+01   -1.1741499901e+01
    9.5099082947e+01   -1.1785799980e+01
    9.5199111938e+01   -1.1830100060e+01
    9.5299110413e+01   -1.1874600410e+01
    9.5399093628e+01   -1.1919199944e+01
    9.5499084473e+01   -1.1963899612e+01
    9.5599067688e+01   -1.2008700371e+01
    9.5699066162e+01   -1.2053700447e+01
    9.5799087524e+01   -1.2098699570e+01
    9.5899055481e+01   -1.2143899918e+01
    9.5999053955e+01   -1.2189200401e+01
    9.6099098206e+01   -1.2234600067e+01
    9.6199073792e+01   -1.2280099869e+01
    9.6299064636e+01   -1.2325799942e+01
    9.6399047852e+01   -1.2371500015e+01
    9.6499092102e+01   -1.2417400360e+01
    9.6599067688e+01   -1.2463299751e+01
    9.6699096680e+01   -1.2509400368e+01
    9.6799072266e+01   -1.2555700302e+01
    9.6899040222e+01   -1.2602000237e+01
    9.6999069214e+01   -1.2648500443e+01
    9.7099060059e+01   -1.2695099831e+01
    9.7199050903e+01   -1.2741800308e+01
    9.7299049377e+01   -1.2788599968e+01
    9.7399040222e+01   -1.2835599899e+01
    9.7499069214e+01   -1.2882699966e+01
    9.7599044800e+01   -1.2929800034e+01
    9.7699035645e+01   -1.2977100372e+01
    9.7799072266e+01   -1.3024499893e+01
    9.7899047852e+01   -1.3071999550e+01
    9.7999061584e+01   -1.3119500160e+01
    9.8099075317e+01   -1.3167200089e+01
    9.8199073792e+01   -1.3215000153e+01
    9.8299034119e+01   -1.3262800217e+01
    9.8399024963e+01   -1.3310799599e+01
    9.8499023438e+01   -1.3358900070e+01
    9.8599014282e+01   -1.3406999588e+01
    9.8699043274e+01   -1.3455300331e+01
    9.8799011230e+01   -1.3503700256e+01
    9.8899017334e+01   -1.3552200317e+01
    9.8999015808e+01   -1.3600799561e+01
    9.9099052429e+01   -1.3649499893e+01
    9.9199012756e+01   -1.3698200226e+01
    9.9299049377e+01   -1.3747200012e+01
    9.9399002075e+01   -1.3796099663e+01
    9.9499053955e+01   -1.3845299721e+01
    9.9599021912e+01   -1.3894499779e+01
    9.9699043274e+01   -1.3943799973e+01
    9.9799018860e+01   -1.3993200302e+01
    9.9899032593e+01   -1.4042699814e+01
    9.9999023438e+01   -1.4092300415e+01
    1.0009902954e+02   -1.4142000198e+01
    1.0019899750e+02   -1.4191900253e+01
    1.0029901123e+02   -1.4241800308e+01
    1.0039903259e+02   -1.4291799545e+01
    1.0049900055e+02   -1.4341899872e+01
    1.0059899139e+02   -1.4392100334e+01
    1.0069902802e+02   -1.4442500114e+01
    1.0079902649e+02   -1.4492899895e+01
    1.0089900208e+02   -1.4543399811e+01
    1.0099900818e+02   -1.4593999863e+01
    1.0109902191e+02   -1.4644800186e+01
    1.0119898224e+02   -1.4695599556e+01
    1.0129901123e+02   -1.4746500015e+01
    1.0139897919e+02   -1.4797499657e+01
    1.0149900055e+02   -1.4848699570e+01
    1.0159899902e+02   -1.4899900436e+01
    1.0169902039e+02   -1.4951199532e+01
    1.0179900360e+02   -1.5002599716e+01
    1.0189897156e+02   -1.5054100037e+01
    1.0199900818e+02   -1.5105699539e+01
    1.0209900665e+02   -1.5157400131e+01
    1.0219898224e+02   -1.5209199905e+01
    1.0229900360e+02   -1.5261099815e+01
    1.0239900208e+02   -1.5313199997e+01
    1.0249894714e+02   -1.5365300179e+01
    1.0259899139e+02   -1.5417599678e+01
    1.0269898987e+02   -1.5470000267e+01
    1.0279900360e+02   -1.5522500038e+01
    1.0289897919e+02   -1.5575200081e+01
    1.0299897766e+02   -1.5628000259e+01
    1.0309893799e+02   -1.5680899620e+01
    1.0319896698e+02   -1.5734000206e+01
    1.0329898071e+02   -1.5787199974e+01
    1.0339898682e+02   -1.5840499878e+01
    1.0349894714e+02   -1.5893899918e+01
    1.0359893799e+02   -1.5947400093e+01
    1.0369895172e+02   -1.6001100540e+01
    1.0379898071e+02   -1.6054899216e+01
    1.0389894104e+02   -1.6108800888e+01
    1.0399894714e+02   -1.6162900925e+01
    1.0409895325e+02   -1.6216999054e+01
    1.0419898224e+02   -1.6271299362e+01
    1.0429895782e+02   -1.6325700760e+01
    1.0439893341e+02   -1.6380199432e+01
    1.0449893951e+02   -1.6434799194e+01
    1.0459896088e+02   -1.6489599228e+01
    1.0469893646e+02   -1.6544500351e+01
    1.0479891968e+02   -1.6599500656e+01
    1.0489893341e+02   -1.6654699326e+01
    1.0499897003e+02   -1.6709899902e+01
    1.0509896851e+02   -1.6765399933e+01
    1.0519892120e+02   -1.6820899963e+01
    1.0529895782e+02   -1.6876600266e+01
    1.0539893341e+02   -1.6932399750e+01
    1.0549891663e+02   -1.6988300323e+01
    1.0559893036e+02   -1.7044399261e+01
    1.0569895172e+02   -1.7100599289e+01
    1.0579892731e+02   -1.7156900406e+01
    1.0589893341e+02   -1.7213300705e+01
    1.0599893188e+02   -1.7269899368e+01
    1.0609892273e+02   -1.7326599121e+01
    1.0619892883e+02   -1.7383499146e+01
    1.0629894257e+02   -1.7440399170e+01
    1.0639891815e+02   -1.7497499466e+01
    1.0649893951e+02   -1.7554700851e+01
    1.0659892273e+02   -1.7611999512e+01
    1.0669892120e+02   -1.7669500351e+01
    1.0679889679e+02   -1.7727100372e+01
    1.0689891815e+02   -1.7784900665e+01
    1.0699889374e+02   -1.7842699051e+01
    1.0709890747e+02   -1.7900800705e+01
    1.0719891357e+02   -1.7958900452e+01
    1.0729888153e+02   -1.8017200470e+01
    1.0739890289e+02   -1.8075599670e+01
    1.0749890137e+02   -1.8134099960e+01
    1.0759889984e+02   -1.8192800522e+01
    1.0769889069e+02   -1.8251499176e+01
    1.0779891205e+02   -1.8310400009e+01
    1.0789887238e+02   -1.8369300842e+01
    1.0799889374e+02   -1.8428400040e+01
    1.0809887695e+02   -1.8487600327e+01
    1.0819888306e+02   -1.8546899796e+01
    1.0829888916e+02   -1.8606300354e+01
    1.0839885712e+02   -1.8665700912e+01
    1.0849890900e+02   -1.8725400925e+01
    1.0859886932e+02   -1.8785100937e+01
    1.0869889069e+02   -1.8844900131e+01
    1.0879888153e+02   -1.8904800415e+01
    1.0889891052e+02   -1.8964899063e+01
    1.0899886322e+02   -1.9024999619e+01
    1.0909886169e+02   -1.9085300446e+01
    1.0919888306e+02   -1.9145700455e+01
    1.0929886627e+02   -1.9206100464e+01
    1.0939888000e+02   -1.9266700745e+01
    1.0949886322e+02   -1.9327400208e+01
    1.0959884644e+02   -1.9388200760e+01
    1.0969889069e+02   -1.9449100494e+01
    1.0979888916e+02   -1.9510200500e+01
    1.0989888763e+02   -1.9571300507e+01
    1.0999887085e+02   -1.9632600784e+01
    1.1009889221e+02   -1.9693899155e+01
    1.1019885254e+02   -1.9755399704e+01
    1.1029885864e+02   -1.9816900253e+01
    1.1039884949e+02   -1.9878599167e+01
    1.1049887848e+02   -1.9940399170e+01
    1.1059884644e+02   -2.0002300262e+01
    1.1069886017e+02   -2.0064300537e+01
    1.1079885101e+02   -2.0126300812e+01
    1.1089884186e+02   -2.0188499451e+01
    1.1099884033e+02   -2.0250799179e+01
    1.1109886169e+02   -2.0313199997e+01
    1.1119882965e+02   -2.0375699997e+01
    1.1129882050e+02   -2.0438299179e+01
    1.1139884186e+02   -2.0501100540e+01
    1.1149884796e+02   -2.0563899994e+01
    1.1159883118e+02   -2.0626800537e+01
    1.1169885254e+02   -2.0689800262e+01
    1.1179886627e+02   -2.0753000259e+01
    1.1189882660e+02   -2.0816200256e+01
    1.1199881744e+02   -2.0879499435e+01
    1.1209880829e+02   -2.0942899704e+01
    1.1219880676e+02   -2.1006399155e+01
    1.1229885101e+02   -2.1070100784e+01
    1.1239884186e+02   -2.1133800507e+01
    1.1249880219e+02   -2.1197700500e+01
    1.1259883881e+02   -2.1261699677e+01
    1.1269882965e+02   -2.1325899124e+01
    1.1279884338e+02   -2.1390199661e+01
    1.1289881134e+02   -2.1454599380e+01
    1.1299884033e+02   -2.1519199371e+01
    1.1309880829e+02   -2.1583999634e+01
    1.1319882202e+02   -2.1648799896e+01
    1.1329878998e+02   -2.1713800430e+01
    1.1339878845e+02   -2.1778900146e+01
    1.1349884033e+02   -2.1844200134e+01
    1.1359879303e+02   -2.1909500122e+01
    1.1369882202e+02   -2.1975099564e+01
    1.1379881287e+02   -2.2040700912e+01
    1.1389880371e+02   -2.2106500626e+01
    1.1399880219e+02   -2.2172399521e+01
    1.1409879303e+02   -2.2238399506e+01
    1.1419882965e+02   -2.2304500580e+01
    1.1429879761e+02   -2.2370700836e+01
    1.1439880371e+02   -2.2437099457e+01
    1.1449880981e+02   -2.2503599167e+01
    1.1459877777e+02   -2.2570299149e+01
    1.1469877625e+02   -2.2637100220e+01
    1.1479879761e+02   -2.2704000473e+01
    1.1489877319e+02   -2.2770999908e+01
    1.1499877167e+02   -2.2838100433e+01
    1.1509879303e+02   -2.2905500412e+01
    1.1519876099e+02   -2.2972900391e+01
    1.1529878998e+02   -2.3040500641e+01
    1.1539875793e+02   -2.3108200073e+01
    1.1549878693e+02   -2.3176099777e+01
    1.1559877014e+02   -2.3243999481e+01
    1.1569879913e+02   -2.3312200546e+01
    1.1579876709e+02   -2.3380399704e+01
    1.1589878082e+02   -2.3448799133e+01
    1.1599878693e+02   -2.3517299652e+01
    1.1609876251e+02   -2.3585899353e+01
    1.1619876862e+02   -2.3654699326e+01
    1.1629878235e+02   -2.3723600388e+01
    1.1639877319e+02   -2.3792600632e+01
    1.1649877167e+02   -2.3861799240e+01
    1.1659876251e+02   -2.3931100845e+01
    1.1669873810e+02   -2.4000499725e+01
    1.1679875183e+02   -2.4069999695e+01
    1.1689875793e+02   -2.4139799118e+01
    1.1699874878e+02   -2.4209600449e+01
    1.1709877777e+02   -2.4279600143e+01
    1.1719873047e+02   -2.4349700928e+01
    1.1729876709e+02   -2.4420000076e+01
    1.1739875031e+02   -2.4490299225e+01
    1.1749877167e+02   -2.4560800552e+01
    1.1759873199e+02   -2.4631399155e+01
    1.1769876099e+02   -2.4702199936e+01
    1.1779875183e+02   -2.4773000717e+01
    1.1789875793e+02   -2.4843900681e+01
    1.1799873352e+02   -2.4915000916e+01
    1.1809876251e+02   -2.4986099243e+01
    1.1819875336e+02   -2.5057399750e+01
    1.1829872894e+02   -2.5128700256e+01
    1.1839875031e+02   -2.5200199127e+01
    1.1849875641e+02   -2.5271799088e+01
    1.1859874725e+02   -2.5343399048e+01
    1.1869872284e+02   -2.5415199280e+01
    1.1879873657e+02   -2.5487100601e+01
    1.1889871979e+02   -2.5559099197e+01
    1.1899871063e+02   -2.5631099701e+01
    1.1909873199e+02   -2.5703399658e+01
    1.1919870758e+02   -2.5775699615e+01
    1.1929871368e+02   -2.5848100662e+01
    1.1939875031e+02   -2.5920600891e+01
    1.1949871063e+02   -2.5993299484e+01
    1.1959871674e+02   -2.6065999985e+01
    1.1969869232e+02   -2.6138799667e+01
    1.1979871368e+02   -2.6211799622e+01
    1.1989874268e+02   -2.6284900665e+01
    1.1999874115e+02   -2.6358100891e+01
    1.2009868622e+02   -2.6431400299e+01
    1.2019869232e+02   -2.6504800797e+01
    1.2029868317e+02   -2.6578300476e+01
    1.2039869690e+02   -2.6651899338e+01
    1.2049871063e+02   -2.6725599289e+01
    1.2059870148e+02   -2.6799400330e+01
    1.2069872284e+02   -2.6873300552e+01
    1.2079869080e+02   -2.6947299957e+01
    1.2089871216e+02   -2.7021400452e+01
    1.2099870300e+02   -2.7095500946e+01
    1.2109870911e+02   -2.7169599533e+01
    1.2119867706e+02   -2.7243799210e+01
    1.2129868317e+02   -2.7318000793e+01
    1.2139865875e+02   -2.7392200470e+01
    1.2149868011e+02   -2.7466400146e+01
    1.2159867096e+02   -2.7540700912e+01
    1.2169869232e+02   -2.7614900589e+01
    1.2179866791e+02   -2.7689199448e+01
    1.2189868164e+02   -2.7763500214e+01
    1.2199868011e+02   -2.7837900162e+01
    1.2209867859e+02   -2.7912399292e+01
    1.2219869995e+02   -2.7986999512e+01
    1.2229868317e+02   -2.8061700821e+01
    1.2239865875e+02   -2.8136499405e+01
    1.2249867249e+02   -2.8211500168e+01
    1.2259866333e+02   -2.8286500931e+01
    1.2269864655e+02   -2.8361700058e+01
    1.2279865265e+02   -2.8437099457e+01
    1.2289865875e+02   -2.8512599945e+01
    1.2299868774e+02   -2.8588300705e+01
    1.2309866333e+02   -2.8664100647e+01
    1.2319866943e+02   -2.8739999771e+01
    1.2329866791e+02   -2.8815999985e+01
    1.2339865112e+02   -2.8892099380e+01
    1.2349868774e+02   -2.8968399048e+01
    1.2359864044e+02   -2.9044700623e+01
    1.2369863892e+02   -2.9121099472e+01
    1.2379862976e+02   -2.9197700500e+01
    1.2389866638e+02   -2.9274400711e+01
    1.2399867249e+02   -2.9351100922e+01
    1.2409864807e+02   -2.9427900314e+01
    1.2419863892e+02   -2.9504800797e+01
    1.2429863739e+02   -2.9581800461e+01
    1.2439864349e+02   -2.9658899307e+01
    1.2449864960e+02   -2.9736000061e+01
    1.2459866333e+02   -2.9813199997e+01
    1.2469866180e+02   -2.9890399933e+01
    1.2479860687e+02   -2.9967599869e+01
    1.2489864349e+02   -3.0044900894e+01
    1.2499861908e+02   -3.0122299194e+01
    1.2509860992e+02   -3.0199600220e+01
    1.2519863129e+02   -3.0277000427e+01
    1.2529863739e+02   -3.0354499817e+01
    1.2539864349e+02   -3.0431900024e+01
    1.2549861145e+02   -3.0509300232e+01
    1.2559861755e+02   -3.0586700439e+01
    1.2569860840e+02   -3.0663999557e+01
    1.2579863739e+02   -3.0741399765e+01
    1.2589859772e+02   -3.0818700790e+01
    1.2599859619e+02   -3.0895999908e+01
    1.2609860229e+02   -3.0973199844e+01
    1.2619863129e+02   -3.1050399780e+01
    1.2629859161e+02   -3.1127599716e+01
    1.2639859772e+02   -3.1204700470e+01
    1.2649858856e+02   -3.1281700134e+01
    1.2659860229e+02   -3.1358800888e+01
    1.2669857788e+02   -3.1435899734e+01
    1.2679862976e+02   -3.1513000488e+01
    1.2689858246e+02   -3.1590099335e+01
    1.2699862671e+02   -3.1667200089e+01
    1.2709860992e+02   -3.1744400024e+01
    1.2719857788e+02   -3.1821599960e+01
    1.2729859161e+02   -3.1898799896e+01
    1.2739859009e+02   -3.1976100922e+01
    1.2749858856e+02   -3.2053398132e+01
    1.2759860992e+02   -3.2130798340e+01
    1.2769857025e+02   -3.2208198547e+01
    1.2779862213e+02   -3.2285598755e+01
    1.2789858246e+02   -3.2362998962e+01
    1.2799859619e+02   -3.2440399170e+01
    1.2809858704e+02   -3.2517700195e+01
    1.2819859314e+02   -3.2595100403e+01
    1.2829858398e+02   -3.2672401428e+01
    1.2839860535e+02   -3.2749599457e+01
    1.2849859619e+02   -3.2826801300e+01
    1.2859858704e+02   -3.2903900146e+01
    1.2869862366e+02   -3.2980899811e+01
    1.2879862976e+02   -3.3057800293e+01
    1.2889865112e+02   -3.3134700775e+01
    1.2899861145e+02   -3.3211399078e+01
    1.2909866333e+02   -3.3288101196e+01
    1.2919865417e+02   -3.3364799500e+01
    1.2929866028e+02   -3.3441299438e+01
    1.2939866638e+02   -3.3517898560e+01
    1.2949868774e+02   -3.3594299316e+01
    1.2959864807e+02   -3.3670600891e+01
    1.2969868469e+02   -3.3746898651e+01
    1.2979867554e+02   -3.3822898865e+01
    1.2989869690e+02   -3.3898899078e+01
    1.2999870300e+02   -3.3974700928e+01
    1.3009872437e+02   -3.4050300598e+01
    1.3019871521e+02   -3.4125801086e+01
    1.3029873657e+02   -3.4201198578e+01
    1.3039871216e+02   -3.4276298523e+01
    1.3049873352e+02   -3.4351501465e+01
    1.3059875488e+02   -3.4426399231e+01
    1.3069874573e+02   -3.4501300812e+01
    1.3079876709e+02   -3.4576000214e+01
    1.3089877319e+02   -3.4650600433e+01
    1.3099873352e+02   -3.4725101471e+01
    1.3109875488e+02   -3.4799499512e+01
    1.3119879150e+02   -3.4873798370e+01
    1.3129879761e+02   -3.4947898865e+01
    1.3139877319e+02   -3.5021900177e+01
    1.3149879456e+02   -3.5095798492e+01
    1.3159877014e+02   -3.5169601440e+01
    1.3169879150e+02   -3.5243198395e+01
    1.3179881287e+02   -3.5316699982e+01
    1.3189883423e+02   -3.5390098572e+01
    1.3199879456e+02   -3.5463298798e+01
    1.3209880066e+02   -3.5536499023e+01
    1.3219883728e+02   -3.5609600067e+01
    1.3229884338e+02   -3.5682598114e+01
    1.3239886475e+02   -3.5755599976e+01
    1.3249885559e+02   -3.5828498840e+01
    1.3259884644e+02   -3.5901298523e+01
    1.3269886780e+02   -3.5974098206e+01
    1.3279887390e+02   -3.6046798706e+01
    1.3289889526e+02   -3.6119400024e+01
    1.3299887085e+02   -3.6191898346e+01
    1.3309886169e+02   -3.6264301300e+01
    1.3319886780e+02   -3.6336601257e+01
    1.3329891968e+02   -3.6408798218e+01
    1.3339888000e+02   -3.6480800629e+01
    1.3349891663e+02   -3.6552799225e+01
    1.3359889221e+02   -3.6624599457e+01
    1.3369892883e+02   -3.6696300507e+01
    1.3379895020e+02   -3.6767898560e+01
    1.3389889526e+02   -3.6839298248e+01
    1.3399891663e+02   -3.6910598755e+01
    1.3409895325e+02   -3.6981700897e+01
    1.3419894409e+02   -3.7052600861e+01
    1.3429893494e+02   -3.7123401642e+01
    1.3439897156e+02   -3.7194000244e+01
    1.3449896240e+02   -3.7264499664e+01
    1.3459898376e+02   -3.7334800720e+01
    1.3469897461e+02   -3.7404899597e+01
    1.3479896545e+02   -3.7474800110e+01
    1.3489900208e+02   -3.7544601440e+01
    1.3499899292e+02   -3.7614200592e+01
    1.3509898376e+02   -3.7683700562e+01
    1.3519903564e+02   -3.7753101349e+01
    1.3529902649e+02   -3.7822299957e+01
    1.3539900208e+02   -3.7891399384e+01
    1.3549900818e+02   -3.7960300446e+01
    1.3559902954e+02   -3.8028999329e+01
    1.3569906616e+02   -3.8097599030e+01
    1.3579904175e+02   -3.8166099548e+01
    1.3589903259e+02   -3.8234401703e+01
    1.3599902344e+02   -3.8302600861e+01
    1.3609906006e+02   -3.8370700836e+01
    1.3619906616e+02   -3.8438598633e+01
    1.3629907227e+02   -3.8506301880e+01
    1.3639907837e+02   -3.8574001312e+01
    1.3649908447e+02   -3.8641399384e+01
    1.3659910583e+02   -3.8708801270e+01
    1.3669911194e+02   -3.8776100159e+01
    1.3679910278e+02   -3.8843200684e+01
    1.3689913940e+02   -3.8910198212e+01
    1.3699909973e+02   -3.8977001190e+01
    1.3709910583e+02   -3.9043800354e+01
    1.3719914246e+02   -3.9110401154e+01
    1.3729911804e+02   -3.9176898956e+01
    1.3739913940e+02   -3.9243198395e+01
    1.3749914551e+02   -3.9309398651e+01
    1.3759915161e+02   -3.9375400543e+01
    1.3769914246e+02   -3.9441299438e+01
    1.3779916382e+02   -3.9506999969e+01
    1.3789916992e+02   -3.9572399139e+01
    1.3799919128e+02   -3.9637699127e+01
    1.3809918213e+02   -3.9702800751e+01
    1.3819920349e+02   -3.9767799377e+01
    1.3829920959e+02   -3.9832500458e+01
    1.3839918518e+02   -3.9897098541e+01
    1.3849920654e+02   -3.9961399078e+01
    1.3859921265e+02   -4.0025600433e+01
    1.3869923401e+02   -4.0089599609e+01
    1.3879925537e+02   -4.0153400421e+01
    1.3889923096e+02   -4.0216899872e+01
    1.3899923706e+02   -4.0280300140e+01
    1.3909922791e+02   -4.0343498230e+01
    1.3919926453e+02   -4.0406501770e+01
    1.3929924011e+02   -4.0469299316e+01
    1.3939926147e+02   -4.0531898499e+01
    1.3949928284e+02   -4.0594299316e+01
    1.3959925842e+02   -4.0656600952e+01
    1.3969927979e+02   -4.0718700409e+01
    1.3979927063e+02   -4.0780601501e+01
    1.3989929199e+02   -4.0842399597e+01
    1.3999929810e+02   -4.0903999329e+01
    1.4009931946e+02   -4.0965400696e+01
    1.4019932556e+02   -4.1026599884e+01
    1.4029933167e+02   -4.1087699890e+01
    1.4039932251e+02   -4.1148601532e+01
    1.4049931335e+02   -4.1209400177e+01
    1.4059933472e+02   -4.1269901276e+01
    1.4069937134e+02   -4.1330299377e+01
    1.4079934692e+02   -4.1390499115e+01
    1.4089938354e+02   -4.1450599670e+01
    1.4099935913e+02   -4.1510398865e+01
    1.4109938049e+02   -4.1570098877e+01
    1.4119938660e+02   -4.1629600525e+01
    1.4129939270e+02   -4.1688999176e+01
    1.4139935303e+02   -4.1748199463e+01
    1.4149938965e+02   -4.1807201385e+01
    1.4159939575e+02   -4.1866100311e+01
    1.4169938660e+02   -4.1924800873e+01
    1.4179939270e+02   -4.1983299255e+01
    1.4189942932e+02   -4.2041599274e+01
    1.4199942017e+02   -4.2099700928e+01
    1.4209945679e+02   -4.2157600403e+01
    1.4219946289e+02   -4.2215301514e+01
    1.4229945374e+02   -4.2272998810e+01
    1.4239944458e+02   -4.2330398560e+01
    1.4249945068e+02   -4.2387798309e+01
    1.4259944153e+02   -4.2445098877e+01
    1.4269946289e+02   -4.2502300262e+01
    1.4279948425e+02   -4.2559501648e+01
    1.4289950562e+02   -4.2616600037e+01
    1.4299948120e+02   -4.2673500061e+01
    1.4309950256e+02   -4.2730499268e+01
    1.4319952393e+02   -4.2787300110e+01
    1.4329948425e+02   -4.2843898773e+01
    1.4339950562e+02   -4.2900600433e+01
    1.4349952698e+02   -4.2957099915e+01
    1.4359951782e+02   -4.3013500214e+01
    1.4369955444e+02   -4.3069801331e+01
    1.4379951477e+02   -4.3125999451e+01
    1.4389956665e+02   -4.3182201385e+01
    1.4399957275e+02   -4.3238201141e+01
    1.4409956360e+02   -4.3294101715e+01
    1.4419955444e+02   -4.3349899292e+01
    1.4429954529e+02   -4.3405700684e+01
    1.4439958191e+02   -4.3461399078e+01
    1.4449957275e+02   -4.3516998291e+01
    1.4459960938e+02   -4.3572498322e+01
    1.4469956970e+02   -4.3627899170e+01
    1.4479959106e+02   -4.3683300018e+01
    1.4489961243e+02   -4.3738498688e+01
    1.4499963379e+02   -4.3793701172e+01
    1.4509960938e+02   -4.3848800659e+01
    1.4519964600e+02   -4.3903900146e+01
    1.4529963684e+02   -4.3958900452e+01
    1.4539962769e+02   -4.4013801575e+01
    1.4549961853e+02   -4.4068599701e+01
    1.4559965515e+02   -4.4123401642e+01
    1.4569961548e+02   -4.4178001404e+01
    1.4579963684e+02   -4.4232601166e+01
    1.4589964294e+02   -4.4287200928e+01
    1.4599966431e+02   -4.4341598511e+01
    1.4609968567e+02   -4.4395999908e+01
    1.4619966125e+02   -4.4450401306e+01
    1.4629966736e+02   -4.4504600525e+01
    1.4639968872e+02   -4.4558799744e+01
    1.4649969482e+02   -4.4612998962e+01
    1.4659968567e+02   -4.4667098999e+01
    1.4669969177e+02   -4.4721199036e+01
    1.4679968262e+02   -4.4775299072e+01
    1.4689970398e+02   -4.4829299927e+01
    1.4699975586e+02   -4.4883399963e+01
    1.4709976196e+02   -4.4937500000e+01
    1.4719976807e+02   -4.4991500854e+01
    1.4729974365e+02   -4.5045600891e+01
    1.4739976501e+02   -4.5099700928e+01
    1.4749975586e+02   -4.5153800964e+01
    1.4759977722e+02   -4.5207901001e+01
    1.4769979858e+02   -4.5262001038e+01
    1.4779975891e+02   -4.5316101074e+01
    1.4789976501e+02   -4.5370201111e+01
    1.4799980164e+02   -4.5424301147e+01
    1.4809980774e+02   -4.5478401184e+01
    1.4819979858e+02   -4.5532600403e+01
    1.4829980469e+02   -4.5586700439e+01
    1.4839981079e+02   -4.5640899658e+01
    1.4849981689e+02   -4.5694999695e+01
    1.4859982300e+02   -4.5749099731e+01
    1.4869981384e+02   -4.5803199768e+01
    1.4879981995e+02   -4.5857299805e+01
    1.4889987183e+02   -4.5911399841e+01
    1.4899986267e+02   -4.5965499878e+01
    1.4909982300e+02   -4.6019500732e+01
    1.4919987488e+02   -4.6073600769e+01
    1.4929986572e+02   -4.6127700806e+01
    1.4939988708e+02   -4.6181800842e+01
    1.4949987793e+02   -4.6235900879e+01
    1.4959988403e+02   -4.6290000916e+01
    1.4969989014e+02   -4.6344200134e+01
    1.4979988098e+02   -4.6398399353e+01
    1.4989988708e+02   -4.6452701569e+01
    1.4999992371e+02   -4.6506999969e+01
    1.5009991455e+02   -4.6561298370e+01
    1.5019990540e+02   -4.6615600586e+01
    1.5029995728e+02   -4.6669998169e+01
    1.5039993286e+02   -4.6724399567e+01
    1.5049995422e+02   -4.6778800964e+01
    1.5059992981e+02   -4.6833198547e+01
    1.5069998169e+02   -4.6887699127e+01
    1.5079997253e+02   -4.6942199707e+01
    1.5089997864e+02   -4.6996799469e+01
    1.5099998474e+02   -4.7051300049e+01
    1.5109999084e+02   -4.7105899811e+01
    1.5119999695e+02   -4.7160598755e+01
    1.5129997253e+02   -4.7215301514e+01
    1.5140002441e+02   -4.7270198822e+01
    1.5150000000e+02   -4.7325099945e+01
    1.5160000610e+02   -4.7380100250e+01
    1.5170002747e+02   -4.7435199738e+01
    1.5180000305e+02   -4.7490299225e+01
    1.5190002441e+02   -4.7545600891e+01
    1.5200006104e+02   -4.7601001740e+01
    1.5210006714e+02   -4.7656398773e+01
    1.5220002747e+02   -4.7712001801e+01
    1.5230004883e+02   -4.7767700195e+01
    1.5240007019e+02   -4.7823501587e+01
    1.5250009155e+02   -4.7879501343e+01
    1.5260006714e+02   -4.7935600281e+01
    1.5270005798e+02   -4.7991901398e+01
    1.5280006409e+02   -4.8048400879e+01
    1.5290007019e+02   -4.8105098724e+01
    1.5300007629e+02   -4.8161899567e+01
    1.5310012817e+02   -4.8218898773e+01
    1.5320011902e+02   -4.8276100159e+01
    1.5330010986e+02   -4.8333400726e+01
    1.5340010071e+02   -4.8390899658e+01
    1.5350013733e+02   -4.8448501587e+01
    1.5360015869e+02   -4.8506401062e+01
    1.5370014954e+02   -4.8564399719e+01
    1.5380015564e+02   -4.8622699738e+01
    1.5390017700e+02   -4.8680999756e+01
    1.5400018311e+02   -4.8739601135e+01
    1.5410015869e+02   -4.8798301697e+01
    1.5420019531e+02   -4.8857101440e+01
    1.5430018616e+02   -4.8916099548e+01
    1.5440017700e+02   -4.8975200653e+01
    1.5450016785e+02   -4.9034500122e+01
    1.5460017395e+02   -4.9093898773e+01
    1.5470019531e+02   -4.9153499603e+01
    1.5480023193e+02   -4.9213298798e+01
    1.5490020752e+02   -4.9273200989e+01
    1.5500018311e+02   -4.9333198547e+01
    1.5510021973e+02   -4.9393501282e+01
    1.5520021057e+02   -4.9453998566e+01
    1.5530026245e+02   -4.9514701843e+01
    1.5540025330e+02   -4.9575599670e+01
    1.5550025940e+02   -4.9636699677e+01
    1.5560025024e+02   -4.9697898865e+01
    1.5570027161e+02   -4.9759300232e+01
    1.5580026245e+02   -4.9820999146e+01
    1.5590025330e+02   -4.9882801056e+01
    1.5600030518e+02   -4.9944900513e+01
    1.5610029602e+02   -5.0007198334e+01
    1.5620031738e+02   -5.0069599152e+01
    1.5630029297e+02   -5.0132301331e+01
    1.5640031433e+02   -5.0195201874e+01
    1.5650033569e+02   -5.0258201599e+01
    1.5660029602e+02   -5.0321498871e+01
    1.5670031738e+02   -5.0384998322e+01
    1.5680029297e+02   -5.0448799133e+01
    1.5690032959e+02   -5.0512798309e+01
    1.5700036621e+02   -5.0577098846e+01
    1.5710032654e+02   -5.0641498566e+01
    1.5720033264e+02   -5.0706199646e+01
    1.5730038452e+02   -5.0771198273e+01
    1.5740034485e+02   -5.0836399078e+01
    1.5750036621e+02   -5.0901798248e+01
    1.5760040283e+02   -5.0967498779e+01
    1.5770039368e+02   -5.1033401489e+01
    1.5780041504e+02   -5.1099498749e+01
    1.5790037537e+02   -5.1165798187e+01
    1.5800038147e+02   -5.1232398987e+01
    1.5810041809e+02   -5.1299198151e+01
    1.5820042419e+02   -5.1366199493e+01
    1.5830039978e+02   -5.1433399200e+01
    1.5840045166e+02   -5.1500801086e+01
    1.5850042725e+02   -5.1568401337e+01
    1.5860043335e+02   -5.1636299133e+01
    1.5870042419e+02   -5.1704200745e+01
    1.5880047607e+02   -5.1772399902e+01
    1.5890043640e+02   -5.1840801239e+01
    1.5900044250e+02   -5.1909400940e+01
    1.5910044861e+02   -5.1978099823e+01
    1.5920045471e+02   -5.2047100067e+01
    1.5930047607e+02   -5.2116199493e+01
    1.5940048218e+02   -5.2185600281e+01
    1.5950051880e+02   -5.2255199432e+01
    1.5960047913e+02   -5.2324901581e+01
    1.5970051575e+02   -5.2395000458e+01
    1.5980049133e+02   -5.2465198517e+01
    1.5990051270e+02   -5.2535598755e+01
    1.6000050354e+02   -5.2606201172e+01
    1.6010052490e+02   -5.2677101135e+01
    1.6020053101e+02   -5.2748199463e+01
    1.6030053711e+02   -5.2819400787e+01
    1.6040054321e+02   -5.2890899658e+01
    1.6050053406e+02   -5.2962600708e+01
    1.6060057068e+02   -5.3034500122e+01
    1.6070057678e+02   -5.3106601715e+01
    1.6080056763e+02   -5.3178901672e+01
    1.6090054321e+02   -5.3251300812e+01
    1.6100061035e+02   -5.3324001312e+01
    1.6110060120e+02   -5.3396800995e+01
    1.6120059204e+02   -5.3469799042e+01
    1.6130061340e+02   -5.3543098450e+01
    1.6140058899e+02   -5.3616500854e+01
    1.6150061035e+02   -5.3690200806e+01
    1.6160060120e+02   -5.3763999939e+01
    1.6170063782e+02   -5.3838100433e+01
    1.6180064392e+02   -5.3912300110e+01
    1.6190066528e+02   -5.3986698151e+01
    1.6200062561e+02   -5.4061298370e+01
    1.6210067749e+02   -5.4136100769e+01
    1.6220065308e+02   -5.4211101532e+01
    1.6230065918e+02   -5.4286399841e+01
    1.6240066528e+02   -5.4361801147e+01
    1.6250065613e+02   -5.4437500000e+01
    1.6260069275e+02   -5.4513401031e+01
    1.6270069885e+02   -5.4589500427e+01
    1.6280068970e+02   -5.4665798187e+01
    1.6290069580e+02   -5.4742401123e+01
    1.6300068665e+02   -5.4819198608e+01
    1.6310069275e+02   -5.4896198273e+01
    1.6320071411e+02   -5.4973499298e+01
    1.6330075073e+02   -5.5050899506e+01
    1.6340072632e+02   -5.5128501892e+01
    1.6350071716e+02   -5.5206401825e+01
    1.6360072327e+02   -5.5284500122e+01
    1.6370077515e+02   -5.5362800598e+01
    1.6380078125e+02   -5.5441299438e+01
    1.6390075684e+02   -5.5520000458e+01
    1.6400079346e+02   -5.5598899841e+01
    1.6410075378e+02   -5.5677898407e+01
    1.6420075989e+02   -5.5757099152e+01
    1.6430078125e+02   -5.5836498260e+01
    1.6440077209e+02   -5.5916000366e+01
    1.6450082397e+02   -5.5995700836e+01
    1.6460081482e+02   -5.6075500488e+01
    1.6470082092e+02   -5.6155498505e+01
    1.6480082703e+02   -5.6235698700e+01
    1.6490081787e+02   -5.6316001892e+01
    1.6500080872e+02   -5.6396400452e+01
    1.6510081482e+02   -5.6477100372e+01
    1.6520086670e+02   -5.6557998657e+01
    1.6530082703e+02   -5.6638900757e+01
    1.6540086365e+02   -5.6720100403e+01
    1.6550088501e+02   -5.6801399231e+01
    1.6560087585e+02   -5.6882900238e+01
    1.6570089722e+02   -5.6964500427e+01
    1.6580088806e+02   -5.7046199799e+01
    1.6590087891e+02   -5.7128101349e+01
    1.6600086975e+02   -5.7210098267e+01
    1.6610089111e+02   -5.7292198181e+01
    1.6620091248e+02   -5.7374500275e+01
    1.6630093384e+02   -5.7456901550e+01
    1.6640089417e+02   -5.7539299011e+01
    1.6650094604e+02   -5.7622001648e+01
    1.6660090637e+02   -5.7704601288e+01
    1.6670091248e+02   -5.7787498474e+01
    1.6680090332e+02   -5.7870399475e+01
    1.6690095520e+02   -5.7953498840e+01
    1.6700094604e+02   -5.8036701202e+01
    1.6710096741e+02   -5.8120098114e+01
    1.6720097351e+02   -5.8203498840e+01
    1.6730093384e+02   -5.8287101746e+01
    1.6740095520e+02   -5.8370800018e+01
    1.6750094604e+02   -5.8454601288e+01
    1.6760098267e+02   -5.8538501740e+01
    1.6770100403e+02   -5.8622600555e+01
    1.6780101013e+02   -5.8706699371e+01
    1.6790100098e+02   -5.8790798187e+01
    1.6800103760e+02   -5.8875099182e+01
    1.6810104370e+02   -5.8959400177e+01
    1.6820104980e+02   -5.9043800354e+01
    1.6830102539e+02   -5.9128200531e+01
    1.6840106201e+02   -5.9212699890e+01
    1.6850105286e+02   -5.9297100067e+01
    1.6860104370e+02   -5.9381500244e+01
    1.6870103455e+02   -5.9465999603e+01
    1.6880105591e+02   -5.9550498962e+01
    1.6890107727e+02   -5.9634998322e+01
    1.6900105286e+02   -5.9719600677e+01
    1.6910107422e+02   -5.9804199219e+01
    1.6920109558e+02   -5.9888900757e+01
    1.6930110168e+02   -5.9973499298e+01
    1.6940107727e+02   -6.0058200836e+01
    1.6950111389e+02   -6.0143001556e+01
    1.6960108948e+02   -6.0227699280e+01
    1.6970112610e+02   -6.0312400818e+01
    1.6980111694e+02   -6.0397098541e+01
    1.6990115356e+02   -6.0481800079e+01
    1.7000111389e+02   -6.0566398621e+01
    1.7010116577e+02   -6.0651000977e+01
    1.7020114136e+02   -6.0735401154e+01
    1.7030116272e+02   -6.0819900513e+01
    1.7040115356e+02   -6.0904300690e+01
    1.7050114441e+02   -6.0988700867e+01
    1.7060116577e+02   -6.1073101044e+01
    1.7070118713e+02   -6.1157501221e+01
    1.7080116272e+02   -6.1241798401e+01
    1.7090118408e+02   -6.1326198578e+01
    1.7100120544e+02   -6.1410499573e+01
    1.7110118103e+02   -6.1494701385e+01
    1.7120118713e+02   -6.1578800201e+01
    1.7130120850e+02   -6.1662899017e+01
    1.7140122986e+02   -6.1746898651e+01
    1.7150120544e+02   -6.1830799103e+01
    1.7160122681e+02   -6.1914600372e+01
    1.7170126343e+02   -6.1998298645e+01
    1.7180123901e+02   -6.2081901550e+01
    1.7190124512e+02   -6.2165401459e+01
    1.7200126648e+02   -6.2248798370e+01
    1.7210127258e+02   -6.2332199097e+01
    1.7220124817e+02   -6.2415500641e+01
    1.7230125427e+02   -6.2498798370e+01
    1.7240127563e+02   -6.2582000732e+01
    1.7250126648e+02   -6.2665199280e+01
    1.7260128784e+02   -6.2748298645e+01
    1.7270126343e+02   -6.2831401825e+01
    1.7280128479e+02   -6.2914398193e+01
    1.7290129089e+02   -6.2997299194e+01
    1.7300132751e+02   -6.3080101013e+01
    1.7310130310e+02   -6.3162700653e+01
    1.7320133972e+02   -6.3245300293e+01
    1.7330133057e+02   -6.3327701569e+01
    1.7340136719e+02   -6.3409999847e+01
    1.7350134277e+02   -6.3492198944e+01
    1.7360136414e+02   -6.3574298859e+01
    1.7370135498e+02   -6.3656398773e+01
    1.7380137634e+02   -6.3738300323e+01
    1.7390138245e+02   -6.3820201874e+01
    1.7400138855e+02   -6.3901901245e+01
    1.7410139465e+02   -6.3983398438e+01
    1.7420141602e+02   -6.4064796448e+01
    1.7430140686e+02   -6.4146003723e+01
    1.7440141296e+02   -6.4227096558e+01
    1.7450140381e+02   -6.4307899475e+01
    1.7460139465e+02   -6.4388496399e+01
    1.7470138550e+02   -6.4469100952e+01
    1.7480140686e+02   -6.4549400330e+01
    1.7490144348e+02   -6.4629600525e+01
    1.7500144958e+02   -6.4709701538e+01
    1.7510145569e+02   -6.4789596558e+01
    1.7520144653e+02   -6.4869300842e+01
    1.7530143738e+02   -6.4948898315e+01
    1.7540147400e+02   -6.5028297424e+01
    1.7550143433e+02   -6.5107398987e+01
    1.7560147095e+02   -6.5186401367e+01
    1.7570147705e+02   -6.5265197754e+01
    1.7580149841e+02   -6.5343696594e+01
    1.7590151978e+02   -6.5422096252e+01
    1.7600149536e+02   -6.5500198364e+01
    1.7610148621e+02   -6.5578102112e+01
    1.7620150757e+02   -6.5655899048e+01
    1.7630151367e+02   -6.5733497620e+01
    1.7640151978e+02   -6.5810798645e+01
    1.7650155640e+02   -6.5888000488e+01
    1.7660154724e+02   -6.5964996338e+01
    1.7670152283e+02   -6.6041801453e+01
    1.7680152893e+02   -6.6118400574e+01
    1.7690156555e+02   -6.6194801331e+01
    1.7700157166e+02   -6.6271003723e+01
    1.7710154724e+02   -6.6346900940e+01
    1.7720158386e+02   -6.6422698975e+01
    1.7730160522e+02   -6.6498100281e+01
    1.7740156555e+02   -6.6573303223e+01
    1.7750158691e+02   -6.6648300171e+01
    1.7760156250e+02   -6.6723098755e+01
    1.7770161438e+02   -6.6797599792e+01
    1.7780162048e+02   -6.6871803284e+01
    1.7790162659e+02   -6.6945800781e+01
    1.7800160217e+02   -6.7019500732e+01
    1.7810165405e+02   -6.7093101501e+01
    1.7820162964e+02   -6.7166297913e+01
    1.7830160522e+02   -6.7239303589e+01
    1.7840162659e+02   -6.7311996460e+01
    1.7850166321e+02   -6.7384399414e+01
    1.7860165405e+02   -6.7456497192e+01
    1.7870167542e+02   -6.7528297424e+01
    1.7880166626e+02   -6.7599700928e+01
    1.7890167236e+02   -6.7670898438e+01
    1.7900167847e+02   -6.7741798401e+01
    1.7910171509e+02   -6.7812400818e+01
    1.7920170593e+02   -6.7882698059e+01
    1.7930168152e+02   -6.7952697754e+01
    1.7940171814e+02   -6.8022399902e+01
    1.7950173950e+02   -6.8091903687e+01
    1.7960169983e+02   -6.8161003113e+01
    1.7970173645e+02   -6.8229797363e+01
    1.7980174255e+02   -6.8298400879e+01
    1.7990173340e+02   -6.8366500854e+01
    1.8000172424e+02   -6.8434402466e+01
    1.8010173035e+02   -6.8501998901e+01
    1.8020178223e+02   -6.8569297791e+01
    1.8030174255e+02   -6.8636100769e+01
    1.8040174866e+02   -6.8702697754e+01
    1.8050175476e+02   -6.8768997192e+01
    1.8060176086e+02   -6.8834999084e+01
    1.8070179749e+02   -6.8900703430e+01
    1.8080177307e+02   -6.8966003418e+01
    1.8090176392e+02   -6.9030998230e+01
    1.8100181580e+02   -6.9095596313e+01
    1.8110179138e+02   -6.9159896851e+01
    1.8120179749e+02   -6.9223899841e+01
    1.8130183411e+02   -6.9287498474e+01
    1.8140184021e+02   -6.9350799561e+01
    1.8150183105e+02   -6.9413803101e+01
    1.8160183716e+02   -6.9476402283e+01
    1.8170185852e+02   -6.9538696289e+01
    1.8180183411e+02   -6.9600601196e+01
    1.8190184021e+02   -6.9662101746e+01
    1.8200190735e+02   -6.9723396301e+01
    1.8210185242e+02   -6.9784202576e+01
    1.8220187378e+02   -6.9844802856e+01
    1.8230189514e+02   -6.9904998779e+01
    1.8240187073e+02   -6.9964897156e+01
    1.8250192261e+02   -7.0024497986e+01
    1.8260188293e+02   -7.0083801270e+01
    1.8270188904e+02   -7.0142700195e+01
    1.8280194092e+02   -7.0201400757e+01
    1.8290188599e+02   -7.0259696960e+01
    1.8300195312e+02   -7.0317703247e+01
    1.8310191345e+02   -7.0375297546e+01
    1.8320191956e+02   -7.0432601929e+01
    1.8330195618e+02   -7.0489501953e+01
    1.8340196228e+02   -7.0546096802e+01
    1.8350198364e+02   -7.0602401733e+01
    1.8360194397e+02   -7.0658302307e+01
    1.8370198059e+02   -7.0713996887e+01
    1.8380198669e+02   -7.0769302368e+01
    1.8390197754e+02   -7.0824302673e+01
    1.8400195312e+02   -7.0878898621e+01
    1.8410197449e+02   -7.0933197021e+01
    1.8420198059e+02   -7.0987197876e+01
    1.8430200195e+02   -7.1040702820e+01
    1.8440202332e+02   -7.1094001770e+01
    1.8450201416e+02   -7.1146797180e+01
    1.8460200500e+02   -7.1199302673e+01
    1.8470205688e+02   -7.1251403809e+01
    1.8480201721e+02   -7.1303100586e+01
    1.8490202332e+02   -7.1354499817e+01
    1.8500205994e+02   -7.1405601501e+01
    1.8510206604e+02   -7.1456298828e+01
    1.8520207214e+02   -7.1506599426e+01
    1.8530203247e+02   -7.1556602478e+01
    1.8540205383e+02   -7.1606201172e+01
    1.8550209045e+02   -7.1655502319e+01
    1.8560208130e+02   -7.1704399109e+01
    1.8570210266e+02   -7.1752998352e+01
    1.8580209351e+02   -7.1801101685e+01
    1.8590209961e+02   -7.1848899841e+01
    1.8600210571e+02   -7.1896400452e+01
    1.8610212708e+02   -7.1943496704e+01
    1.8620210266e+02   -7.1990303040e+01
    1.8630212402e+02   -7.2036598206e+01
    1.8640211487e+02   -7.2082702637e+01
    1.8650213623e+02   -7.2128303528e+01
    1.8660217285e+02   -7.2173698425e+01
    1.8670216370e+02   -7.2218597412e+01
    1.8680215454e+02   -7.2263298035e+01
    1.8690214539e+02   -7.2307502747e+01
    1.8700218201e+02   -7.2351501465e+01
    1.8710217285e+02   -7.2395103455e+01
    1.8720219421e+02   -7.2438301086e+01
    1.8730218506e+02   -7.2481201172e+01
    1.8740220642e+02   -7.2523696899e+01
    1.8750221252e+02   -7.2565803528e+01
    1.8760217285e+02   -7.2607597351e+01
    1.8770222473e+02   -7.2649002075e+01
    1.8780221558e+02   -7.2690002441e+01
    1.8790225220e+02   -7.2730697632e+01
    1.8800224304e+02   -7.2771003723e+01
    1.8810224915e+02   -7.2810897827e+01
    1.8820225525e+02   -7.2850502014e+01
    1.8830224609e+02   -7.2889701843e+01
    1.8840225220e+02   -7.2928596497e+01
    1.8850227356e+02   -7.2967002869e+01
    1.8860226440e+02   -7.3005096436e+01
    1.8870228577e+02   -7.3042800903e+01
    1.8880230713e+02   -7.3080101013e+01
    1.8890226746e+02   -7.3116897583e+01
    1.8900228882e+02   -7.3153503418e+01
    1.8910229492e+02   -7.3189598083e+01
    1.8920233154e+02   -7.3225402832e+01
    1.8930229187e+02   -7.3260696411e+01
    1.8940229797e+02   -7.3295700073e+01
    1.8950230408e+02   -7.3330398560e+01
    1.8960232544e+02   -7.3364601135e+01
    1.8970231628e+02   -7.3398498535e+01
    1.8980232239e+02   -7.3432098389e+01
    1.8990237427e+02   -7.3465301514e+01
    1.9000233459e+02   -7.3498001099e+01
    1.9010235596e+02   -7.3530403137e+01
    1.9020234680e+02   -7.3562400818e+01
    1.9030238342e+02   -7.3594001770e+01
    1.9040237427e+02   -7.3625198364e+01
    1.9050238037e+02   -7.3656097412e+01
    1.9060235596e+02   -7.3686599731e+01
    1.9070237732e+02   -7.3716697693e+01
    1.9080242920e+02   -7.3746498108e+01
    1.9090237427e+02   -7.3775802612e+01
    1.9100241089e+02   -7.3804702759e+01
    1.9110241699e+02   -7.3833297729e+01
    1.9120245361e+02   -7.3861503601e+01
    1.9130244446e+02   -7.3889396667e+01
    1.9140242004e+02   -7.3916900635e+01
    1.9150244141e+02   -7.3944000244e+01
    1.9160246277e+02   -7.3970703125e+01
    1.9170246887e+02   -7.3997100830e+01
    1.9180247498e+02   -7.4023002625e+01
    1.9190246582e+02   -7.4048599243e+01
    1.9200250244e+02   -7.4073799133e+01
    1.9210246277e+02   -7.4098701477e+01
    1.9220245361e+02   -7.4123100281e+01
    1.9230247498e+02   -7.4147300720e+01
    1.9240252686e+02   -7.4170997620e+01
    1.9250250244e+02   -7.4194503784e+01
    1.9260253906e+02   -7.4217597961e+01
    1.9270251465e+02   -7.4240303040e+01
    1.9280250549e+02   -7.4262802124e+01
    1.9290252686e+02   -7.4284896851e+01
    1.9300254822e+02   -7.4306602478e+01
    1.9310252380e+02   -7.4328002930e+01
    1.9320257568e+02   -7.4348999023e+01
    1.9330253601e+02   -7.4369697571e+01
    1.9340255737e+02   -7.4389999390e+01
    1.9350256348e+02   -7.4409896851e+01
    1.9360255432e+02   -7.4429603577e+01
    1.9370256042e+02   -7.4448898315e+01
    1.9380259705e+02   -7.4467796326e+01
    1.9390257263e+02   -7.4486503601e+01
    1.9400256348e+02   -7.4504699707e+01
    1.9410261536e+02   -7.4522697449e+01
    1.9420260620e+02   -7.4540298462e+01
    1.9430262756e+02   -7.4557502747e+01
    1.9440261841e+02   -7.4574401855e+01
[...]
    2.5130607605e+02   -4.7939701080e+01
    2.5140611267e+02   -4.7819099426e+01
    2.5150613403e+02   -4.7698299408e+01
    2.5160612488e+02   -4.7577301025e+01
    2.5170614624e+02   -4.7456100464e+01
    2.5180613708e+02   -4.7334800720e+01
    2.5190614319e+02   -4.7213199615e+01
    2.5200613403e+02   -4.7091400146e+01
    2.5210615540e+02   -4.6969398499e+01
    2.5220616150e+02   -4.6847301483e+01
    2.5230613708e+02   -4.6724998474e+01
    2.5240618896e+02   -4.6602401733e+01
    2.5250619507e+02   -4.6479698181e+01
    2.5260615540e+02   -4.6356899261e+01
    2.5270620728e+02   -4.6233798981e+01
    2.5280619812e+02   -4.6110599518e+01
    2.5290618896e+02   -4.5987300873e+01
    2.5300619507e+02   -4.5863800049e+01
    2.5310618591e+02   -4.5740100861e+01
    2.5320622253e+02   -4.5616199493e+01
    2.5330619812e+02   -4.5492198944e+01
    2.5340621948e+02   -4.5368000031e+01
    2.5350625610e+02   -4.5243598938e+01
    2.5360626221e+02   -4.5119201660e+01
    2.5370625305e+02   -4.4994499207e+01
    2.5380627441e+02   -4.4869800568e+01
    2.5390625000e+02   -4.4744899750e+01
    2.5400627136e+02   -4.4619899750e+01
    2.5410626221e+02   -4.4494701385e+01
    2.5420626831e+02   -4.4369499207e+01
    2.5430627441e+02   -4.4243999481e+01
    2.5440626526e+02   -4.4118499756e+01
    2.5450631714e+02   -4.3992801666e+01
    2.5460627747e+02   -4.3867099762e+01
    2.5470631409e+02   -4.3741100311e+01
    2.5480630493e+02   -4.3615100861e+01
    2.5490632629e+02   -4.3488998413e+01
    2.5500633240e+02   -4.3362701416e+01
    2.5510630798e+02   -4.3236400604e+01
    2.5520632935e+02   -4.3109901428e+01
    2.5530636597e+02   -4.2983299255e+01
    2.5540632629e+02   -4.2856800079e+01
    2.5550633240e+02   -4.2729999542e+01
    2.5560638428e+02   -4.2603099823e+01
    2.5570634460e+02   -4.2476299286e+01
    2.5580636597e+02   -4.2349300385e+01
    2.5590635681e+02   -4.2222198486e+01
    2.5600637817e+02   -4.2095001221e+01
    2.5610638428e+02   -4.1967800140e+01
    2.5620639038e+02   -4.1840499878e+01
    2.5630639648e+02   -4.1713100433e+01
    2.5640640259e+02   -4.1585700989e+01
    2.5650637817e+02   -4.1458198547e+01
    2.5660641479e+02   -4.1330600739e+01
    2.5670639038e+02   -4.1202999115e+01
    2.5680639648e+02   -4.1075298309e+01
    2.5690640259e+02   -4.0947601318e+01
    2.5700643921e+02   -4.0819801331e+01
    2.5710641479e+02   -4.0692001343e+01
    2.5720642090e+02   -4.0564201355e+01
    2.5730642700e+02   -4.0436199188e+01
    2.5740643311e+02   -4.0308300018e+01
    2.5750643921e+02   -4.0180301666e+01
    2.5760644531e+02   -4.0052299500e+01
    2.5770645142e+02   -3.9924198151e+01
    2.5780648804e+02   -3.9796100616e+01
    2.5790649414e+02   -3.9667999268e+01
    2.5800650024e+02   -3.9539901733e+01
    2.5810650635e+02   -3.9411701202e+01
    2.5820648193e+02   -3.9283599854e+01
    2.5830648804e+02   -3.9155399323e+01
    2.5840649414e+02   -3.9027198792e+01
    2.5850653076e+02   -3.8898899078e+01
    2.5860650635e+02   -3.8770801544e+01
    2.5870651245e+02   -3.8642501831e+01
    2.5880651855e+02   -3.8514301300e+01
    2.5890655518e+02   -3.8386100769e+01
    2.5900653076e+02   -3.8257900238e+01
    2.5910656738e+02   -3.8129699707e+01
    2.5920657349e+02   -3.8001399994e+01
    2.5930657959e+02   -3.7873298645e+01
    2.5940655518e+02   -3.7745098114e+01
    2.5950659180e+02   -3.7616901398e+01
    2.5960659790e+02   -3.7488800049e+01
    2.5970657349e+02   -3.7360698700e+01
    2.5980661011e+02   -3.7232601166e+01
    2.5990658569e+02   -3.7104598999e+01
    2.6000659180e+02   -3.6976600647e+01
    2.6010662842e+02   -3.6848499298e+01
    2.6020660400e+02   -3.6720600128e+01
    2.6030664062e+02   -3.6592700958e+01
    2.6040661621e+02   -3.6464801788e+01
    2.6050662231e+02   -3.6337001801e+01
    2.6060665894e+02   -3.6209201813e+01
    2.6070666504e+02   -3.6081501007e+01
    2.6080664062e+02   -3.5953800201e+01
    2.6090667725e+02   -3.5826099396e+01
    2.6100665283e+02   -3.5698600769e+01
    2.6110668945e+02   -3.5570999146e+01
    2.6120666504e+02   -3.5443599701e+01
    2.6130670166e+02   -3.5316200256e+01
    2.6140667725e+02   -3.5188899994e+01
    2.6150668335e+02   -3.5061698914e+01
    2.6160671997e+02   -3.4934398651e+01
    2.6170669556e+02   -3.4807399750e+01
    2.6180670166e+02   -3.4680400848e+01
    2.6190673828e+02   -3.4553298950e+01
    2.6200671387e+02   -3.4426498413e+01
    2.6210671997e+02   -3.4299701691e+01
    2.6220672607e+02   -3.4173000336e+01
    2.6230676270e+02   -3.4046398163e+01
    2.6240676880e+02   -3.3919799805e+01
    2.6250677490e+02   -3.3793399811e+01
    2.6260678101e+02   -3.3666999817e+01
    2.6270675659e+02   -3.3540798187e+01
    2.6280679321e+02   -3.3414600372e+01
    2.6290676880e+02   -3.3288600922e+01
    2.6300680542e+02   -3.3162601471e+01
    2.6310681152e+02   -3.3036800385e+01
    2.6320678711e+02   -3.2911098480e+01
    2.6330682373e+02   -3.2785400391e+01
    2.6340679932e+02   -3.2659900665e+01
    2.6350683594e+02   -3.2534500122e+01
    2.6360684204e+02   -3.2409198761e+01
    2.6370681763e+02   -3.2284099579e+01
    2.6380685425e+02   -3.2159000397e+01
    2.6390686035e+02   -3.2034000397e+01
    2.6400686646e+02   -3.1909299850e+01
    2.6410684204e+02   -3.1784599304e+01
    2.6420684814e+02   -3.1660100937e+01
    2.6430685425e+02   -3.1535699844e+01
    2.6440686035e+02   -3.1411300659e+01
    2.6450689697e+02   -3.1287200928e+01
    2.6460687256e+02   -3.1163200378e+01
    2.6470687866e+02   -3.1039300919e+01
    2.6480688477e+02   -3.0915500641e+01
    2.6490692139e+02   -3.0791799545e+01
    2.6500692749e+02   -3.0668300629e+01
    2.6510690308e+02   -3.0544900894e+01
    2.6520693970e+02   -3.0421600342e+01
    2.6530694580e+02   -3.0298500061e+01
    2.6540695190e+02   -3.0175399780e+01
    2.6550692749e+02   -3.0052600861e+01
    2.6560696411e+02   -2.9929800034e+01
    2.6570693970e+02   -2.9807199478e+01
    2.6580697632e+02   -2.9684600830e+01
    2.6590695190e+02   -2.9562200546e+01
    2.6600695801e+02   -2.9440000534e+01
    2.6610696411e+02   -2.9317800522e+01
    2.6620697021e+02   -2.9195800781e+01
    2.6630700684e+02   -2.9073900223e+01
    2.6640701294e+02   -2.8952100754e+01
    2.6650698853e+02   -2.8830499649e+01
    2.6660702515e+02   -2.8708900452e+01
    2.6670700073e+02   -2.8587499619e+01
    2.6680700684e+02   -2.8466299057e+01
    2.6690701294e+02   -2.8345100403e+01
    2.6700704956e+02   -2.8224100113e+01
    2.6710705566e+02   -2.8103200912e+01
    2.6720706177e+02   -2.7982400894e+01
    2.6730703735e+02   -2.7861799240e+01
    2.6740704346e+02   -2.7741300583e+01
    2.6750704956e+02   -2.7621000290e+01
    2.6760705566e+02   -2.7500699997e+01
    2.6770709229e+02   -2.7380599976e+01
    2.6780706787e+02   -2.7260700226e+01
    2.6790707397e+02   -2.7140899658e+01
    2.6800711060e+02   -2.7021099091e+01
    2.6810708618e+02   -2.6901599884e+01
    2.6820709229e+02   -2.6782199860e+01
    2.6830709839e+02   -2.6662900925e+01
    2.6840713501e+02   -2.6543800354e+01
    2.6850714111e+02   -2.6424800873e+01
    2.6860711670e+02   -2.6305999756e+01
    2.6870715332e+02   -2.6187299728e+01
    2.6880712891e+02   -2.6068700790e+01
    2.6890716553e+02   -2.5950300217e+01
    2.6900714111e+02   -2.5832099915e+01
    2.6910714722e+02   -2.5714000702e+01
    2.6920718384e+02   -2.5596000671e+01
    2.6930715942e+02   -2.5478200912e+01
    2.6940719604e+02   -2.5360500336e+01
    2.6950717163e+02   -2.5243000031e+01
    2.6960717773e+02   -2.5125600815e+01
    2.6970721436e+02   -2.5008399963e+01
    2.6980722046e+02   -2.4891300201e+01
    2.6990716553e+02   -2.4774400711e+01
    2.7000723267e+02   -2.4657600403e+01
    2.7010720825e+02   -2.4540899277e+01
    2.7020724487e+02   -2.4424400330e+01
    2.7030725098e+02   -2.4308099747e+01
    2.7040722656e+02   -2.4191900253e+01
    2.7050723267e+02   -2.4075799942e+01
    2.7060723877e+02   -2.3959899902e+01
    2.7070724487e+02   -2.3844100952e+01
    2.7080725098e+02   -2.3728500366e+01
    2.7090725708e+02   -2.3613000870e+01
    2.7100729370e+02   -2.3497600555e+01
    2.7110729980e+02   -2.3382400513e+01
    2.7120730591e+02   -2.3267299652e+01
    2.7130731201e+02   -2.3152399063e+01
    2.7140728760e+02   -2.3037599564e+01
    2.7150729370e+02   -2.2922899246e+01
    2.7160733032e+02   -2.2808300018e+01
    2.7170730591e+02   -2.2694000244e+01
    2.7180731201e+02   -2.2579700470e+01
    2.7190734863e+02   -2.2465599060e+01
    2.7200735474e+02   -2.2351600647e+01
    2.7210736084e+02   -2.2237699509e+01
    2.7220736694e+02   -2.2124000549e+01
    2.7230734253e+02   -2.2010400772e+01
    2.7240734863e+02   -2.1896900177e+01
    2.7250738525e+02   -2.1783500671e+01
    2.7260739136e+02   -2.1670299530e+01
    2.7270736694e+02   -2.1557199478e+01
    2.7280740356e+02   -2.1444099426e+01
    2.7290740967e+02   -2.1331300735e+01
    2.7300741577e+02   -2.1218500137e+01
    2.7310739136e+02   -2.1105899811e+01
    2.7320739746e+02   -2.0993400574e+01
    2.7330743408e+02   -2.0880899429e+01
    2.7340744019e+02   -2.0768600464e+01
    2.7350741577e+02   -2.0656400681e+01
    2.7360742188e+02   -2.0544399261e+01
    2.7370745850e+02   -2.0432399750e+01
    2.7380746460e+02   -2.0320499420e+01
    2.7390747070e+02   -2.0208799362e+01
    2.7400747681e+02   -2.0097200394e+01
    2.7410748291e+02   -1.9985700607e+01
    2.7420745850e+02   -1.9874300003e+01
    2.7430746460e+02   -1.9763000488e+01
    2.7440747070e+02   -1.9651800156e+01
    2.7450747681e+02   -1.9540700912e+01
    2.7460748291e+02   -1.9429700851e+01
    2.7470748901e+02   -1.9318899155e+01
    2.7480749512e+02   -1.9208099365e+01
    2.7490750122e+02   -1.9097499847e+01
    2.7500753784e+02   -1.8986799240e+01
    2.7510754395e+02   -1.8876399994e+01
    2.7520751953e+02   -1.8766099930e+01
    2.7530752563e+02   -1.8655799866e+01
    2.7540753174e+02   -1.8545600891e+01
    2.7550753784e+02   -1.8435600281e+01
    2.7560754395e+02   -1.8325599670e+01
    2.7570758057e+02   -1.8215700150e+01
    2.7580758667e+02   -1.8106000900e+01
    2.7590759277e+02   -1.7996400833e+01
    2.7600759888e+02   -1.7886800766e+01
    2.7610757446e+02   -1.7777399063e+01
    2.7620761108e+02   -1.7668100357e+01
    2.7630758667e+02   -1.7558799744e+01
    2.7640759277e+02   -1.7449699402e+01
    2.7650762939e+02   -1.7340700150e+01
    2.7660760498e+02   -1.7231700897e+01
    2.7670764160e+02   -1.7122900009e+01
    2.7680761719e+02   -1.7014200211e+01
    2.7690765381e+02   -1.6905500412e+01
    2.7700765991e+02   -1.6797000885e+01
    2.7710760498e+02   -1.6688600540e+01
    2.7720767212e+02   -1.6580200195e+01
    2.7730764771e+02   -1.6471900940e+01
    2.7740768433e+02   -1.6363800049e+01
    2.7750765991e+02   -1.6255699158e+01
    2.7760766602e+02   -1.6147800446e+01
    2.7770770264e+02   -1.6039899826e+01
    2.7780767822e+02   -1.5932100296e+01
    2.7790771484e+02   -1.5824399948e+01
    2.7800769043e+02   -1.5716799736e+01
    2.7810769653e+02   -1.5609299660e+01
    2.7820773315e+02   -1.5501899719e+01
    2.7830773926e+02   -1.5394499779e+01
    2.7840771484e+02   -1.5287300110e+01
    2.7850772095e+02   -1.5180100441e+01
    2.7860775757e+02   -1.5072999954e+01
    2.7870773315e+02   -1.4966099739e+01
    2.7880770874e+02   -1.4859199524e+01
    2.7890774536e+02   -1.4752300262e+01
    2.7900778198e+02   -1.4645500183e+01
    2.7910775757e+02   -1.4538900375e+01
    2.7920779419e+02   -1.4432200432e+01
    2.7930776978e+02   -1.4325699806e+01
    2.7940777588e+02   -1.4219300270e+01
    2.7950778198e+02   -1.4112899780e+01
    2.7960781860e+02   -1.4006500244e+01
    2.7970782471e+02   -1.3900300026e+01
    2.7980783081e+02   -1.3794099808e+01
    2.7990780640e+02   -1.3687999725e+01
    2.8000781250e+02   -1.3581899643e+01
    2.8010781860e+02   -1.3475899696e+01
    2.8020782471e+02   -1.3369999886e+01
    2.8030786133e+02   -1.3264100075e+01
    2.8040783691e+02   -1.3158300400e+01
    2.8050787354e+02   -1.3052499771e+01
    2.8060787964e+02   -1.2946800232e+01
    2.8070785522e+02   -1.2841199875e+01
    2.8080789185e+02   -1.2735600471e+01
    2.8090789795e+02   -1.2630000114e+01
    2.8100790405e+02   -1.2524499893e+01
    2.8110787964e+02   -1.2419099808e+01
    2.8120791626e+02   -1.2313699722e+01
    2.8130792236e+02   -1.2208299637e+01
    2.8140792847e+02   -1.2102999687e+01
    2.8150790405e+02   -1.1997799873e+01
    2.8160791016e+02   -1.1892499924e+01
    2.8170791626e+02   -1.1787400246e+01
    2.8180795288e+02   -1.1682200432e+01
    2.8190795898e+02   -1.1577099800e+01
    2.8200793457e+02   -1.1472100258e+01
    2.8210797119e+02   -1.1366999626e+01
    2.8220797729e+02   -1.1262000084e+01
    2.8230795288e+02   -1.1157099724e+01
    2.8240795898e+02   -1.1052100182e+01
    2.8250796509e+02   -1.0947199821e+01
    2.8260800171e+02   -1.0842300415e+01
    2.8270797729e+02   -1.0737500191e+01
    2.8280801392e+02   -1.0632599831e+01
    2.8290798950e+02   -1.0527799606e+01
    2.8300799561e+02   -1.0423000336e+01
    2.8310803223e+02   -1.0318200111e+01
    2.8320800781e+02   -1.0213500023e+01
    2.8330804443e+02   -1.0108699799e+01
    2.8340802002e+02   -1.0003999710e+01
    2.8350805664e+02   -9.8992500305e+00
    2.8360806274e+02   -9.7945604324e+00
    2.8370800781e+02   -9.6899299622e+00
    2.8380807495e+02   -9.5852298737e+00
    2.8390805054e+02   -9.4806203842e+00
    2.8400808716e+02   -9.3759603500e+00
    2.8410806274e+02   -9.2713899612e+00
    2.8420809937e+02   -9.1667604446e+00
    2.8430807495e+02   -9.0622196198e+00
    2.8440808105e+02   -8.9576597214e+00
    2.8450808716e+02   -8.8530902863e+00
    2.8460809326e+02   -8.7485599518e+00
    2.8470812988e+02   -8.6440000534e+00
    2.8480810547e+02   -8.5395097733e+00
    2.8490814209e+02   -8.4349699020e+00
    2.8500811768e+02   -8.3305196762e+00
    2.8510812378e+02   -8.2260103226e+00
    2.8520816040e+02   -8.1215000153e+00
    2.8530813599e+02   -8.0170402527e+00
    2.8540817261e+02   -7.9125299454e+00
    2.8550814819e+02   -7.8080902100e+00
    2.8560815430e+02   -7.7036499977e+00
    2.8570819092e+02   -7.5991501808e+00
    2.8580816650e+02   -7.4947299957e+00
    2.8590820312e+02   -7.3902702332e+00
    2.8600820923e+02   -7.2858300209e+00
    2.8610818481e+02   -7.1814298630e+00
    2.8620819092e+02   -7.0770001411e+00
    2.8630819702e+02   -6.9725699425e+00
    2.8640820312e+02   -6.8681502342e+00
    2.8650820923e+02   -6.7637200356e+00
    2.8660821533e+02   -6.6593198776e+00
    2.8670825195e+02   -6.5548801422e+00
    2.8680822754e+02   -6.4504899979e+00
    2.8690826416e+02   -6.3460397720e+00
    2.8700823975e+02   -6.2416601181e+00
    2.8710827637e+02   -6.1371898651e+00
    2.8720825195e+02   -6.0328001976e+00
    2.8730825806e+02   -5.9283699989e+00
    2.8740829468e+02   -5.8239102364e+00
    2.8750830078e+02   -5.7194700241e+00
    2.8760830688e+02   -5.6150197983e+00
    2.8770828247e+02   -5.5106101036e+00
    2.8780828857e+02   -5.4061598778e+00
    2.8790832520e+02   -5.3016700745e+00
    2.8800833130e+02   -5.1971898079e+00
    2.8810830688e+02   -5.0927600861e+00
    2.8820834351e+02   -4.9882497787e+00
    2.8830834961e+02   -4.8837499619e+00
    2.8840832520e+02   -4.7792601585e+00
    2.8850833130e+02   -4.6747598648e+00
    2.8860836792e+02   -4.5701799393e+00
    2.8870834351e+02   -4.4656701088e+00
    2.8880834961e+02   -4.3611001968e+00
    2.8890835571e+02   -4.2565097809e+00
    2.8900839233e+02   -4.1518797874e+00
    2.8910839844e+02   -4.0472598076e+00
    2.8920837402e+02   -3.9426500797e+00
    2.8930841064e+02   -3.8379399776e+00
    2.8940838623e+02   -3.7332699299e+00
    2.8950842285e+02   -3.6285500526e+00
    2.8960839844e+02   -3.5238399506e+00
    2.8970843506e+02   -3.4190299511e+00
    2.8980841064e+02   -3.3142800331e+00
    2.8990844727e+02   -3.2094099522e+00
    2.9000845337e+02   -3.1045699120e+00
    2.9010845947e+02   -2.9996700287e+00
    2.9020843506e+02   -2.8947999477e+00
    2.9030844116e+02   -2.7898600101e+00
    2.9040847778e+02   -2.6848800182e+00
    2.9050845337e+02   -2.5799100399e+00
    2.9060848999e+02   -2.4748699665e+00
    2.9070846558e+02   -2.3698499203e+00
    2.9080850220e+02   -2.2647399902e+00
    2.9090847778e+02   -2.1596500874e+00
    2.9100854492e+02   -2.0544600487e+00
    2.9110852051e+02   -1.9492900372e+00
    2.9120849609e+02   -1.8441200256e+00
    2.9130850220e+02   -1.7388600111e+00
    2.9140850830e+02   -1.6335899830e+00
    2.9150854492e+02   -1.5282499790e+00
    2.9160855103e+02   -1.4229199886e+00
    2.9170855713e+02   -1.3175599575e+00
    2.9180856323e+02   -1.2121900320e+00
    2.9190853882e+02   -1.1067999601e+00
    2.9200854492e+02   -1.0013300180e+00
    2.9210858154e+02   -8.9583498240e-01
    2.9220855713e+02   -7.9033702612e-01
    2.9230856323e+02   -6.8480598927e-01
    2.9240859985e+02   -5.7920497656e-01
    2.9250857544e+02   -4.7359299660e-01
    2.9260858154e+02   -3.6796399951e-01
    2.9270861816e+02   -2.6226198673e-01
    2.9280862427e+02   -1.5655300021e-01
    2.9290863037e+02   -5.0785299391e-02
    2.9300860596e+02    5.4988000542e-02
    2.9310864258e+02    1.6084699333e-01
    2.9320864868e+02    2.6669999957e-01
    2.9330862427e+02    3.7255498767e-01
    2.9340866089e+02    4.7849899530e-01
    2.9350866699e+02    5.8447599411e-01
    2.9360864258e+02    6.9043099880e-01
    2.9370864868e+02    7.9644799232e-01
    2.9380868530e+02    9.0249800682e-01
    2.9390869141e+02    1.0085699558e+00
    2.9400866699e+02    1.1146399975e+00
    2.9410867310e+02    1.2207599878e+00
    2.9420870972e+02    1.3269599676e+00
    2.9430868530e+02    1.4331300259e+00
    2.9440872192e+02    1.5393699408e+00
    2.9450869751e+02    1.6455700397e+00
    2.9460870361e+02    1.7518500090e+00
    2.9470870972e+02    1.8581800461e+00
    2.9480874634e+02    1.9645500183e+00
    2.9490872192e+02    2.0708799362e+00
    2.9500872803e+02    2.1772799492e+00
    2.9510876465e+02    2.2837500572e+00
    2.9520874023e+02    2.3901898861e+00
    2.9530877686e+02    2.4967501163e+00
    2.9540875244e+02    2.6032700539e+00
    2.9550878906e+02    2.7098701000e+00
    2.9560879517e+02    2.8164899349e+00
    2.9570877075e+02    2.9231200218e+00
    2.9580877686e+02    3.0298099518e+00
    2.9590878296e+02    3.1365399361e+00
    2.9600881958e+02    3.2433099747e+00
    2.9610879517e+02    3.3501000404e+00
    2.9620880127e+02    3.4569098949e+00
    2.9630883789e+02    3.5638101101e+00
    2.9640881348e+02    3.6706900597e+00
    2.9650885010e+02    3.7776799202e+00
    2.9660882568e+02    3.8846499920e+00
    2.9670883179e+02    3.9916899204e+00
    2.9680886841e+02    4.0988001823e+00
    2.9690887451e+02    4.2059597969e+00
    2.9700885010e+02    4.3131098747e+00
    2.9710888672e+02    4.4203600883e+00
    2.9720889282e+02    4.5276498795e+00
    2.9730886841e+02    4.6349301338e+00
    2.9740887451e+02    4.7423100471e+00
    2.9750891113e+02    4.8497700691e+00
    2.9760891724e+02    4.9572401047e+00
    2.9770889282e+02    5.0647301674e+00
    2.9780889893e+02    5.1722698212e+00
    2.9790893555e+02    5.2799201012e+00
    2.9800894165e+02    5.3875999451e+00
    2.9810888672e+02    5.4952502251e+00
    2.9820895386e+02    5.6030597687e+00
    2.9830892944e+02    5.7108302116e+00
    2.9840896606e+02    5.8186998367e+00
    2.9850897217e+02    5.9266300201e+00
    2.9860897827e+02    6.0345897675e+00
    2.9870895386e+02    6.1425499916e+00
    2.9880899048e+02    6.2506599426e+00
    2.9890899658e+02    6.3587698936e+00
    2.9900900269e+02    6.4669399261e+00
    2.9910897827e+02    6.5750999451e+00
    2.9920898438e+02    6.6833801270e+00
    2.9930902100e+02    6.7917299271e+00
    2.9940902710e+02    6.9001097679e+00
    2.9950900269e+02    7.0085101128e+00
    2.9960900879e+02    7.1170001030e+00
    2.9970904541e+02    7.2255401611e+00
    2.9980905151e+02    7.3341097832e+00
    2.9990905762e+02    7.4427700043e+00
endcurve
