Curveplot
LS-DYNA keyword deck by LS-PrePost
Abscissa
Ordinate
XY data
CHOP_EAMZ_mo-1 #pts=3000
* Minval=    -2.4074300766e+01 at time=       203.2031555176
* Maxval=     1.6528500319e+00 at time=       299.9090576172
    0.0000000000e+00    0.0000000000e+00
    9.9969372153e-02    5.9023398148e-12
    1.9999055564e-01    1.1002699694e-06
    2.9997798800e-01    1.6093899831e-06
    3.9999884367e-01    2.1044400000e-06
    4.9999368191e-01    2.6461300422e-06
    5.9994947910e-01    3.7307199818e-06
    6.9995683432e-01    4.4169100875e-06
    7.9995691776e-01    5.4279298638e-06
    8.9995783567e-01    6.8687900239e-06
    9.9997615814e-01    8.7655798779e-06
    1.0999749899e+00    1.1581099898e-05
    1.1999589205e+00    1.3591999959e-05
    1.2999641895e+00    1.4315100088e-05
    1.3999682665e+00    1.3271699572e-05
    1.4999890327e+00    1.1460600035e-05
    1.5999946594e+00    9.9676699392e-06
    1.6999493837e+00    9.3765502243e-06
    1.7999840975e+00    9.8762402558e-06
    1.8999625444e+00    1.0662400200e-05
    1.9999979734e+00    1.2611099919e-05
    2.0999755859e+00    1.4956600353e-05
    2.1999657154e+00    1.6759000573e-05
    2.2999944687e+00    1.8530499801e-05
    2.3999969959e+00    1.9603699911e-05
    2.4999971390e+00    1.9750799765e-05
    2.5999636650e+00    2.0005099941e-05
    2.6999635696e+00    1.8685199393e-05
    2.7999787331e+00    1.4498299606e-05
    2.8999865055e+00    8.5699903138e-06
    2.9999670982e+00    4.6553000743e-07
    3.0999732018e+00   -8.4497496573e-06
    3.1999964714e+00   -1.7157299226e-05
    3.2999606133e+00   -2.5644900234e-05
    3.3999693394e+00   -3.4021901229e-05
    3.4999444485e+00   -4.2777199269e-05
    3.5999779701e+00   -5.3537700296e-05
    3.6999688148e+00   -6.6328997491e-05
    3.7999927998e+00   -7.9569203081e-05
    3.8999881744e+00   -9.4093498774e-05
    3.9999790192e+00   -1.0892400314e-04
    4.0999979973e+00   -1.2519799930e-04
    4.1999869347e+00   -1.4240700693e-04
    4.2999892235e+00   -1.6133699683e-04
    4.3999638557e+00   -1.8166699738e-04
    4.4999594688e+00   -2.0402600057e-04
    4.5999741554e+00   -2.2847199580e-04
    4.6999936104e+00   -2.5609298609e-04
    4.7999687195e+00   -2.8528500115e-04
    4.8999819756e+00   -3.1598799978e-04
    4.9999451637e+00   -3.4914800199e-04
    5.0999517441e+00   -3.8489498547e-04
    5.1999678612e+00   -4.2357298662e-04
    5.2999477386e+00   -4.6439500875e-04
    5.3999924660e+00   -5.0721399020e-04
    5.4999446869e+00   -5.5124697974e-04
    5.5999689102e+00   -5.9755198890e-04
    5.6999573708e+00   -6.4588501118e-04
    5.7999835014e+00   -6.9662998430e-04
    5.8999633789e+00   -7.4927601963e-04
    5.9999904633e+00   -8.0565101234e-04
    6.0999917984e+00   -8.6520402692e-04
    6.1999559402e+00   -9.2584500089e-04
    6.2999868393e+00   -9.8967202939e-04
    6.3999643326e+00   -1.0555100162e-03
    6.4999818802e+00   -1.1229499942e-03
    6.5999855995e+00   -1.1934799841e-03
    6.6999430656e+00   -1.2674400350e-03
    6.7999916077e+00   -1.3440400362e-03
    6.8999857903e+00   -1.4246000210e-03
    6.9999866486e+00   -1.5069700312e-03
    7.0999903679e+00   -1.5914100222e-03
    7.1999754906e+00   -1.6790999798e-03
    7.2999916077e+00   -1.7693199916e-03
    7.3999700546e+00   -1.8620199990e-03
    7.4999904633e+00   -1.9585299306e-03
    7.5999941826e+00   -2.0548501052e-03
    7.6999754906e+00   -2.1528599318e-03
    7.7999663353e+00   -2.2535100579e-03
    7.8999881744e+00   -2.3558200337e-03
    7.9999499321e+00   -2.4616499431e-03
    8.0999841690e+00   -2.5686901063e-03
    8.1999864578e+00   -2.6785701048e-03
    8.2999477386e+00   -2.7914498933e-03
    8.3999547958e+00   -2.9077199288e-03
    8.4999647141e+00   -3.0262500513e-03
    8.5999832153e+00   -3.1461201143e-03
    8.6999530792e+00   -3.2661999576e-03
    8.7999639511e+00   -3.3889599144e-03
    8.8999767303e+00   -3.5143699497e-03
    8.9999771118e+00   -3.6408801097e-03
    9.0999765396e+00   -3.7702899426e-03
    9.1999673843e+00   -3.9009200409e-03
    9.2999715805e+00   -4.0329401381e-03
    9.3999557495e+00   -4.1671101935e-03
    9.4999561310e+00   -4.3034800328e-03
    9.5999441147e+00   -4.4410000555e-03
    9.6999645233e+00   -4.5809098519e-03
    9.7999467850e+00   -4.7230701894e-03
    9.8999977112e+00   -4.8670200631e-03
    9.9999589920e+00   -5.0134197809e-03
    1.0099968910e+01   -5.1597300917e-03
    1.0199953079e+01   -5.3087598644e-03
    1.0299945831e+01   -5.4593598470e-03
    1.0399965286e+01   -5.6108301505e-03
    1.0499965668e+01   -5.7644899935e-03
    1.0599949837e+01   -5.9204599820e-03
    1.0699962616e+01   -6.0783000663e-03
    1.0800002098e+01   -6.2361601740e-03
    1.0899985313e+01   -6.3962400891e-03
    1.0999961853e+01   -6.5552401356e-03
    1.1099952698e+01   -6.7146602087e-03
    1.1199979782e+01   -6.8768202327e-03
    1.1299984932e+01   -7.0448401384e-03
    1.1399976730e+01   -7.2183199227e-03
    1.1499999046e+01   -7.3947701603e-03
    1.1599985123e+01   -7.5722001493e-03
    1.1699957848e+01   -7.7518802136e-03
    1.1799983025e+01   -7.9313004389e-03
    1.1899961472e+01   -8.1115597859e-03
    1.1999995232e+01   -8.2930997014e-03
    1.2099998474e+01   -8.4762899205e-03
    1.2199968338e+01   -8.6610699072e-03
    1.2299962997e+01   -8.8478103280e-03
    1.2399999619e+01   -9.0372497216e-03
    1.2499962807e+01   -9.2278402299e-03
    1.2599994659e+01   -9.4218300655e-03
    1.2699981689e+01   -9.6202297136e-03
    1.2799963951e+01   -9.8245199770e-03
    1.2899968147e+01   -1.0035200045e-02
    1.2999986649e+01   -1.0250300169e-02
    1.3099967003e+01   -1.0469700210e-02
    1.3199962616e+01   -1.0690500028e-02
    1.3299996376e+01   -1.0913000442e-02
    1.3399962425e+01   -1.1138600297e-02
    1.3499993324e+01   -1.1368899606e-02
    1.3599989891e+01   -1.1603699997e-02
    1.3700004578e+01   -1.1843999848e-02
    1.3799965858e+01   -1.2089000084e-02
    1.3900013924e+01   -1.2338800356e-02
    1.3999975204e+01   -1.2591100298e-02
    1.4099980354e+01   -1.2845999561e-02
    1.4199968338e+01   -1.3104300015e-02
    1.4300005913e+01   -1.3366900384e-02
    1.4399991035e+01   -1.3632699847e-02
    1.4499982834e+01   -1.3905500062e-02
    1.4599979401e+01   -1.4183700085e-02
    1.4700016975e+01   -1.4465999790e-02
    1.4800003052e+01   -1.4753700234e-02
    1.4899967194e+01   -1.5046300367e-02
    1.4999972343e+01   -1.5345100313e-02
    1.5100006104e+01   -1.5651600435e-02
    1.5200000763e+01   -1.5962800011e-02
    1.5300013542e+01   -1.6280399635e-02
    1.5399974823e+01   -1.6602199525e-02
    1.5499973297e+01   -1.6928199679e-02
    1.5600020409e+01   -1.7258800566e-02
    1.5700016975e+01   -1.7593100667e-02
    1.5800010681e+01   -1.7931500450e-02
    1.5899975777e+01   -1.8275300041e-02
    1.5999968529e+01   -1.8624899909e-02
    1.6100006104e+01   -1.8980100751e-02
    1.6199974060e+01   -1.9339699298e-02
    1.6300014496e+01   -1.9703000784e-02
    1.6399993896e+01   -2.0069699734e-02
    1.6500005722e+01   -2.0441500470e-02
    1.6599990845e+01   -2.0818199962e-02
    1.6699998856e+01   -2.1201100200e-02
    1.6800025940e+01   -2.1588400006e-02
    1.6899978638e+01   -2.1980799735e-02
    1.7000017166e+01   -2.2379599512e-02
    1.7100017548e+01   -2.2781100124e-02
    1.7200006485e+01   -2.3186599836e-02
    1.7299999237e+01   -2.3597400635e-02
    1.7400011063e+01   -2.4012200534e-02
    1.7500020981e+01   -2.4430299178e-02
    1.7599994659e+01   -2.4852899835e-02
    1.7699985504e+01   -2.5275999680e-02
    1.7799989700e+01   -2.5701299310e-02
    1.7900009155e+01   -2.6130599901e-02
    1.8000007629e+01   -2.6561800390e-02
    1.8100017548e+01   -2.6998100802e-02
    1.8200019836e+01   -2.7437899262e-02
    1.8299976349e+01   -2.7881400660e-02
    1.8400022507e+01   -2.8330100700e-02
    1.8499998093e+01   -2.8781000525e-02
    1.8599983215e+01   -2.9233599082e-02
    1.8700006485e+01   -2.9689000919e-02
    1.8799987793e+01   -3.0146399513e-02
    1.8899988174e+01   -3.0606299639e-02
    1.9000005722e+01   -3.1068399549e-02
    1.9099994659e+01   -3.1532999128e-02
    1.9199981689e+01   -3.1998500228e-02
    1.9300027847e+01   -3.2466500998e-02
    1.9399980545e+01   -3.2936099917e-02
    1.9500032425e+01   -3.3409900963e-02
    1.9600013733e+01   -3.3886700869e-02
    1.9700033188e+01   -3.4364998341e-02
    1.9799993515e+01   -3.4846298397e-02
    1.9900007248e+01   -3.5331301391e-02
    1.9999984741e+01   -3.5817898810e-02
    2.0099990845e+01   -3.6306299269e-02
    2.0200040817e+01   -3.6795500666e-02
    2.0299999237e+01   -3.7288598716e-02
    2.0400026321e+01   -3.7785198539e-02
    2.0500040054e+01   -3.8282800466e-02
    2.0600002289e+01   -3.8783401251e-02
    2.0699995041e+01   -3.9285499603e-02
    2.0799997330e+01   -3.9785701782e-02
    2.0900028229e+01   -4.0288999677e-02
    2.1000000000e+01   -4.0792599320e-02
    2.1100023270e+01   -4.1297901422e-02
    2.1200017929e+01   -4.1807200760e-02
    2.1300012589e+01   -4.2321901768e-02
    2.1400011063e+01   -4.2841501534e-02
    2.1500007629e+01   -4.3366398662e-02
    2.1600028992e+01   -4.3892201036e-02
    2.1700025558e+01   -4.4419601560e-02
    2.1800006866e+01   -4.4947601855e-02
    2.1899997711e+01   -4.5477699488e-02
    2.2000017166e+01   -4.6010799706e-02
    2.2099994659e+01   -4.6545501798e-02
    2.2200014114e+01   -4.7081898898e-02
    2.2300012589e+01   -4.7619398683e-02
    2.2400020599e+01   -4.8158600926e-02
    2.2500034332e+01   -4.8700299114e-02
    2.2600044250e+01   -4.9246098846e-02
    2.2700012207e+01   -4.9797300249e-02
    2.2800018311e+01   -5.0355698913e-02
    2.2900026321e+01   -5.0919301808e-02
    2.3000047684e+01   -5.1488701254e-02
    2.3100036621e+01   -5.2061300725e-02
    2.3200029373e+01   -5.2634999156e-02
    2.3300020218e+01   -5.3208701313e-02
    2.3400012970e+01   -5.3786598146e-02
    2.3500017166e+01   -5.4368700832e-02
    2.3600040436e+01   -5.4956499487e-02
    2.3700029373e+01   -5.5549900979e-02
    2.3800006866e+01   -5.6146800518e-02
    2.3900020599e+01   -5.6746900082e-02
    2.4000034332e+01   -5.7349000126e-02
    2.4100019455e+01   -5.7953201234e-02
    2.4200014114e+01   -5.8561399579e-02
    2.4300003052e+01   -5.9173300862e-02
    2.4400007248e+01   -5.9788998216e-02
    2.4500022888e+01   -6.0410600156e-02
    2.4600021362e+01   -6.1036601663e-02
    2.4700025558e+01   -6.1665199697e-02
    2.4800027847e+01   -6.2297001481e-02
    2.4900009155e+01   -6.2931798398e-02
    2.5000049591e+01   -6.3572697341e-02
    2.5100011826e+01   -6.4218401909e-02
    2.5200056076e+01   -6.4868703485e-02
    2.5300014496e+01   -6.5523698926e-02
    2.5400028229e+01   -6.6183097661e-02
    2.5500017166e+01   -6.6844001412e-02
    2.5600038528e+01   -6.7506998777e-02
    2.5700052261e+01   -6.8172402680e-02
    2.5800018311e+01   -6.8840697408e-02
    2.5900047302e+01   -6.9513797760e-02
    2.6000038147e+01   -7.0191197097e-02
    2.6100030899e+01   -7.0873096585e-02
    2.6200033188e+01   -7.1558102965e-02
    2.6300012589e+01   -7.2244100273e-02
    2.6400020599e+01   -7.2931401432e-02
    2.6500019073e+01   -7.3621302843e-02
    2.6600025177e+01   -7.4312001467e-02
    2.6700038910e+01   -7.5006999075e-02
    2.6800050735e+01   -7.5705997646e-02
    2.6900020599e+01   -7.6408900321e-02
    2.7000040054e+01   -7.7116303146e-02
    2.7100059509e+01   -7.7824898064e-02
    2.7200029373e+01   -7.8535698354e-02
    2.7300035477e+01   -7.9250000417e-02
    2.7400028229e+01   -7.9965703189e-02
    2.7500034332e+01   -8.0684199929e-02
    2.7600067139e+01   -8.1403702497e-02
    2.7700021744e+01   -8.2121700048e-02
    2.7800018311e+01   -8.2840301096e-02
    2.7900060654e+01   -8.3560697734e-02
    2.8000028610e+01   -8.4280699492e-02
    2.8100032806e+01   -8.5003197193e-02
    2.8200035095e+01   -8.5726097226e-02
    2.8300062180e+01   -8.6450800300e-02
    2.8400035858e+01   -8.7178401649e-02
    2.8500066757e+01   -8.7906703353e-02
    2.8600051880e+01   -8.8636897504e-02
    2.8700052261e+01   -8.9367501438e-02
    2.8800039291e+01   -9.0098403394e-02
    2.8900037766e+01   -9.0830400586e-02
    2.9000066757e+01   -9.1562703252e-02
    2.9100070953e+01   -9.2295698822e-02
    2.9200029373e+01   -9.3027502298e-02
    2.9300035477e+01   -9.3758396804e-02
    2.9400074005e+01   -9.4490997493e-02
    2.9500064850e+01   -9.5224700868e-02
    2.9600063324e+01   -9.5959201455e-02
    2.9700048447e+01   -9.6695899963e-02
    2.9800052643e+01   -9.7433000803e-02
    2.9900037766e+01   -9.8169803619e-02
    3.0000030518e+01   -9.8906897008e-02
    3.0100051880e+01   -9.9645003676e-02
    3.0200067520e+01   -1.0038399696e-01
    3.0300071716e+01   -1.0112400353e-01
    3.0400043488e+01   -1.0186500102e-01
    3.0500032425e+01   -1.0260599852e-01
    3.0600063324e+01   -1.0334900022e-01
    3.0700061798e+01   -1.0408999771e-01
    3.0800043106e+01   -1.0482899845e-01
    3.0900053024e+01   -1.0556499660e-01
    3.1000055313e+01   -1.0629799962e-01
    3.1100034714e+01   -1.0703299940e-01
    3.1200080872e+01   -1.0777200013e-01
    3.1300062180e+01   -1.0851699859e-01
    3.1400072098e+01   -1.0926999897e-01
    3.1500070572e+01   -1.1002700031e-01
    3.1600053787e+01   -1.1078599840e-01
    3.1700050354e+01   -1.1154399812e-01
    3.1800060272e+01   -1.1229900271e-01
    3.1900064468e+01   -1.1305300146e-01
    3.2000026703e+01   -1.1380700022e-01
    3.2100051880e+01   -1.1456000060e-01
    3.2200065613e+01   -1.1531200260e-01
    3.2300048828e+01   -1.1606399715e-01
    3.2400024414e+01   -1.1681699753e-01
    3.2500053406e+01   -1.1757099628e-01
    3.2600021362e+01   -1.1832900345e-01
    3.2700046539e+01   -1.1909899861e-01
    3.2800056458e+01   -1.1987899989e-01
    3.2900035858e+01   -1.2066800147e-01
    3.3000053406e+01   -1.2146600336e-01
    3.3100025177e+01   -1.2226700038e-01
    3.3200035095e+01   -1.2306900322e-01
    3.3300052643e+01   -1.2387000024e-01
    3.3400028229e+01   -1.2467499822e-01
    3.3500053406e+01   -1.2548699975e-01
    3.3600013733e+01   -1.2630499899e-01
    3.3700012207e+01   -1.2713100016e-01
    3.3800052643e+01   -1.2796199322e-01
    3.3900043488e+01   -1.2879699469e-01
    3.4000041962e+01   -1.2963399291e-01
    3.4100032806e+01   -1.3047499955e-01
    3.4200038910e+01   -1.3131900132e-01
    3.4300029755e+01   -1.3216899335e-01
    3.4400024414e+01   -1.3302600384e-01
    3.4500041962e+01   -1.3389199972e-01
    3.4600028992e+01   -1.3476799428e-01
    3.4700027466e+01   -1.3565200567e-01
    3.4800022125e+01   -1.3654200733e-01
    3.4900005341e+01   -1.3743999600e-01
    3.4999980927e+01   -1.3834799826e-01
    3.5100032806e+01   -1.3926699758e-01
    3.5199989319e+01   -1.4019599557e-01
    3.5299980164e+01   -1.4113399386e-01
    3.5399993896e+01   -1.4207699895e-01
    3.5499984741e+01   -1.4302800596e-01
    3.5600017548e+01   -1.4398300648e-01
    3.5699970245e+01   -1.4494499564e-01
    3.5799976349e+01   -1.4591500163e-01
    3.5899997711e+01   -1.4689399302e-01
    3.5999988556e+01   -1.4788499475e-01
    3.6100006104e+01   -1.4888699353e-01
    3.6199993134e+01   -1.4989399910e-01
    3.6299991608e+01   -1.5091000497e-01
    3.6399982452e+01   -1.5193000436e-01
    3.6499977112e+01   -1.5295599401e-01
    3.6599960327e+01   -1.5399099886e-01
    3.6699962616e+01   -1.5503799915e-01
    3.6799980164e+01   -1.5609499812e-01
    3.6900001526e+01   -1.5716500580e-01
    3.7000003815e+01   -1.5824399889e-01
    3.7099960327e+01   -1.5932999551e-01
    3.7199996948e+01   -1.6042600572e-01
    3.7299957275e+01   -1.6152900457e-01
    3.7399974823e+01   -1.6264300048e-01
    3.7499973297e+01   -1.6376399994e-01
    3.7599990845e+01   -1.6489000618e-01
    3.7699962616e+01   -1.6602100432e-01
    3.7799957275e+01   -1.6715699434e-01
    3.7899986267e+01   -1.6829599440e-01
    3.7999946594e+01   -1.6944199800e-01
    3.8099952698e+01   -1.7059600353e-01
    3.8199977875e+01   -1.7175899446e-01
    3.8299942017e+01   -1.7293199897e-01
    3.8399940491e+01   -1.7411400378e-01
    3.8499961853e+01   -1.7530399561e-01
    3.8599952698e+01   -1.7649699748e-01
    3.8699943542e+01   -1.7769600451e-01
    3.8799926758e+01   -1.7890100181e-01
    3.8899929047e+01   -1.8011100590e-01
    3.8999965668e+01   -1.8132700026e-01
    3.9099929810e+01   -1.8254899979e-01
    3.9199947357e+01   -1.8377700448e-01
    3.9299926758e+01   -1.8501000106e-01
    3.9399963379e+01   -1.8625099957e-01
    3.9499942780e+01   -1.8749700487e-01
    3.9599914551e+01   -1.8874999881e-01
    3.9699916840e+01   -1.9000999629e-01
    3.9799957275e+01   -1.9127799571e-01
    3.9899959564e+01   -1.9255399704e-01
    3.9999923706e+01   -1.9383500516e-01
    4.0099937439e+01   -1.9512200356e-01
    4.0199920654e+01   -1.9641500711e-01
    4.0299907684e+01   -1.9771400094e-01
    4.0399902344e+01   -1.9901999831e-01
    4.0499912262e+01   -2.0033200085e-01
    4.0599941254e+01   -2.0165400207e-01
    4.0699932098e+01   -2.0297800004e-01
    4.0799915314e+01   -2.0430199802e-01
    4.0899909973e+01   -2.0562900603e-01
    4.0999912262e+01   -2.0695599914e-01
    4.1099918365e+01   -2.0828799903e-01
    4.1199924469e+01   -2.0963199437e-01
    4.1299896240e+01   -2.1099199355e-01
    4.1399898529e+01   -2.1236899495e-01
    4.1499912262e+01   -2.1375900507e-01
    4.1599884033e+01   -2.1515600383e-01
    4.1699913025e+01   -2.1655899286e-01
    4.1799896240e+01   -2.1796500683e-01
    4.1899913788e+01   -2.1937499940e-01
    4.1999908447e+01   -2.2078999877e-01
    4.2099922180e+01   -2.2221200168e-01
    4.2199886322e+01   -2.2363799810e-01
    4.2299922943e+01   -2.2507099807e-01
    4.2399871826e+01   -2.2650800645e-01
    4.2499904633e+01   -2.2795400023e-01
    4.2599872589e+01   -2.2941100597e-01
    4.2699874878e+01   -2.3089000583e-01
    4.2799869537e+01   -2.3238900304e-01
    4.2899879456e+01   -2.3390600085e-01
    4.2999862671e+01   -2.3544199765e-01
    4.3099868774e+01   -2.3699000478e-01
    4.3199905396e+01   -2.3854400218e-01
    4.3299907684e+01   -2.4010400474e-01
    4.3399898529e+01   -2.4167400599e-01
    4.3499855042e+01   -2.4326099455e-01
    4.3599872589e+01   -2.4486799538e-01
    4.3699867249e+01   -2.4649199843e-01
    4.3799896240e+01   -2.4813100696e-01
    4.3899856567e+01   -2.4978099763e-01
    4.3999885559e+01   -2.5144198537e-01
    4.4099891663e+01   -2.5311198831e-01
    4.4199867249e+01   -2.5479501486e-01
    4.4299858093e+01   -2.5648999214e-01
    4.4399879456e+01   -2.5820299983e-01
    4.4499858856e+01   -2.5993400812e-01
    4.4599876404e+01   -2.6168400049e-01
    4.4699840546e+01   -2.6344799995e-01
    4.4799873352e+01   -2.6522898674e-01
    4.4899883270e+01   -2.6702600718e-01
    4.4999877930e+01   -2.6884299517e-01
    4.5099845886e+01   -2.7068099380e-01
    4.5199844360e+01   -2.7254199982e-01
    4.5299839020e+01   -2.7441999316e-01
    4.5399822235e+01   -2.7631199360e-01
    4.5499824524e+01   -2.7821698785e-01
    4.5599822998e+01   -2.8013399243e-01
    4.5699844360e+01   -2.8206399083e-01
    4.5799823761e+01   -2.8401198983e-01
    4.5899822235e+01   -2.8597998619e-01
    4.5999855042e+01   -2.8796899319e-01
    4.6099830627e+01   -2.8997600079e-01
    4.6199844360e+01   -2.9199600220e-01
    4.6299812317e+01   -2.9403001070e-01
    4.6399829865e+01   -2.9607599974e-01
    4.6499832153e+01   -2.9813399911e-01
    4.6599807739e+01   -3.0020800233e-01
    4.6699855804e+01   -3.0230399966e-01
    4.6799850464e+01   -3.0441901088e-01
    4.6899826050e+01   -3.0655300617e-01
    4.6999835968e+01   -3.0870598555e-01
    4.7099834442e+01   -3.1087198853e-01
    4.7199813843e+01   -3.1305199862e-01
    4.7299812317e+01   -3.1524899602e-01
    4.7399799347e+01   -3.1746101379e-01
    4.7499816895e+01   -3.1968501210e-01
    4.7599807739e+01   -3.2192200422e-01
    4.7699836731e+01   -3.2416701317e-01
    4.7799804688e+01   -3.2641899586e-01
    4.7899787903e+01   -3.2868099213e-01
    4.7999805450e+01   -3.3095398545e-01
    4.8099811554e+01   -3.3323898911e-01
    4.8199802399e+01   -3.3553799987e-01
    4.8299804688e+01   -3.3785399795e-01
    4.8399799347e+01   -3.4018400311e-01
    4.8499828339e+01   -3.4252598882e-01
    4.8599803925e+01   -3.4487599134e-01
    4.8699810028e+01   -3.4723401070e-01
    4.8799808502e+01   -3.4960201383e-01
    4.8899799347e+01   -3.5198000073e-01
    4.8999794006e+01   -3.5436600447e-01
    4.9099792480e+01   -3.5676398873e-01
    4.9199817657e+01   -3.5916900635e-01
    4.9299774170e+01   -3.6157900095e-01
    4.9399799347e+01   -3.6400198936e-01
    4.9499805450e+01   -3.6643400788e-01
    4.9599765778e+01   -3.6887198687e-01
    4.9699779510e+01   -3.7132498622e-01
    4.9799777985e+01   -3.7378799915e-01
    4.9899784088e+01   -3.7626099586e-01
    4.9999759674e+01   -3.7874001265e-01
    5.0099765778e+01   -3.8123100996e-01
    5.0199790955e+01   -3.8372901082e-01
    5.0299774170e+01   -3.8623601198e-01
    5.0399799347e+01   -3.8875499368e-01
    5.0499790192e+01   -3.9128199220e-01
    5.0599781036e+01   -3.9382100105e-01
    5.0699787140e+01   -3.9636600018e-01
    5.0799785614e+01   -3.9890798926e-01
    5.0899772644e+01   -4.0145298839e-01
    5.0999782562e+01   -4.0400001407e-01
    5.1099773407e+01   -4.0655100346e-01
    5.1199760437e+01   -4.0911900997e-01
    5.1299774170e+01   -4.1170999408e-01
    5.1399742126e+01   -4.1431900859e-01
    5.1499763489e+01   -4.1694700718e-01
    5.1599750519e+01   -4.1958600283e-01
    5.1699771881e+01   -4.2223000526e-01
    5.1799739838e+01   -4.2487600446e-01
    5.1899738312e+01   -4.2753100395e-01
    5.1999740601e+01   -4.3019101024e-01
    5.2099754333e+01   -4.3285998702e-01
    5.2199748993e+01   -4.3553599715e-01
    5.2299751282e+01   -4.3821498752e-01
    5.2399753571e+01   -4.4090101123e-01
    5.2499752045e+01   -4.4359698892e-01
    5.2599731445e+01   -4.4630700350e-01
    5.2699722290e+01   -4.4904199243e-01
    5.2799758911e+01   -4.5180401206e-01
    5.2899726868e+01   -4.5458799601e-01
    5.2999736786e+01   -4.5739498734e-01
    5.3099754333e+01   -4.6021199226e-01
    5.3199714661e+01   -4.6303498745e-01
    5.3299724579e+01   -4.6586498618e-01
    5.3399726868e+01   -4.6870899200e-01
    5.3499721527e+01   -4.7157099843e-01
    5.3599708557e+01   -4.7445601225e-01
    5.3699748993e+01   -4.7736600041e-01
    5.3799709320e+01   -4.8028698564e-01
    5.3899726868e+01   -4.8322299123e-01
    5.3999721527e+01   -4.8616901040e-01
    5.4099693298e+01   -4.8912099004e-01
    5.4199707031e+01   -4.9208599329e-01
    5.4299690247e+01   -4.9506801367e-01
    5.4399692535e+01   -4.9806699157e-01
    5.4499698639e+01   -5.0108599663e-01
    5.4599689484e+01   -5.0412499905e-01
    5.4699687958e+01   -5.0717902184e-01
    5.4799682617e+01   -5.1024901867e-01
    5.4899684906e+01   -5.1333999634e-01
    5.4999702454e+01   -5.1645100117e-01
    5.5099720001e+01   -5.1958602667e-01
    5.5199710846e+01   -5.2274197340e-01
    5.5299713135e+01   -5.2591598034e-01
    5.5399700165e+01   -5.2910101414e-01
    5.5499687195e+01   -5.3229999542e-01
    5.5599689484e+01   -5.3550797701e-01
    5.5699680328e+01   -5.3872799873e-01
    5.5799705505e+01   -5.4196697474e-01
    5.5899681091e+01   -5.4522597790e-01
    5.5999660492e+01   -5.4850602150e-01
    5.6099704742e+01   -5.5180501938e-01
    5.6199672699e+01   -5.5511397123e-01
    5.6299667358e+01   -5.5843400955e-01
    5.6399673462e+01   -5.6176400185e-01
    5.6499664307e+01   -5.6510400772e-01
    5.6599678040e+01   -5.6845998764e-01
    5.6699691772e+01   -5.7183802128e-01
    5.6799652100e+01   -5.7523101568e-01
    5.6899677277e+01   -5.7864499092e-01
    5.6999671936e+01   -5.8207601309e-01
    5.7099697113e+01   -5.8551901579e-01
    5.7199676514e+01   -5.8897298574e-01
    5.7299652100e+01   -5.9244298935e-01
    5.7399658203e+01   -5.9592497349e-01
    5.7499645233e+01   -5.9941697121e-01
    5.7599658966e+01   -6.0291802883e-01
    5.7699672699e+01   -6.0642200708e-01
    5.7799648285e+01   -6.0992902517e-01
    5.7899642944e+01   -6.1344301701e-01
    5.7999679565e+01   -6.1696398258e-01
    5.8099643707e+01   -6.2049597502e-01
    5.8199649811e+01   -6.2404102087e-01
    5.8299633026e+01   -6.2760102749e-01
    5.8399639130e+01   -6.3117301464e-01
    5.8499671936e+01   -6.3475298882e-01
    5.8599662781e+01   -6.3833600283e-01
    5.8699653625e+01   -6.4192402363e-01
    5.8799621582e+01   -6.4551699162e-01
    5.8899646759e+01   -6.4911997318e-01
    5.8999633789e+01   -6.5272599459e-01
    5.9099666595e+01   -6.5633797646e-01
    5.9199634552e+01   -6.5995299816e-01
    5.9299610138e+01   -6.6357100010e-01
    5.9399658203e+01   -6.6719800234e-01
    5.9499626160e+01   -6.7083102465e-01
    5.9599647522e+01   -6.7447000742e-01
    5.9699642181e+01   -6.7811697721e-01
    5.9799633026e+01   -6.8177199364e-01
    5.9899600983e+01   -6.8543201685e-01
    5.9999641418e+01   -6.8910002708e-01
    6.0099624634e+01   -6.9277101755e-01
    6.0199611664e+01   -6.9644898176e-01
    6.0299610138e+01   -7.0013600588e-01
    6.0399639130e+01   -7.0383197069e-01
    6.0499641418e+01   -7.0753300190e-01
    6.0599597931e+01   -7.1124100685e-01
    6.0699615479e+01   -7.1495002508e-01
    6.0799621582e+01   -7.1865200996e-01
    6.0899604797e+01   -7.2234898806e-01
    6.0999618530e+01   -7.2604298592e-01
    6.1099601746e+01   -7.2973799706e-01
    6.1199615479e+01   -7.3344898224e-01
    6.1299621582e+01   -7.3718100786e-01
    6.1399589539e+01   -7.4093198776e-01
    6.1499622345e+01   -7.4470001459e-01
    6.1599594116e+01   -7.4847698212e-01
    6.1699611664e+01   -7.5225901604e-01
    6.1799571991e+01   -7.5604099035e-01
    6.1899570465e+01   -7.5982898474e-01
    6.1999580383e+01   -7.6362198591e-01
    6.2099594116e+01   -7.6741898060e-01
    6.2199600220e+01   -7.7121901512e-01
    6.2299606323e+01   -7.7501797676e-01
    6.2399574280e+01   -7.7881902456e-01
    6.2499568939e+01   -7.8263002634e-01
    6.2599597931e+01   -7.8645402193e-01
    6.2699577332e+01   -7.9030299187e-01
    6.2799564362e+01   -7.9417902231e-01
    6.2899555206e+01   -7.9807597399e-01
    6.2999576569e+01   -8.0199497938e-01
    6.3099571228e+01   -8.0592399836e-01
    6.3199584961e+01   -8.0985802412e-01
    6.3299587250e+01   -8.1379497051e-01
    6.3399547577e+01   -8.1774300337e-01
    6.3499572754e+01   -8.2171398401e-01
    6.3599555969e+01   -8.2570999861e-01
    6.3699588776e+01   -8.2972800732e-01
    6.3799549103e+01   -8.3375799656e-01
    6.3899539948e+01   -8.3780199289e-01
    6.3999588013e+01   -8.4185397625e-01
    6.4099540710e+01   -8.4591001272e-01
    6.4199569702e+01   -8.4997898340e-01
    6.4299560547e+01   -8.5405802727e-01
    6.4399559021e+01   -8.5815399885e-01
    6.4499580383e+01   -8.6226999760e-01
    6.4599548340e+01   -8.6640298367e-01
    6.4699569702e+01   -8.7055498362e-01
    6.4799568176e+01   -8.7471997738e-01
    6.4899559021e+01   -8.7890601158e-01
    6.4999549866e+01   -8.8311201334e-01
    6.5099555969e+01   -8.8734400272e-01
    6.5199554443e+01   -8.9159899950e-01
    6.5299545288e+01   -8.9587402344e-01
    6.5399528503e+01   -9.0015798807e-01
    6.5499534607e+01   -9.0445798635e-01
    6.5599548340e+01   -9.0876400471e-01
    6.5699523926e+01   -9.1307902336e-01
    6.5799530029e+01   -9.1741502285e-01
    6.5899536133e+01   -9.2177200317e-01
    6.5999542236e+01   -9.2615300417e-01
    6.6099525452e+01   -9.3055099249e-01
    6.6199531555e+01   -9.3496102095e-01
    6.6299537659e+01   -9.3938297033e-01
    6.6399520874e+01   -9.4381099939e-01
    6.6499534607e+01   -9.4824802876e-01
    6.6599533081e+01   -9.5270401239e-01
    6.6699516296e+01   -9.5718002319e-01
    6.6799514771e+01   -9.6167999506e-01
    6.6899497986e+01   -9.6620202065e-01
    6.6999519348e+01   -9.7074401379e-01
    6.7099494934e+01   -9.7529900074e-01
    6.7199516296e+01   -9.7987002134e-01
    6.7299545288e+01   -9.8445600271e-01
    6.7399536133e+01   -9.8905897141e-01
    6.7499534607e+01   -9.9367100000e-01
    6.7599494934e+01   -9.9828797579e-01
    6.7699523926e+01   -1.0029100180e+00
    6.7799491882e+01   -1.0075399876e+00
    6.7899528503e+01   -1.0121699572e+00
    6.7999496460e+01   -1.0168100595e+00
    6.8099494934e+01   -1.0214600563e+00
    6.8199531555e+01   -1.0261299610e+00
    6.8299507141e+01   -1.0308099985e+00
    6.8399497986e+01   -1.0355099440e+00
    6.8499481201e+01   -1.0402200222e+00
    6.8599517822e+01   -1.0449399948e+00
    6.8699485779e+01   -1.0496599674e+00
    6.8799491882e+01   -1.0543899536e+00
    6.8899482727e+01   -1.0591299534e+00
    6.8999511719e+01   -1.0638699532e+00
    6.9099487305e+01   -1.0686299801e+00
    6.9199485779e+01   -1.0733900070e+00
    6.9299499512e+01   -1.0781500340e+00
    6.9399482727e+01   -1.0829199553e+00
    6.9499458313e+01   -1.0877000093e+00
    6.9599494934e+01   -1.0924899578e+00
    6.9699470520e+01   -1.0972900391e+00
    6.9799484253e+01   -1.1021000147e+00
    6.9899482727e+01   -1.1069099903e+00
    6.9999481201e+01   -1.1117299795e+00
    7.0099487305e+01   -1.1165599823e+00
    7.0199455261e+01   -1.1213999987e+00
    7.0299499512e+01   -1.1262500286e+00
    7.0399452209e+01   -1.1311199665e+00
    7.0499488831e+01   -1.1359900236e+00
    7.0599441528e+01   -1.1408699751e+00
    7.0699470520e+01   -1.1457600594e+00
    7.0799446106e+01   -1.1506400108e+00
    7.0899482727e+01   -1.1555199623e+00
    7.0999481201e+01   -1.1604000330e+00
    7.1099456787e+01   -1.1652799845e+00
    7.1199447632e+01   -1.1701699495e+00
    7.1299430847e+01   -1.1750899553e+00
    7.1399467468e+01   -1.1800299883e+00
    7.1499427795e+01   -1.1849900484e+00
    7.1599456787e+01   -1.1899700165e+00
    7.1699462891e+01   -1.1949499846e+00
    7.1799430847e+01   -1.1999399662e+00
    7.1899452209e+01   -1.2049299479e+00
    7.1999465942e+01   -1.2099399567e+00
    7.2099418640e+01   -1.2149499655e+00
    7.2199432373e+01   -1.2199699879e+00
    7.2299461365e+01   -1.2249799967e+00
    7.2399459839e+01   -1.2300100327e+00
    7.2499458313e+01   -1.2350499630e+00
    7.2599411011e+01   -1.2401000261e+00
    7.2699409485e+01   -1.2451800108e+00
    7.2799415588e+01   -1.2502900362e+00
    7.2899436951e+01   -1.2554299831e+00
    7.2999443054e+01   -1.2605899572e+00
    7.3099418640e+01   -1.2657599449e+00
    7.3199409485e+01   -1.2709300518e+00
    7.3299407959e+01   -1.2761100531e+00
    7.3399421692e+01   -1.2813199759e+00
    7.3499420166e+01   -1.2865400314e+00
    7.3599449158e+01   -1.2918000221e+00
    7.3699409485e+01   -1.2970800400e+00
    7.3799430847e+01   -1.3023799658e+00
    7.3899414062e+01   -1.3077000380e+00
    7.3999435425e+01   -1.3130300045e+00
    7.4099388123e+01   -1.3183599710e+00
    7.4199432373e+01   -1.3237099648e+00
    7.4299423218e+01   -1.3290799856e+00
    7.4399414062e+01   -1.3344600201e+00
    7.4499397278e+01   -1.3398599625e+00
    7.4599395752e+01   -1.3452899456e+00
    7.4699401855e+01   -1.3507299423e+00
    7.4799407959e+01   -1.3561899662e+00
    7.4899383545e+01   -1.3616700172e+00
    7.4999374390e+01   -1.3671799898e+00
    7.5099372864e+01   -1.3727099895e+00
    7.5199401855e+01   -1.3782800436e+00
    7.5299400330e+01   -1.3838599920e+00
    7.5399368286e+01   -1.3894599676e+00
    7.5499412537e+01   -1.3950699568e+00
    7.5599403381e+01   -1.4006999731e+00
    7.5699401855e+01   -1.4063400030e+00
    7.5799392700e+01   -1.4119999409e+00
    7.5899391174e+01   -1.4176900387e+00
    7.5999374390e+01   -1.4234000444e+00
    7.6099372864e+01   -1.4291299582e+00
    7.6199371338e+01   -1.4348800182e+00
    7.6299362183e+01   -1.4406399727e+00
    7.6399375916e+01   -1.4464099407e+00
    7.6499389648e+01   -1.4521900415e+00
    7.6599357605e+01   -1.4579800367e+00
    7.6699348450e+01   -1.4637999535e+00
    7.6799377441e+01   -1.4696500301e+00
    7.6899375916e+01   -1.4755200148e+00
    7.6999374390e+01   -1.4814200401e+00
    7.7099380493e+01   -1.4873299599e+00
    7.7199340820e+01   -1.4932500124e+00
    7.7299354553e+01   -1.4992100000e+00
    7.7399383545e+01   -1.5051699877e+00
    7.7499359131e+01   -1.5111500025e+00
    7.7599380493e+01   -1.5171400309e+00
    7.7699363708e+01   -1.5231300592e+00
    7.7799369812e+01   -1.5291299820e+00
    7.7899368286e+01   -1.5351400375e+00
    7.7999328613e+01   -1.5411499739e+00
    7.8099365234e+01   -1.5471800566e+00
    7.8199363708e+01   -1.5532200336e+00
    7.8299369812e+01   -1.5592900515e+00
    7.8399345398e+01   -1.5653599501e+00
    7.8499320984e+01   -1.5714499950e+00
    7.8599342346e+01   -1.5775500536e+00
    7.8699363708e+01   -1.5836600065e+00
    7.8799362183e+01   -1.5897799730e+00
    7.8899337769e+01   -1.5959000587e+00
    7.8999343872e+01   -1.6020300388e+00
    7.9099319458e+01   -1.6081800461e+00
    7.9199348450e+01   -1.6143300533e+00
    7.9299324036e+01   -1.6204899549e+00
    7.9399360657e+01   -1.6266599894e+00
    7.9499328613e+01   -1.6328400373e+00
    7.9599342346e+01   -1.6390199661e+00
    7.9699325562e+01   -1.6452200413e+00
    7.9799316406e+01   -1.6514199972e+00
    7.9899345398e+01   -1.6576299667e+00
    7.9999305725e+01   -1.6638400555e+00
    8.0099342346e+01   -1.6700700521e+00
    8.0199333191e+01   -1.6763099432e+00
    8.0299293518e+01   -1.6825599670e+00
    8.0399330139e+01   -1.6888200045e+00
    8.0499305725e+01   -1.6950999498e+00
    8.0599334717e+01   -1.7013800144e+00
    8.0699310303e+01   -1.7076699734e+00
    8.0799316406e+01   -1.7139500380e+00
    8.0899307251e+01   -1.7202299833e+00
    8.0999328613e+01   -1.7265100479e+00
    8.1099319458e+01   -1.7327899933e+00
    8.1199317932e+01   -1.7390899658e+00
    8.1299308777e+01   -1.7454099655e+00
    8.1399307251e+01   -1.7517499924e+00
    8.1499328613e+01   -1.7581100464e+00
    8.1599304199e+01   -1.7644900084e+00
    8.1699287415e+01   -1.7708699703e+00
    8.1799285889e+01   -1.7772500515e+00
    8.1899276733e+01   -1.7836500406e+00
    8.1999313354e+01   -1.7900500298e+00
    8.2099304199e+01   -1.7964600325e+00
    8.2199279785e+01   -1.8028700352e+00
    8.2299285889e+01   -1.8092800379e+00
    8.2399307251e+01   -1.8157000542e+00
    8.2499305725e+01   -1.8221399784e+00
    8.2599281311e+01   -1.8285900354e+00
    8.2699295044e+01   -1.8350800276e+00
    8.2799285889e+01   -1.8415900469e+00
    8.2899284363e+01   -1.8481299877e+00
    8.2999282837e+01   -1.8546899557e+00
    8.3099266052e+01   -1.8612600565e+00
    8.3199256897e+01   -1.8678300381e+00
    8.3299255371e+01   -1.8744000196e+00
    8.3399284363e+01   -1.8810000420e+00
    8.3499290466e+01   -1.8876299858e+00
    8.3599258423e+01   -1.8942799568e+00
    8.3699249268e+01   -1.9009599686e+00
    8.3799255371e+01   -1.9076499939e+00
    8.3899253845e+01   -1.9143600464e+00
    8.3999267578e+01   -1.9210900068e+00
    8.4099250793e+01   -1.9278199673e+00
    8.4199279785e+01   -1.9345699549e+00
    8.4299278259e+01   -1.9413299561e+00
    8.4399246216e+01   -1.9481099844e+00
    8.4499252319e+01   -1.9549100399e+00
    8.4599258423e+01   -1.9617300034e+00
    8.4699241638e+01   -1.9685699940e+00
    8.4799263000e+01   -1.9754199982e+00
    8.4899230957e+01   -1.9823000431e+00
    8.4999267578e+01   -1.9891999960e+00
    8.5099235535e+01   -1.9961299896e+00
    8.5199218750e+01   -2.0030798912e+00
    8.5299270630e+01   -2.0100600719e+00
    8.5399238586e+01   -2.0170500278e+00
    8.5499221802e+01   -2.0240499973e+00
    8.5599266052e+01   -2.0310699940e+00
    8.5699218750e+01   -2.0380899906e+00
    8.5799255371e+01   -2.0451500416e+00
    8.5899230957e+01   -2.0522201061e+00
    8.5999252319e+01   -2.0593299866e+00
    8.6099250793e+01   -2.0664598942e+00
    8.6199241638e+01   -2.0735900402e+00
    8.6299201965e+01   -2.0807399750e+00
    8.6399223328e+01   -2.0878999233e+00
    8.6499237061e+01   -2.0950698853e+00
    8.6599212646e+01   -2.1022500992e+00
    8.6699195862e+01   -2.1094601154e+00
    8.6799232483e+01   -2.1166899204e+00
    8.6899223328e+01   -2.1239500046e+00
    8.6999206543e+01   -2.1312301159e+00
    8.7099243164e+01   -2.1385300159e+00
    8.7199203491e+01   -2.1458299160e+00
    8.7299224854e+01   -2.1531701088e+00
    8.7399185181e+01   -2.1605100632e+00
    8.7499229431e+01   -2.1678700447e+00
    8.7599227905e+01   -2.1752400398e+00
    8.7699218750e+01   -2.1826200485e+00
    8.7799224854e+01   -2.1899900436e+00
    8.7899185181e+01   -2.1973800659e+00
    8.7999221802e+01   -2.2047700882e+00
    8.8099212646e+01   -2.2121698856e+00
    8.8199195862e+01   -2.2195799351e+00
    8.8299171448e+01   -2.2270200253e+00
    8.8399208069e+01   -2.2344601154e+00
    8.8499183655e+01   -2.2419199944e+00
    8.8599166870e+01   -2.2493801117e+00
    8.8699211121e+01   -2.2568500042e+00
    8.8799171448e+01   -2.2643299103e+00
    8.8899185181e+01   -2.2718100548e+00
    8.8999160767e+01   -2.2792999744e+00
    8.9099159241e+01   -2.2867999077e+00
    8.9199157715e+01   -2.2943100929e+00
    8.9299163818e+01   -2.3018200397e+00
    8.9399192810e+01   -2.3093500137e+00
    8.9499198914e+01   -2.3168699741e+00
    8.9599166870e+01   -2.3244099617e+00
    8.9699180603e+01   -2.3319499493e+00
    8.9799156189e+01   -2.3394899368e+00
    8.9899185181e+01   -2.3470399380e+00
    8.9999168396e+01   -2.3545899391e+00
    9.0099151611e+01   -2.3621499538e+00
    9.0199172974e+01   -2.3697299957e+00
    9.0299179077e+01   -2.3773100376e+00
    9.0399139404e+01   -2.3849000931e+00
    9.0499183655e+01   -2.3925099373e+00
    9.0599143982e+01   -2.4001100063e+00
    9.0699142456e+01   -2.4077301025e+00
    9.0799156189e+01   -2.4153399467e+00
    9.0899139404e+01   -2.4229300022e+00
    9.0999168396e+01   -2.4305300713e+00
    9.1099174500e+01   -2.4381198883e+00
    9.1199127197e+01   -2.4457199574e+00
    9.1299171448e+01   -2.4533600807e+00
    9.1399139404e+01   -2.4610099792e+00
    9.1499168396e+01   -2.4686899185e+00
    9.1599166870e+01   -2.4763801098e+00
    9.1699142456e+01   -2.4840800762e+00
    9.1799125671e+01   -2.4917800426e+00
    9.1899154663e+01   -2.4994900227e+00
    9.1999153137e+01   -2.5072000027e+00
    9.2099143982e+01   -2.5149099827e+00
    9.2199119568e+01   -2.5226299763e+00
    9.2299148560e+01   -2.5303599834e+00
    9.2399139404e+01   -2.5380899906e+00
    9.2499153137e+01   -2.5458500385e+00
    9.2599121094e+01   -2.5536201000e+00
    9.2699157715e+01   -2.5614299774e+00
    9.2799110413e+01   -2.5692698956e+00
    9.2899139404e+01   -2.5771400928e+00
    9.2999130249e+01   -2.5850300789e+00
    9.3099121094e+01   -2.5929300785e+00
    9.3199134827e+01   -2.6008400917e+00
    9.3299125671e+01   -2.6087501049e+00
    9.3399093628e+01   -2.6166899204e+00
    9.3499107361e+01   -2.6246500015e+00
    9.3599113464e+01   -2.6326498985e+00
    9.3699134827e+01   -2.6406900883e+00
    9.3799087524e+01   -2.6487400532e+00
    9.3899116516e+01   -2.6568200588e+00
    9.3999114990e+01   -2.6649100780e+00
    9.4099082947e+01   -2.6730198860e+00
    9.4199111938e+01   -2.6811499596e+00
    9.4299102783e+01   -2.6892900467e+00
    9.4399124146e+01   -2.6974599361e+00
    9.4499122620e+01   -2.7056500912e+00
    9.4599075317e+01   -2.7138600349e+00
    9.4699111938e+01   -2.7221100330e+00
    9.4799095154e+01   -2.7303700447e+00
    9.4899108887e+01   -2.7386701107e+00
    9.4999092102e+01   -2.7469999790e+00
    9.5099082947e+01   -2.7553598881e+00
    9.5199111938e+01   -2.7637500763e+00
    9.5299110413e+01   -2.7721700668e+00
    9.5399093628e+01   -2.7806100845e+00
    9.5499084473e+01   -2.7890698910e+00
    9.5599067688e+01   -2.7975499630e+00
    9.5699066162e+01   -2.8060500622e+00
    9.5799087524e+01   -2.8145899773e+00
    9.5899055481e+01   -2.8231499195e+00
    9.5999053955e+01   -2.8317599297e+00
    9.6099098206e+01   -2.8403999805e+00
    9.6199073792e+01   -2.8490500450e+00
    9.6299064636e+01   -2.8577299118e+00
    9.6399047852e+01   -2.8664200306e+00
    9.6499092102e+01   -2.8751299381e+00
    9.6599067688e+01   -2.8838601112e+00
    9.6699096680e+01   -2.8926301003e+00
    9.6799072266e+01   -2.9014298916e+00
    9.6899040222e+01   -2.9102599621e+00
    9.6999069214e+01   -2.9191300869e+00
    9.7099060059e+01   -2.9280200005e+00
    9.7199050903e+01   -2.9369299412e+00
    9.7299049377e+01   -2.9458699226e+00
    9.7399040222e+01   -2.9548399448e+00
    9.7499069214e+01   -2.9638400078e+00
    9.7599044800e+01   -2.9728500843e+00
    9.7699035645e+01   -2.9818699360e+00
    9.7799072266e+01   -2.9909000397e+00
    9.7899047852e+01   -2.9999399185e+00
    9.7999061584e+01   -3.0090000629e+00
    9.8099075317e+01   -3.0180799961e+00
    9.8199073792e+01   -3.0271799564e+00
    9.8299034119e+01   -3.0363099575e+00
    9.8399024963e+01   -3.0454599857e+00
    9.8499023438e+01   -3.0546400547e+00
    9.8599014282e+01   -3.0638198853e+00
    9.8699043274e+01   -3.0730199814e+00
    9.8799011230e+01   -3.0822300911e+00
    9.8899017334e+01   -3.0914599895e+00
    9.8999015808e+01   -3.1006999016e+00
    9.9099052429e+01   -3.1099700928e+00
    9.9199012756e+01   -3.1192500591e+00
    9.9299049377e+01   -3.1285500526e+00
    9.9399002075e+01   -3.1378500462e+00
    9.9499053955e+01   -3.1471800804e+00
    9.9599021912e+01   -3.1565101147e+00
    9.9699043274e+01   -3.1658699512e+00
    9.9799018860e+01   -3.1752300262e+00
    9.9899032593e+01   -3.1846199036e+00
    9.9999023438e+01   -3.1940100193e+00
    1.0009902954e+02   -3.2034299374e+00
    1.0019899750e+02   -3.2128500938e+00
    1.0029901123e+02   -3.2223000526e+00
    1.0039903259e+02   -3.2317700386e+00
    1.0049900055e+02   -3.2412500381e+00
    1.0059899139e+02   -3.2507600784e+00
    1.0069902802e+02   -3.2602798939e+00
    1.0079902649e+02   -3.2697999477e+00
    1.0089900208e+02   -3.2793200016e+00
    1.0099900818e+02   -3.2888400555e+00
    1.0109902191e+02   -3.2983601093e+00
    1.0119898224e+02   -3.3078999519e+00
    1.0129901123e+02   -3.3174800873e+00
    1.0139897919e+02   -3.3271000385e+00
    1.0149900055e+02   -3.3367600441e+00
    1.0159899902e+02   -3.3464500904e+00
    1.0169902039e+02   -3.3561599255e+00
    1.0179900360e+02   -3.3658800125e+00
    1.0189897156e+02   -3.3756000996e+00
    1.0199900818e+02   -3.3853499889e+00
    1.0209900665e+02   -3.3951098919e+00
    1.0219898224e+02   -3.4048900604e+00
    1.0229900360e+02   -3.4146900177e+00
    1.0239900208e+02   -3.4245100021e+00
    1.0249894714e+02   -3.4343600273e+00
    1.0259899139e+02   -3.4442501068e+00
    1.0269898987e+02   -3.4541800022e+00
    1.0279900360e+02   -3.4641699791e+00
    1.0289897919e+02   -3.4741899967e+00
    1.0299897766e+02   -3.4842500687e+00
    1.0309893799e+02   -3.4943399429e+00
    1.0319896698e+02   -3.5044500828e+00
    1.0329898071e+02   -3.5145800114e+00
    1.0339898682e+02   -3.5247399807e+00
    1.0349894714e+02   -3.5349400043e+00
    1.0359893799e+02   -3.5451800823e+00
    1.0369895172e+02   -3.5554900169e+00
    1.0379898071e+02   -3.5658299923e+00
    1.0389894104e+02   -3.5762200356e+00
    1.0399894714e+02   -3.5866398811e+00
    1.0409895325e+02   -3.5970900059e+00
    1.0419898224e+02   -3.6075699329e+00
    1.0429895782e+02   -3.6180799007e+00
    1.0439893341e+02   -3.6286199093e+00
    1.0449893951e+02   -3.6392199993e+00
    1.0459896088e+02   -3.6498599052e+00
    1.0469893646e+02   -3.6605300903e+00
    1.0479891968e+02   -3.6712400913e+00
    1.0489893341e+02   -3.6819999218e+00
    1.0499897003e+02   -3.6928000450e+00
    1.0509896851e+02   -3.7036600113e+00
    1.0519892120e+02   -3.7145600319e+00
    1.0529895782e+02   -3.7255098820e+00
    1.0539893341e+02   -3.7364799976e+00
    1.0549891663e+02   -3.7474999428e+00
    1.0559893036e+02   -3.7585499287e+00
    1.0569895172e+02   -3.7696399689e+00
    1.0579892731e+02   -3.7807800770e+00
    1.0589893341e+02   -3.7919700146e+00
    1.0599893188e+02   -3.8032200336e+00
    1.0609892273e+02   -3.8145101070e+00
    1.0619892883e+02   -3.8258500099e+00
    1.0629894257e+02   -3.8372199535e+00
    1.0639891815e+02   -3.8486099243e+00
    1.0649893951e+02   -3.8600399494e+00
    1.0659892273e+02   -3.8715100288e+00
    1.0669892120e+02   -3.8830299377e+00
    1.0679889679e+02   -3.8945999146e+00
    1.0689891815e+02   -3.9062199593e+00
    1.0699889374e+02   -3.9178900719e+00
    1.0709890747e+02   -3.9295899868e+00
    1.0719891357e+02   -3.9413399696e+00
    1.0729888153e+02   -3.9531300068e+00
    1.0739890289e+02   -3.9649701118e+00
    1.0749890137e+02   -3.9768400192e+00
    1.0759889984e+02   -3.9887399673e+00
    1.0769889069e+02   -4.0006699562e+00
    1.0779891205e+02   -4.0126199722e+00
    1.0789887238e+02   -4.0245900154e+00
    1.0799889374e+02   -4.0365900993e+00
    1.0809887695e+02   -4.0486202240e+00
    1.0819888306e+02   -4.0606999397e+00
    1.0829888916e+02   -4.0728201866e+00
    1.0839885712e+02   -4.0849699974e+00
    1.0849890900e+02   -4.0971598625e+00
    1.0859886932e+02   -4.1093702316e+00
    1.0869889069e+02   -4.1216001511e+00
    1.0879888153e+02   -4.1338601112e+00
    1.0889891052e+02   -4.1461601257e+00
    1.0899886322e+02   -4.1584701538e+00
    1.0909886169e+02   -4.1708202362e+00
    1.0919888306e+02   -4.1831998825e+00
    1.0929886627e+02   -4.1956000328e+00
    1.0939888000e+02   -4.2080302238e+00
    1.0949886322e+02   -4.2204799652e+00
    1.0959884644e+02   -4.2329502106e+00
    1.0969889069e+02   -4.2454600334e+00
    1.0979888916e+02   -4.2579998970e+00
    1.0989888763e+02   -4.2705597878e+00
    1.0999887085e+02   -4.2831401825e+00
    1.1009889221e+02   -4.2957501411e+00
    1.1019885254e+02   -4.3083801270e+00
    1.1029885864e+02   -4.3210501671e+00
    1.1039884949e+02   -4.3337497711e+00
    1.1049887848e+02   -4.3464698792e+00
    1.1059884644e+02   -4.3592300415e+00
    1.1069886017e+02   -4.3720197678e+00
    1.1079885101e+02   -4.3848199844e+00
    1.1089884186e+02   -4.3976101875e+00
    1.1099884033e+02   -4.4104099274e+00
    1.1109886169e+02   -4.4232201576e+00
    1.1119882965e+02   -4.4360699654e+00
    1.1129882050e+02   -4.4489698410e+00
    1.1139884186e+02   -4.4619297981e+00
    1.1149884796e+02   -4.4749398232e+00
    1.1159883118e+02   -4.4879899025e+00
    1.1169885254e+02   -4.5010700226e+00
    1.1179886627e+02   -4.5141601562e+00
    1.1189882660e+02   -4.5272698402e+00
    1.1199881744e+02   -4.5404200554e+00
    1.1209880829e+02   -4.5535898209e+00
    1.1219880676e+02   -4.5668001175e+00
    1.1229885101e+02   -4.5800399780e+00
    1.1239884186e+02   -4.5932998657e+00
    1.1249880219e+02   -4.6066098213e+00
    1.1259883881e+02   -4.6199698448e+00
    1.1269882965e+02   -4.6333799362e+00
    1.1279884338e+02   -4.6468701363e+00
    1.1289881134e+02   -4.6603999138e+00
    1.1299884033e+02   -4.6740098000e+00
    1.1309880829e+02   -4.6876401901e+00
    1.1319882202e+02   -4.7013001442e+00
    1.1329878998e+02   -4.7149801254e+00
    1.1339878845e+02   -4.7287001610e+00
    1.1349884033e+02   -4.7424798012e+00
    1.1359879303e+02   -4.7563199997e+00
    1.1369882202e+02   -4.7702398300e+00
    1.1379881287e+02   -4.7842202187e+00
    1.1389880371e+02   -4.7982501984e+00
    1.1399880219e+02   -4.8123202324e+00
    1.1409879303e+02   -4.8264298439e+00
    1.1419882965e+02   -4.8405900002e+00
    1.1429879761e+02   -4.8547801971e+00
    1.1439880371e+02   -4.8690299988e+00
    1.1449880981e+02   -4.8833398819e+00
    1.1459877777e+02   -4.8976998329e+00
    1.1469877625e+02   -4.9120998383e+00
    1.1479879761e+02   -4.9265599251e+00
    1.1489877319e+02   -4.9410700798e+00
    1.1499877167e+02   -4.9556298256e+00
    1.1509879303e+02   -4.9702601433e+00
    1.1519876099e+02   -4.9849500656e+00
    1.1529878998e+02   -4.9997000694e+00
    1.1539875793e+02   -5.0144901276e+00
    1.1549878693e+02   -5.0293297768e+00
    1.1559877014e+02   -5.0442099571e+00
    1.1569879913e+02   -5.0591301918e+00
    1.1579876709e+02   -5.0741200447e+00
    1.1589878082e+02   -5.0891699791e+00
    1.1599878693e+02   -5.1042900085e+00
    1.1609876251e+02   -5.1194701195e+00
    1.1619876862e+02   -5.1346998215e+00
    1.1629878235e+02   -5.1499800682e+00
    1.1639877319e+02   -5.1652798653e+00
    1.1649877167e+02   -5.1806302071e+00
    1.1659876251e+02   -5.1960201263e+00
    1.1669873810e+02   -5.2114801407e+00
    1.1679875183e+02   -5.2270002365e+00
    1.1689875793e+02   -5.2425699234e+00
    1.1699874878e+02   -5.2582001686e+00
    1.1709877777e+02   -5.2738900185e+00
    1.1719873047e+02   -5.2896099091e+00
    1.1729876709e+02   -5.3053898811e+00
    1.1739875031e+02   -5.3212299347e+00
    1.1749877167e+02   -5.3371100426e+00
    1.1759873199e+02   -5.3530101776e+00
    1.1769876099e+02   -5.3689498901e+00
    1.1779875183e+02   -5.3849201202e+00
    1.1789875793e+02   -5.4009199142e+00
    1.1799873352e+02   -5.4169402122e+00
    1.1809876251e+02   -5.4330101013e+00
    1.1819875336e+02   -5.4491300583e+00
    1.1829872894e+02   -5.4652900696e+00
    1.1839875031e+02   -5.4815101624e+00
    1.1849875641e+02   -5.4977598190e+00
    1.1859874725e+02   -5.5140299797e+00
    1.1869872284e+02   -5.5303201675e+00
    1.1879873657e+02   -5.5466599464e+00
    1.1889871979e+02   -5.5630102158e+00
    1.1899871063e+02   -5.5794000626e+00
    1.1909873199e+02   -5.5958399773e+00
    1.1919870758e+02   -5.6122999191e+00
    1.1929871368e+02   -5.6287798882e+00
    1.1939875031e+02   -5.6452999115e+00
    1.1949871063e+02   -5.6618399620e+00
    1.1959871674e+02   -5.6784200668e+00
    1.1969869232e+02   -5.6950201988e+00
    1.1979871368e+02   -5.7116699219e+00
    1.1989874268e+02   -5.7283401489e+00
    1.1999874115e+02   -5.7450399399e+00
    1.2009868622e+02   -5.7617602348e+00
    1.2019869232e+02   -5.7785201073e+00
    1.2029868317e+02   -5.7953100204e+00
    1.2039869690e+02   -5.8121299744e+00
    1.2049871063e+02   -5.8289899826e+00
    1.2059870148e+02   -5.8458900452e+00
    1.2069872284e+02   -5.8628201485e+00
    1.2079869080e+02   -5.8797497749e+00
    1.2089871216e+02   -5.8966999054e+00
    1.2099870300e+02   -5.9136400223e+00
    1.2109870911e+02   -5.9306001663e+00
    1.2119867706e+02   -5.9476199150e+00
    1.2129868317e+02   -5.9647002220e+00
    1.2139865875e+02   -5.9818601608e+00
    1.2149868011e+02   -5.9991002083e+00
    1.2159867096e+02   -6.0163898468e+00
    1.2169869232e+02   -6.0337300301e+00
    1.2179866791e+02   -6.0510997772e+00
    1.2189868164e+02   -6.0685200691e+00
    1.2199868011e+02   -6.0859799385e+00
    1.2209867859e+02   -6.1034798622e+00
    1.2219869995e+02   -6.1210398674e+00
    1.2229868317e+02   -6.1386198997e+00
    1.2239865875e+02   -6.1562500000e+00
    1.2249867249e+02   -6.1739301682e+00
    1.2259866333e+02   -6.1916699409e+00
    1.2269864655e+02   -6.2094798088e+00
    1.2279865265e+02   -6.2273797989e+00
    1.2289865875e+02   -6.2453498840e+00
    1.2299868774e+02   -6.2633900642e+00
    1.2309866333e+02   -6.2814798355e+00
    1.2319866943e+02   -6.2996101379e+00
    1.2329866791e+02   -6.3177800179e+00
    1.2339865112e+02   -6.3360099792e+00
    1.2349868774e+02   -6.3543500900e+00
    1.2359864044e+02   -6.3727698326e+00
    1.2369863892e+02   -6.3913102150e+00
    1.2379862976e+02   -6.4099397659e+00
    1.2389866638e+02   -6.4286799431e+00
    1.2399867249e+02   -6.4474902153e+00
    1.2409864807e+02   -6.4663701057e+00
    1.2419863892e+02   -6.4853100777e+00
    1.2429863739e+02   -6.5043301582e+00
    1.2439864349e+02   -6.5234298706e+00
    1.2449864960e+02   -6.5426001549e+00
    1.2459866333e+02   -6.5618600845e+00
    1.2469866180e+02   -6.5811800957e+00
    1.2479860687e+02   -6.6005501747e+00
    1.2489864349e+02   -6.6200199127e+00
    1.2499861908e+02   -6.6395702362e+00
    1.2509860992e+02   -6.6592102051e+00
    1.2519863129e+02   -6.6789598465e+00
    1.2529863739e+02   -6.6987900734e+00
    1.2539864349e+02   -6.7187099457e+00
    1.2549861145e+02   -6.7386898994e+00
    1.2559861755e+02   -6.7587599754e+00
    1.2569860840e+02   -6.7789101601e+00
    1.2579863739e+02   -6.7991600037e+00
    1.2589859772e+02   -6.8194999695e+00
    1.2599859619e+02   -6.8399600983e+00
    1.2609860229e+02   -6.8605198860e+00
    1.2619863129e+02   -6.8811697960e+00
    1.2629859161e+02   -6.9018697739e+00
    1.2639859772e+02   -6.9226598740e+00
    1.2649858856e+02   -6.9435200691e+00
    1.2659860229e+02   -6.9644699097e+00
    1.2669857788e+02   -6.9855298996e+00
    1.2679862976e+02   -7.0067100525e+00
    1.2689858246e+02   -7.0279698372e+00
    1.2699862671e+02   -7.0493698120e+00
    1.2709860992e+02   -7.0708398819e+00
    1.2719857788e+02   -7.0924100876e+00
    1.2729859161e+02   -7.1140899658e+00
    1.2739859009e+02   -7.1358799934e+00
    1.2749858856e+02   -7.1577501297e+00
    1.2759860992e+02   -7.1797199249e+00
    1.2769857025e+02   -7.2017498016e+00
    1.2779862213e+02   -7.2238798141e+00
    1.2789858246e+02   -7.2460598946e+00
    1.2799859619e+02   -7.2683401108e+00
    1.2809858704e+02   -7.2907099724e+00
    1.2819859314e+02   -7.3131999969e+00
    1.2829858398e+02   -7.3358001709e+00
    1.2839860535e+02   -7.3585100174e+00
    1.2849859619e+02   -7.3813300133e+00
    1.2859858704e+02   -7.4042401314e+00
    1.2869862366e+02   -7.4272599220e+00
    1.2879862976e+02   -7.4503698349e+00
    1.2889865112e+02   -7.4735698700e+00
    1.2899861145e+02   -7.4968500137e+00
    1.2909866333e+02   -7.5202498436e+00
    1.2919865417e+02   -7.5437297821e+00
    1.2929866028e+02   -7.5672798157e+00
    1.2939866638e+02   -7.5909099579e+00
    1.2949868774e+02   -7.6146202087e+00
    1.2959864807e+02   -7.6383900642e+00
    1.2969868469e+02   -7.6622700691e+00
    1.2979867554e+02   -7.6862001419e+00
    1.2989869690e+02   -7.7102198601e+00
    1.2999870300e+02   -7.7342901230e+00
    1.3009872437e+02   -7.7584500313e+00
    1.3019871521e+02   -7.7826800346e+00
    1.3029873657e+02   -7.8069901466e+00
    1.3039871216e+02   -7.8313798904e+00
    1.3049873352e+02   -7.8558697701e+00
    1.3059875488e+02   -7.8804597855e+00
    1.3069874573e+02   -7.9051399231e+00
    1.3079876709e+02   -7.9298701286e+00
    1.3089877319e+02   -7.9546499252e+00
    1.3099873352e+02   -7.9794797897e+00
    1.3109875488e+02   -8.0043697357e+00
    1.3119879150e+02   -8.0293502808e+00
    1.3129879761e+02   -8.0544300079e+00
    1.3139877319e+02   -8.0796003342e+00
    1.3149879456e+02   -8.1048803329e+00
    1.3159877014e+02   -8.1302204132e+00
    1.3169879150e+02   -8.1556301117e+00
    1.3179881287e+02   -8.1810903549e+00
    1.3189883423e+02   -8.2066001892e+00
    1.3199879456e+02   -8.2321701050e+00
    1.3209880066e+02   -8.2578201294e+00
    1.3219883728e+02   -8.2835397720e+00
    1.3229884338e+02   -8.3093204498e+00
    1.3239886475e+02   -8.3351697922e+00
    1.3249885559e+02   -8.3611001968e+00
    1.3259884644e+02   -8.3871002197e+00
    1.3269886780e+02   -8.4132204056e+00
    1.3279887390e+02   -8.4394102097e+00
    1.3289889526e+02   -8.4656896591e+00
    1.3299887085e+02   -8.4920196533e+00
    1.3309886169e+02   -8.5183696747e+00
    1.3319886780e+02   -8.5447502136e+00
    1.3329891968e+02   -8.5711297989e+00
    1.3339888000e+02   -8.5975303650e+00
    1.3349891663e+02   -8.6240100861e+00
    1.3359889221e+02   -8.6505298615e+00
    1.3369892883e+02   -8.6771402359e+00
    1.3379895020e+02   -8.7038097382e+00
    1.3389889526e+02   -8.7305202484e+00
    1.3399891663e+02   -8.7573099136e+00
    1.3409895325e+02   -8.7841396332e+00
    1.3419894409e+02   -8.8109998703e+00
    1.3429893494e+02   -8.8378896713e+00
    1.3439897156e+02   -8.8648395538e+00
    1.3449896240e+02   -8.8918199539e+00
    1.3459898376e+02   -8.9188299179e+00
    1.3469897461e+02   -8.9458503723e+00
    1.3479896545e+02   -8.9728803635e+00
    1.3489900208e+02   -8.9999399185e+00
    1.3499899292e+02   -9.0270204544e+00
    1.3509898376e+02   -9.0541296005e+00
    1.3519903564e+02   -9.0812797546e+00
    1.3529902649e+02   -9.1084403992e+00
    1.3539900208e+02   -9.1356000900e+00
    1.3549900818e+02   -9.1627597809e+00
    1.3559902954e+02   -9.1899299622e+00
    1.3569906616e+02   -9.2171096802e+00
    1.3579904175e+02   -9.2442998886e+00
    1.3589903259e+02   -9.2715301514e+00
    1.3599902344e+02   -9.2987899780e+00
    1.3609906006e+02   -9.3260803223e+00
    1.3619906616e+02   -9.3533697128e+00
    1.3629907227e+02   -9.3806400299e+00
    1.3639907837e+02   -9.4078998566e+00
    1.3649908447e+02   -9.4351396561e+00
    1.3659910583e+02   -9.4623804092e+00
    1.3669911194e+02   -9.4896297455e+00
    1.3679910278e+02   -9.5168695450e+00
    1.3689913940e+02   -9.5441198349e+00
    1.3699909973e+02   -9.5713396072e+00
    1.3709910583e+02   -9.5985298157e+00
    1.3719914246e+02   -9.6257200241e+00
    1.3729911804e+02   -9.6528701782e+00
    1.3739913940e+02   -9.6800203323e+00
    1.3749914551e+02   -9.7071399689e+00
    1.3759915161e+02   -9.7342195511e+00
    1.3769914246e+02   -9.7612600327e+00
    1.3779916382e+02   -9.7882604599e+00
    1.3789916992e+02   -9.8152103424e+00
    1.3799919128e+02   -9.8421201706e+00
    1.3809918213e+02   -9.8690204620e+00
    1.3819920349e+02   -9.8958997726e+00
    1.3829920959e+02   -9.9227695465e+00
    1.3839918518e+02   -9.9496002197e+00
    1.3849920654e+02   -9.9763898849e+00
    1.3859921265e+02   -1.0003100395e+01
    1.3869923401e+02   -1.0029800415e+01
    1.3879925537e+02   -1.0056300163e+01
    1.3889923096e+02   -1.0082799911e+01
    1.3899923706e+02   -1.0109299660e+01
    1.3909922791e+02   -1.0135700226e+01
    1.3919926453e+02   -1.0161999702e+01
    1.3929924011e+02   -1.0188199997e+01
    1.3939926147e+02   -1.0214400291e+01
    1.3949928284e+02   -1.0240599632e+01
    1.3959925842e+02   -1.0266599655e+01
    1.3969927979e+02   -1.0292599678e+01
    1.3979927063e+02   -1.0318599701e+01
    1.3989929199e+02   -1.0344400406e+01
    1.3999929810e+02   -1.0370200157e+01
    1.4009931946e+02   -1.0395899773e+01
    1.4019932556e+02   -1.0421500206e+01
    1.4029933167e+02   -1.0446999550e+01
    1.4039932251e+02   -1.0472399712e+01
    1.4049931335e+02   -1.0497799873e+01
    1.4059933472e+02   -1.0522999763e+01
    1.4069937134e+02   -1.0548199654e+01
    1.4079934692e+02   -1.0573300362e+01
    1.4089938354e+02   -1.0598299980e+01
    1.4099935913e+02   -1.0623100281e+01
    1.4109938049e+02   -1.0647800446e+01
    1.4119938660e+02   -1.0672499657e+01
    1.4129939270e+02   -1.0697099686e+01
    1.4139935303e+02   -1.0721599579e+01
    1.4149938965e+02   -1.0746100426e+01
    1.4159939575e+02   -1.0770500183e+01
    1.4169938660e+02   -1.0794799805e+01
    1.4179939270e+02   -1.0819000244e+01
    1.4189942932e+02   -1.0843099594e+01
    1.4199942017e+02   -1.0867199898e+01
    1.4209945679e+02   -1.0891099930e+01
    1.4219946289e+02   -1.0914999962e+01
    1.4229945374e+02   -1.0938699722e+01
    1.4239944458e+02   -1.0962300301e+01
    1.4249945068e+02   -1.0985899925e+01
    1.4259944153e+02   -1.1009300232e+01
    1.4269946289e+02   -1.1032699585e+01
    1.4279948425e+02   -1.1055999756e+01
    1.4289950562e+02   -1.1079299927e+01
    1.4299948120e+02   -1.1102399826e+01
    1.4309950256e+02   -1.1125399590e+01
    1.4319952393e+02   -1.1148300171e+01
    1.4329948425e+02   -1.1171099663e+01
    1.4339950562e+02   -1.1193699837e+01
    1.4349952698e+02   -1.1216300011e+01
    1.4359951782e+02   -1.1238800049e+01
    1.4369955444e+02   -1.1261300087e+01
    1.4379951477e+02   -1.1283699989e+01
    1.4389956665e+02   -1.1306099892e+01
    1.4399957275e+02   -1.1328300476e+01
    1.4409956360e+02   -1.1350399971e+01
    1.4419955444e+02   -1.1372500420e+01
    1.4429954529e+02   -1.1394499779e+01
    1.4439958191e+02   -1.1416299820e+01
    1.4449957275e+02   -1.1438099861e+01
    1.4459960938e+02   -1.1459799767e+01
    1.4469956970e+02   -1.1481399536e+01
    1.4479959106e+02   -1.1502900124e+01
    1.4489961243e+02   -1.1524299622e+01
    1.4499963379e+02   -1.1545599937e+01
    1.4509960938e+02   -1.1566900253e+01
    1.4519964600e+02   -1.1588100433e+01
    1.4529963684e+02   -1.1609199524e+01
    1.4539962769e+02   -1.1630100250e+01
    1.4549961853e+02   -1.1651000023e+01
    1.4559965515e+02   -1.1671799660e+01
    1.4569961548e+02   -1.1692500114e+01
    1.4579963684e+02   -1.1713100433e+01
    1.4589964294e+02   -1.1733699799e+01
    1.4599966431e+02   -1.1754300117e+01
    1.4609968567e+02   -1.1774700165e+01
    1.4619966125e+02   -1.1795100212e+01
    1.4629966736e+02   -1.1815400124e+01
    1.4639968872e+02   -1.1835599899e+01
    1.4649969482e+02   -1.1855799675e+01
    1.4659968567e+02   -1.1875800133e+01
    1.4669969177e+02   -1.1895899773e+01
    1.4679968262e+02   -1.1915800095e+01
    1.4689970398e+02   -1.1935700417e+01
    1.4699975586e+02   -1.1955599785e+01
    1.4709976196e+02   -1.1975299835e+01
    1.4719976807e+02   -1.1994999886e+01
    1.4729974365e+02   -1.2014599800e+01
    1.4739976501e+02   -1.2034199715e+01
    1.4749975586e+02   -1.2053700447e+01
    1.4759977722e+02   -1.2073100090e+01
    1.4769979858e+02   -1.2092499733e+01
    1.4779975891e+02   -1.2111800194e+01
    1.4789976501e+02   -1.2130999565e+01
    1.4799980164e+02   -1.2150099754e+01
    1.4809980774e+02   -1.2169199944e+01
    1.4819979858e+02   -1.2188300133e+01
    1.4829980469e+02   -1.2207400322e+01
    1.4839981079e+02   -1.2226400375e+01
    1.4849981689e+02   -1.2245400429e+01
    1.4859982300e+02   -1.2264399529e+01
    1.4869981384e+02   -1.2283200264e+01
    1.4879981995e+02   -1.2302100182e+01
    1.4889987183e+02   -1.2320899963e+01
    1.4899986267e+02   -1.2339699745e+01
    1.4909982300e+02   -1.2358400345e+01
    1.4919987488e+02   -1.2377099991e+01
    1.4929986572e+02   -1.2395799637e+01
    1.4939988708e+02   -1.2414400101e+01
    1.4949987793e+02   -1.2432999611e+01
    1.4959988403e+02   -1.2451499939e+01
    1.4969989014e+02   -1.2470100403e+01
    1.4979988098e+02   -1.2488499641e+01
    1.4989988708e+02   -1.2506999969e+01
    1.4999992371e+02   -1.2525400162e+01
    1.5009991455e+02   -1.2543800354e+01
    1.5019990540e+02   -1.2562199593e+01
    1.5029995728e+02   -1.2580499649e+01
    1.5039993286e+02   -1.2598799706e+01
    1.5049995422e+02   -1.2617099762e+01
    1.5059992981e+02   -1.2635399818e+01
    1.5069998169e+02   -1.2653800011e+01
    1.5079997253e+02   -1.2672100067e+01
    1.5089997864e+02   -1.2690400124e+01
    1.5099998474e+02   -1.2708600044e+01
    1.5109999084e+02   -1.2726799965e+01
    1.5119999695e+02   -1.2745100021e+01
    1.5129997253e+02   -1.2763400078e+01
    1.5140002441e+02   -1.2781800270e+01
    1.5150000000e+02   -1.2800200462e+01
    1.5160000610e+02   -1.2818699837e+01
    1.5170002747e+02   -1.2837100029e+01
    1.5180000305e+02   -1.2855600357e+01
    1.5190002441e+02   -1.2874099731e+01
    1.5200006104e+02   -1.2892700195e+01
    1.5210006714e+02   -1.2911299706e+01
    1.5220002747e+02   -1.2929900169e+01
    1.5230004883e+02   -1.2948499680e+01
    1.5240007019e+02   -1.2967200279e+01
    1.5250009155e+02   -1.2985899925e+01
    1.5260006714e+02   -1.3004699707e+01
    1.5270005798e+02   -1.3023599625e+01
    1.5280006409e+02   -1.3042599678e+01
    1.5290007019e+02   -1.3061599731e+01
    1.5300007629e+02   -1.3080699921e+01
    1.5310012817e+02   -1.3099900246e+01
    1.5320011902e+02   -1.3119099617e+01
    1.5330010986e+02   -1.3138299942e+01
    1.5340010071e+02   -1.3157600403e+01
    1.5350013733e+02   -1.3176899910e+01
    1.5360015869e+02   -1.3196399689e+01
    1.5370014954e+02   -1.3215999603e+01
    1.5380015564e+02   -1.3235699654e+01
    1.5390017700e+02   -1.3255499840e+01
    1.5400018311e+02   -1.3275300026e+01
    1.5410015869e+02   -1.3295299530e+01
    1.5420019531e+02   -1.3315299988e+01
    1.5430018616e+02   -1.3335399628e+01
    1.5440017700e+02   -1.3355699539e+01
    1.5450016785e+02   -1.3376000404e+01
    1.5460017395e+02   -1.3396400452e+01
    1.5470019531e+02   -1.3416899681e+01
    1.5480023193e+02   -1.3437600136e+01
    1.5490020752e+02   -1.3458299637e+01
    1.5500018311e+02   -1.3479200363e+01
    1.5510021973e+02   -1.3500200272e+01
    1.5520021057e+02   -1.3521300316e+01
    1.5530026245e+02   -1.3542599678e+01
    1.5540025330e+02   -1.3563899994e+01
    1.5550025940e+02   -1.3585300446e+01
    1.5560025024e+02   -1.3606900215e+01
    1.5570027161e+02   -1.3628499985e+01
    1.5580026245e+02   -1.3650300026e+01
    1.5590025330e+02   -1.3672200203e+01
    1.5600030518e+02   -1.3694199562e+01
    1.5610029602e+02   -1.3716400146e+01
    1.5620031738e+02   -1.3738699913e+01
    1.5630029297e+02   -1.3761099815e+01
    1.5640031433e+02   -1.3783699989e+01
    1.5650033569e+02   -1.3806400299e+01
    1.5660029602e+02   -1.3829199791e+01
    1.5670031738e+02   -1.3852199554e+01
    1.5680029297e+02   -1.3875399590e+01
    1.5690032959e+02   -1.3898699760e+01
    1.5700036621e+02   -1.3922200203e+01
    1.5710032654e+02   -1.3945799828e+01
    1.5720033264e+02   -1.3969499588e+01
    1.5730038452e+02   -1.3993399620e+01
    1.5740034485e+02   -1.4017399788e+01
    1.5750036621e+02   -1.4041600227e+01
    1.5760040283e+02   -1.4065899849e+01
    1.5770039368e+02   -1.4090299606e+01
    1.5780041504e+02   -1.4114899635e+01
    1.5790037537e+02   -1.4139499664e+01
    1.5800038147e+02   -1.4164299965e+01
    1.5810041809e+02   -1.4189299583e+01
    1.5820042419e+02   -1.4214400291e+01
    1.5830039978e+02   -1.4239700317e+01
    1.5840045166e+02   -1.4265199661e+01
    1.5850042725e+02   -1.4290800095e+01
    1.5860043335e+02   -1.4316599846e+01
    1.5870042419e+02   -1.4342599869e+01
    1.5880047607e+02   -1.4368599892e+01
    1.5890043640e+02   -1.4394900322e+01
    1.5900044250e+02   -1.4421299934e+01
    1.5910044861e+02   -1.4447799683e+01
    1.5920045471e+02   -1.4474499702e+01
    1.5930047607e+02   -1.4501399994e+01
    1.5940048218e+02   -1.4528400421e+01
    1.5950051880e+02   -1.4555500031e+01
    1.5960047913e+02   -1.4582799911e+01
    1.5970051575e+02   -1.4610199928e+01
    1.5980049133e+02   -1.4637800217e+01
    1.5990051270e+02   -1.4665499687e+01
    1.6000050354e+02   -1.4693400383e+01
    1.6010052490e+02   -1.4721300125e+01
    1.6020053101e+02   -1.4749400139e+01
    1.6030053711e+02   -1.4777600288e+01
    1.6040054321e+02   -1.4805999756e+01
    1.6050053406e+02   -1.4834600449e+01
    1.6060057068e+02   -1.4863300323e+01
    1.6070057678e+02   -1.4892200470e+01
    1.6080056763e+02   -1.4921199799e+01
    1.6090054321e+02   -1.4950300217e+01
    1.6100061035e+02   -1.4979499817e+01
    1.6110060120e+02   -1.5008899689e+01
    1.6120059204e+02   -1.5038399696e+01
    1.6130061340e+02   -1.5068099976e+01
    1.6140058899e+02   -1.5097999573e+01
    1.6150061035e+02   -1.5128100395e+01
    1.6160060120e+02   -1.5158300400e+01
    1.6170063782e+02   -1.5188699722e+01
    1.6180064392e+02   -1.5219200134e+01
    1.6190066528e+02   -1.5249799728e+01
    1.6200062561e+02   -1.5280599594e+01
    1.6210067749e+02   -1.5311499596e+01
    1.6220065308e+02   -1.5342599869e+01
    1.6230065918e+02   -1.5373800278e+01
    1.6240066528e+02   -1.5405200005e+01
    1.6250065613e+02   -1.5436699867e+01
    1.6260069275e+02   -1.5468400002e+01
    1.6270069885e+02   -1.5500200272e+01
    1.6280068970e+02   -1.5532199860e+01
    1.6290069580e+02   -1.5564299583e+01
    1.6300068665e+02   -1.5596599579e+01
    1.6310069275e+02   -1.5628999710e+01
    1.6320071411e+02   -1.5661499977e+01
    1.6330075073e+02   -1.5694100380e+01
    1.6340072632e+02   -1.5726799965e+01
    1.6350071716e+02   -1.5759599686e+01
    1.6360072327e+02   -1.5792599678e+01
    1.6370077515e+02   -1.5825799942e+01
    1.6380078125e+02   -1.5859100342e+01
    1.6390075684e+02   -1.5892600060e+01
    1.6400079346e+02   -1.5926099777e+01
    1.6410075378e+02   -1.5959799767e+01
    1.6420075989e+02   -1.5993599892e+01
    1.6430078125e+02   -1.6027599335e+01
    1.6440077209e+02   -1.6061700821e+01
    1.6450082397e+02   -1.6095899582e+01
    1.6460081482e+02   -1.6130199432e+01
    1.6470082092e+02   -1.6164600372e+01
    1.6480082703e+02   -1.6199100494e+01
    1.6490081787e+02   -1.6233699799e+01
    1.6500080872e+02   -1.6268499374e+01
    1.6510081482e+02   -1.6303400040e+01
    1.6520086670e+02   -1.6338300705e+01
    1.6530082703e+02   -1.6373399734e+01
    1.6540086365e+02   -1.6408500671e+01
    1.6550088501e+02   -1.6443700790e+01
    1.6560087585e+02   -1.6479000092e+01
    1.6570089722e+02   -1.6514299393e+01
    1.6580088806e+02   -1.6549699783e+01
    1.6590087891e+02   -1.6585199356e+01
    1.6600086975e+02   -1.6620800018e+01
    1.6610089111e+02   -1.6656600952e+01
    1.6620091248e+02   -1.6692399979e+01
    1.6630093384e+02   -1.6728200912e+01
    1.6640089417e+02   -1.6764200211e+01
    1.6650094604e+02   -1.6800199509e+01
    1.6660090637e+02   -1.6836299896e+01
    1.6670091248e+02   -1.6872600555e+01
    1.6680090332e+02   -1.6908800125e+01
    1.6690095520e+02   -1.6945199966e+01
    1.6700094604e+02   -1.6981599808e+01
    1.6710096741e+02   -1.7018100739e+01
    1.6720097351e+02   -1.7054599762e+01
    1.6730093384e+02   -1.7091100693e+01
    1.6740095520e+02   -1.7127700806e+01
    1.6750094604e+02   -1.7164300919e+01
    1.6760098267e+02   -1.7200899124e+01
    1.6770100403e+02   -1.7237499237e+01
    1.6780101013e+02   -1.7274200439e+01
    1.6790100098e+02   -1.7310800552e+01
    1.6800103760e+02   -1.7347400665e+01
    1.6810104370e+02   -1.7384099960e+01
    1.6820104980e+02   -1.7420900345e+01
    1.6830102539e+02   -1.7457599640e+01
    1.6840106201e+02   -1.7494400024e+01
    1.6850105286e+02   -1.7531299591e+01
    1.6860104370e+02   -1.7568199158e+01
    1.6870103455e+02   -1.7604999542e+01
    1.6880105591e+02   -1.7641899109e+01
    1.6890107727e+02   -1.7678800583e+01
    1.6900105286e+02   -1.7715700150e+01
    1.6910107422e+02   -1.7752500534e+01
    1.6920109558e+02   -1.7789400101e+01
    1.6930110168e+02   -1.7826200485e+01
    1.6940107727e+02   -1.7862899780e+01
    1.6950111389e+02   -1.7899599075e+01
    1.6960108948e+02   -1.7936199188e+01
    1.6970112610e+02   -1.7972900391e+01
    1.6980111694e+02   -1.8009399414e+01
    1.6990115356e+02   -1.8045900345e+01
    1.7000111389e+02   -1.8082399368e+01
    1.7010116577e+02   -1.8118900299e+01
    1.7020114136e+02   -1.8155199051e+01
    1.7030116272e+02   -1.8191600800e+01
    1.7040115356e+02   -1.8227899551e+01
    1.7050114441e+02   -1.8264099121e+01
    1.7060116577e+02   -1.8300399780e+01
    1.7070118713e+02   -1.8336599350e+01
    1.7080116272e+02   -1.8372600555e+01
    1.7090118408e+02   -1.8408599854e+01
    1.7100120544e+02   -1.8444499969e+01
    1.7110118103e+02   -1.8480300903e+01
    1.7120118713e+02   -1.8516000748e+01
    1.7130120850e+02   -1.8551700592e+01
    1.7140122986e+02   -1.8587299347e+01
    1.7150120544e+02   -1.8622800827e+01
    1.7160122681e+02   -1.8658300400e+01
    1.7170126343e+02   -1.8693799973e+01
    1.7180123901e+02   -1.8729099274e+01
    1.7190124512e+02   -1.8764299393e+01
    1.7200126648e+02   -1.8799499512e+01
    1.7210127258e+02   -1.8834499359e+01
    1.7220124817e+02   -1.8869499207e+01
    1.7230125427e+02   -1.8904399872e+01
    1.7240127563e+02   -1.8939199448e+01
    1.7250126648e+02   -1.8973899841e+01
    1.7260128784e+02   -1.9008499146e+01
    1.7270126343e+02   -1.9043100357e+01
    1.7280128479e+02   -1.9077600479e+01
    1.7290129089e+02   -1.9111999512e+01
    1.7300132751e+02   -1.9146200180e+01
    1.7310130310e+02   -1.9180400848e+01
    1.7320133972e+02   -1.9214399338e+01
    1.7330133057e+02   -1.9248199463e+01
    1.7340136719e+02   -1.9281900406e+01
    1.7350134277e+02   -1.9315500259e+01
    1.7360136414e+02   -1.9349000931e+01
    1.7370135498e+02   -1.9382400513e+01
    1.7380137634e+02   -1.9415700912e+01
    1.7390138245e+02   -1.9448900223e+01
    1.7400138855e+02   -1.9482000351e+01
    1.7410139465e+02   -1.9514999390e+01
    1.7420141602e+02   -1.9547899246e+01
    1.7430140686e+02   -1.9580600739e+01
    1.7440141296e+02   -1.9613300323e+01
    1.7450140381e+02   -1.9645799637e+01
    1.7460139465e+02   -1.9678199768e+01
    1.7470138550e+02   -1.9710500717e+01
    1.7480140686e+02   -1.9742599487e+01
    1.7490144348e+02   -1.9774599075e+01
    1.7500144958e+02   -1.9806400299e+01
    1.7510145569e+02   -1.9837999344e+01
    1.7520144653e+02   -1.9869499207e+01
    1.7530143738e+02   -1.9900899887e+01
    1.7540147400e+02   -1.9932100296e+01
    1.7550143433e+02   -1.9963100433e+01
    1.7560147095e+02   -1.9993999481e+01
    1.7570147705e+02   -2.0024700165e+01
    1.7580149841e+02   -2.0055400848e+01
    1.7590151978e+02   -2.0085899353e+01
    1.7600149536e+02   -2.0116199493e+01
    1.7610148621e+02   -2.0146499634e+01
    1.7620150757e+02   -2.0176700592e+01
    1.7630151367e+02   -2.0206699371e+01
    1.7640151978e+02   -2.0236499786e+01
    1.7650155640e+02   -2.0266199112e+01
    1.7660154724e+02   -2.0295700073e+01
    1.7670152283e+02   -2.0325099945e+01
    1.7680152893e+02   -2.0354299545e+01
    1.7690156555e+02   -2.0383300781e+01
    1.7700157166e+02   -2.0412200928e+01
    1.7710154724e+02   -2.0440900803e+01
    1.7720158386e+02   -2.0469400406e+01
    1.7730160522e+02   -2.0497800827e+01
    1.7740156555e+02   -2.0525999069e+01
    1.7750158691e+02   -2.0554000854e+01
    1.7760156250e+02   -2.0581899643e+01
    1.7770161438e+02   -2.0609600067e+01
    1.7780162048e+02   -2.0637100220e+01
    1.7790162659e+02   -2.0664499283e+01
    1.7800160217e+02   -2.0691699982e+01
    1.7810165405e+02   -2.0718799591e+01
    1.7820162964e+02   -2.0745800018e+01
    1.7830160522e+02   -2.0772600174e+01
    1.7840162659e+02   -2.0799299240e+01
    1.7850166321e+02   -2.0825799942e+01
    1.7860165405e+02   -2.0852100372e+01
    1.7870167542e+02   -2.0878299713e+01
    1.7880166626e+02   -2.0904199600e+01
    1.7890167236e+02   -2.0930000305e+01
    1.7900167847e+02   -2.0955600739e+01
    1.7910171509e+02   -2.0981100082e+01
    1.7920170593e+02   -2.1006299973e+01
    1.7930168152e+02   -2.1031299591e+01
    1.7940171814e+02   -2.1056200027e+01
    1.7950173950e+02   -2.1080900192e+01
    1.7960169983e+02   -2.1105400085e+01
    1.7970173645e+02   -2.1129800797e+01
    1.7980174255e+02   -2.1153999329e+01
    1.7990173340e+02   -2.1178100586e+01
    1.8000172424e+02   -2.1201900482e+01
    1.8010173035e+02   -2.1225700378e+01
    1.8020178223e+02   -2.1249300003e+01
    1.8030174255e+02   -2.1272699356e+01
    1.8040174866e+02   -2.1295900345e+01
    1.8050175476e+02   -2.1319000244e+01
    1.8060176086e+02   -2.1341999054e+01
    1.8070179749e+02   -2.1364799500e+01
    1.8080177307e+02   -2.1387300491e+01
    1.8090176392e+02   -2.1409700394e+01
    1.8100181580e+02   -2.1431900024e+01
    1.8110179138e+02   -2.1453899384e+01
    1.8120179749e+02   -2.1475700378e+01
    1.8130183411e+02   -2.1497400284e+01
    1.8140184021e+02   -2.1518899918e+01
    1.8150183105e+02   -2.1540300369e+01
    1.8160183716e+02   -2.1561599731e+01
    1.8170185852e+02   -2.1582799911e+01
    1.8180183411e+02   -2.1603799820e+01
    1.8190184021e+02   -2.1624700546e+01
    1.8200190735e+02   -2.1645500183e+01
    1.8210185242e+02   -2.1666099548e+01
    1.8220187378e+02   -2.1686599731e+01
    1.8230189514e+02   -2.1707000732e+01
    1.8240187073e+02   -2.1727199554e+01
    1.8250192261e+02   -2.1747299194e+01
    1.8260188293e+02   -2.1767299652e+01
    1.8270188904e+02   -2.1787099838e+01
    1.8280194092e+02   -2.1806800842e+01
    1.8290188599e+02   -2.1826400757e+01
    1.8300195312e+02   -2.1845800400e+01
    1.8310191345e+02   -2.1865100861e+01
    1.8320191956e+02   -2.1884199142e+01
    1.8330195618e+02   -2.1903099060e+01
    1.8340196228e+02   -2.1922000885e+01
    1.8350198364e+02   -2.1940700531e+01
    1.8360194397e+02   -2.1959299088e+01
    1.8370198059e+02   -2.1977899551e+01
    1.8380198669e+02   -2.1996299744e+01
    1.8390197754e+02   -2.2014699936e+01
    1.8400195312e+02   -2.2033000946e+01
    1.8410197449e+02   -2.2051099777e+01
    1.8420198059e+02   -2.2069200516e+01
    1.8430200195e+02   -2.2087200165e+01
    1.8440202332e+02   -2.2104999542e+01
    1.8450201416e+02   -2.2122800827e+01
    1.8460200500e+02   -2.2140399933e+01
    1.8470205688e+02   -2.2157899857e+01
    1.8480201721e+02   -2.2175300598e+01
    1.8490202332e+02   -2.2192600250e+01
    1.8500205994e+02   -2.2209800720e+01
    1.8510206604e+02   -2.2226900101e+01
    1.8520207214e+02   -2.2243900299e+01
    1.8530203247e+02   -2.2260799408e+01
    1.8540205383e+02   -2.2277599335e+01
    1.8550209045e+02   -2.2294300079e+01
    1.8560208130e+02   -2.2310800552e+01
    1.8570210266e+02   -2.2327299118e+01
    1.8580209351e+02   -2.2343700409e+01
    1.8590209961e+02   -2.2360099792e+01
    1.8600210571e+02   -2.2376399994e+01
    1.8610212708e+02   -2.2392599106e+01
    1.8620210266e+02   -2.2408800125e+01
    1.8630212402e+02   -2.2424900055e+01
    1.8640211487e+02   -2.2440900803e+01
    1.8650213623e+02   -2.2456800461e+01
    1.8660217285e+02   -2.2472600937e+01
    1.8670216370e+02   -2.2488399506e+01
    1.8680215454e+02   -2.2504100800e+01
    1.8690214539e+02   -2.2519599915e+01
    1.8700218201e+02   -2.2535100937e+01
    1.8710217285e+02   -2.2550500870e+01
    1.8720219421e+02   -2.2565900803e+01
    1.8730218506e+02   -2.2581100464e+01
    1.8740220642e+02   -2.2596300125e+01
    1.8750221252e+02   -2.2611400604e+01
    1.8760217285e+02   -2.2626499176e+01
    1.8770222473e+02   -2.2641399384e+01
    1.8780221558e+02   -2.2656299591e+01
    1.8790225220e+02   -2.2671199799e+01
    1.8800224304e+02   -2.2685899734e+01
    1.8810224915e+02   -2.2700700760e+01
    1.8820225525e+02   -2.2715299606e+01
    1.8830224609e+02   -2.2729900360e+01
    1.8840225220e+02   -2.2744499207e+01
    1.8850227356e+02   -2.2759000778e+01
    1.8860226440e+02   -2.2773399353e+01
    1.8870228577e+02   -2.2787799835e+01
    1.8880230713e+02   -2.2802099228e+01
    1.8890226746e+02   -2.2816299438e+01
    1.8900228882e+02   -2.2830400467e+01
    1.8910229492e+02   -2.2844499588e+01
    1.8920233154e+02   -2.2858499527e+01
    1.8930229187e+02   -2.2872400284e+01
    1.8940229797e+02   -2.2886199951e+01
    1.8950230408e+02   -2.2899999619e+01
    1.8960232544e+02   -2.2913700104e+01
    1.8970231628e+02   -2.2927400589e+01
    1.8980232239e+02   -2.2940999985e+01
    1.8990237427e+02   -2.2954500198e+01
    1.9000233459e+02   -2.2968000412e+01
    1.9010235596e+02   -2.2981399536e+01
    1.9020234680e+02   -2.2994699478e+01
    1.9030238342e+02   -2.3007999420e+01
    1.9040237427e+02   -2.3021200180e+01
    1.9050238037e+02   -2.3034400940e+01
    1.9060235596e+02   -2.3047599792e+01
    1.9070237732e+02   -2.3060600281e+01
    1.9080242920e+02   -2.3073600769e+01
    1.9090237427e+02   -2.3086500168e+01
    1.9100241089e+02   -2.3099300385e+01
    1.9110241699e+02   -2.3111999512e+01
    1.9120245361e+02   -2.3124700546e+01
    1.9130244446e+02   -2.3137300491e+01
    1.9140242004e+02   -2.3149900436e+01
    1.9150244141e+02   -2.3162399292e+01
    1.9160246277e+02   -2.3174900055e+01
    1.9170246887e+02   -2.3187400818e+01
    1.9180247498e+02   -2.3199800491e+01
    1.9190246582e+02   -2.3212099075e+01
    1.9200250244e+02   -2.3224500656e+01
    1.9210246277e+02   -2.3236799240e+01
    1.9220245361e+02   -2.3249000549e+01
    1.9230247498e+02   -2.3261100769e+01
    1.9240252686e+02   -2.3273199081e+01
    1.9250250244e+02   -2.3285299301e+01
    1.9260253906e+02   -2.3297300339e+01
    1.9270251465e+02   -2.3309200287e+01
    1.9280250549e+02   -2.3321100235e+01
    1.9290252686e+02   -2.3333000183e+01
    1.9300254822e+02   -2.3344699860e+01
    1.9310252380e+02   -2.3356500626e+01
    1.9320257568e+02   -2.3368099213e+01
    1.9330253601e+02   -2.3379699707e+01
    1.9340255737e+02   -2.3391199112e+01
    1.9350256348e+02   -2.3402599335e+01
    1.9360255432e+02   -2.3414100647e+01
    1.9370256042e+02   -2.3425399780e+01
    1.9380259705e+02   -2.3436800003e+01
    1.9390257263e+02   -2.3448099136e+01
    1.9400256348e+02   -2.3459400177e+01
    1.9410261536e+02   -2.3470500946e+01
    1.9420260620e+02   -2.3481700897e+01
    1.9430262756e+02   -2.3492799759e+01
    1.9440261841e+02   -2.3503799438e+01
[...]
    2.5130607605e+02   -1.2579099655e+01
    2.5140611267e+02   -1.2534099579e+01
    2.5150613403e+02   -1.2489100456e+01
    2.5160612488e+02   -1.2444199562e+01
    2.5170614624e+02   -1.2399299622e+01
    2.5180613708e+02   -1.2354499817e+01
    2.5190614319e+02   -1.2309700012e+01
    2.5200613403e+02   -1.2264900208e+01
    2.5210615540e+02   -1.2220199585e+01
    2.5220616150e+02   -1.2175499916e+01
    2.5230613708e+02   -1.2130900383e+01
    2.5240618896e+02   -1.2086199760e+01
    2.5250619507e+02   -1.2041700363e+01
    2.5260615540e+02   -1.1997200012e+01
    2.5270620728e+02   -1.1952699661e+01
    2.5280619812e+02   -1.1908300400e+01
    2.5290618896e+02   -1.1864000320e+01
    2.5300619507e+02   -1.1819700241e+01
    2.5310618591e+02   -1.1775400162e+01
    2.5320622253e+02   -1.1731200218e+01
    2.5330619812e+02   -1.1687000275e+01
    2.5340621948e+02   -1.1642900467e+01
    2.5350625610e+02   -1.1598799706e+01
    2.5360626221e+02   -1.1554800034e+01
    2.5370625305e+02   -1.1510899544e+01
    2.5380627441e+02   -1.1467000008e+01
    2.5390625000e+02   -1.1423199654e+01
    2.5400627136e+02   -1.1379400253e+01
    2.5410626221e+02   -1.1335700035e+01
    2.5420626831e+02   -1.1291999817e+01
    2.5430627441e+02   -1.1248499870e+01
    2.5440626526e+02   -1.1204899788e+01
    2.5450631714e+02   -1.1161499977e+01
    2.5460627747e+02   -1.1118100166e+01
    2.5470631409e+02   -1.1074799538e+01
    2.5480630493e+02   -1.1031499863e+01
    2.5490632629e+02   -1.0988300323e+01
    2.5500633240e+02   -1.0945199966e+01
    2.5510630798e+02   -1.0902099609e+01
    2.5520632935e+02   -1.0859100342e+01
    2.5530636597e+02   -1.0816100121e+01
    2.5540632629e+02   -1.0773300171e+01
    2.5550633240e+02   -1.0730500221e+01
    2.5560638428e+02   -1.0687700272e+01
    2.5570634460e+02   -1.0645000458e+01
    2.5580636597e+02   -1.0602399826e+01
    2.5590635681e+02   -1.0559900284e+01
    2.5600637817e+02   -1.0517399788e+01
    2.5610638428e+02   -1.0475099564e+01
    2.5620639038e+02   -1.0432700157e+01
    2.5630639648e+02   -1.0390500069e+01
    2.5640640259e+02   -1.0348299980e+01
    2.5650637817e+02   -1.0306200027e+01
    2.5660641479e+02   -1.0264200211e+01
    2.5670639038e+02   -1.0222200394e+01
    2.5680639648e+02   -1.0180299759e+01
    2.5690640259e+02   -1.0138500214e+01
    2.5700643921e+02   -1.0096699715e+01
    2.5710641479e+02   -1.0055100441e+01
    2.5720642090e+02   -1.0013500214e+01
    2.5730642700e+02   -9.9718999863e+00
    2.5740643311e+02   -9.9304304123e+00
    2.5750643921e+02   -9.8890199661e+00
    2.5760644531e+02   -9.8477001190e+00
    2.5770645142e+02   -9.8064203262e+00
    2.5780648804e+02   -9.7652196884e+00
    2.5790649414e+02   -9.7241001129e+00
    2.5800650024e+02   -9.6830501556e+00
    2.5810650635e+02   -9.6420803070e+00
    2.5820648193e+02   -9.6012001038e+00
    2.5830648804e+02   -9.5603799820e+00
    2.5840649414e+02   -9.5196199417e+00
    2.5850653076e+02   -9.4789304733e+00
    2.5860650635e+02   -9.4383201599e+00
    2.5870651245e+02   -9.3977804184e+00
    2.5880651855e+02   -9.3573102951e+00
    2.5890655518e+02   -9.3169097900e+00
    2.5900653076e+02   -9.2765703201e+00
    2.5910656738e+02   -9.2363100052e+00
    2.5920657349e+02   -9.1961002350e+00
    2.5930657959e+02   -9.1559696198e+00
    2.5940655518e+02   -9.1159095764e+00
    2.5950659180e+02   -9.0759096146e+00
    2.5960659790e+02   -9.0359802246e+00
    2.5970657349e+02   -8.9961500168e+00
    2.5980661011e+02   -8.9563598633e+00
    2.5990658569e+02   -8.9166603088e+00
    2.6000659180e+02   -8.8770399094e+00
    2.6010662842e+02   -8.8374595642e+00
    2.6020660400e+02   -8.7979898453e+00
    2.6030664062e+02   -8.7585697174e+00
    2.6040661621e+02   -8.7192401886e+00
    2.6050662231e+02   -8.6799802780e+00
    2.6060665894e+02   -8.6407699585e+00
    2.6070666504e+02   -8.6016502380e+00
    2.6080664062e+02   -8.5625696182e+00
    2.6090667725e+02   -8.5235500336e+00
    2.6100665283e+02   -8.4846200943e+00
    2.6110668945e+02   -8.4457302094e+00
    2.6120666504e+02   -8.4069299698e+00
    2.6130670166e+02   -8.3681697845e+00
    2.6140667725e+02   -8.3295001984e+00
    2.6150668335e+02   -8.2908802032e+00
    2.6160671997e+02   -8.2523002625e+00
    2.6170669556e+02   -8.2138099670e+00
    2.6180670166e+02   -8.1753702164e+00
    2.6190673828e+02   -8.1369800568e+00
    2.6200671387e+02   -8.0986795425e+00
    2.6210671997e+02   -8.0604295731e+00
    2.6220672607e+02   -8.0222396851e+00
    2.6230676270e+02   -7.9840998650e+00
    2.6240676880e+02   -7.9460401535e+00
    2.6250677490e+02   -7.9080400467e+00
    2.6260678101e+02   -7.8700900078e+00
    2.6270675659e+02   -7.8322300911e+00
    2.6280679321e+02   -7.7944002151e+00
    2.6290676880e+02   -7.7566499710e+00
    2.6300680542e+02   -7.7189297676e+00
    2.6310681152e+02   -7.6812901497e+00
    2.6320678711e+02   -7.6437001228e+00
    2.6330682373e+02   -7.6061501503e+00
    2.6340679932e+02   -7.5686898232e+00
    2.6350683594e+02   -7.5312600136e+00
    2.6360684204e+02   -7.4938898087e+00
    2.6370681763e+02   -7.4565901756e+00
    2.6380685425e+02   -7.4193301201e+00
    2.6390686035e+02   -7.3821301460e+00
    2.6400686646e+02   -7.3449797630e+00
    2.6410684204e+02   -7.3078999519e+00
    2.6420684814e+02   -7.2708601952e+00
    2.6430685425e+02   -7.2338800430e+00
    2.6440686035e+02   -7.1969399452e+00
    2.6450689697e+02   -7.1600499153e+00
    2.6460687256e+02   -7.1232399940e+00
    2.6470687866e+02   -7.0864801407e+00
    2.6480688477e+02   -7.0497498512e+00
    2.6490692139e+02   -7.0130801201e+00
    2.6500692749e+02   -6.9764800072e+00
    2.6510690308e+02   -6.9399299622e+00
    2.6520693970e+02   -6.9034199715e+00
    2.6530694580e+02   -6.8669800758e+00
    2.6540695190e+02   -6.8305997849e+00
    2.6550692749e+02   -6.7942800522e+00
    2.6560696411e+02   -6.7579898834e+00
    2.6570693970e+02   -6.7217798233e+00
    2.6580697632e+02   -6.6855998039e+00
    2.6590695190e+02   -6.6495099068e+00
    2.6600695801e+02   -6.6134600639e+00
    2.6610696411e+02   -6.5774798393e+00
    2.6620697021e+02   -6.5415401459e+00
    2.6630700684e+02   -6.5056500435e+00
    2.6640701294e+02   -6.4698400497e+00
    2.6650698853e+02   -6.4340901375e+00
    2.6660702515e+02   -6.3983898163e+00
    2.6670700073e+02   -6.3627800941e+00
    2.6680700684e+02   -6.3272099495e+00
    2.6690701294e+02   -6.2917199135e+00
    2.6700704956e+02   -6.2562799454e+00
    2.6710705566e+02   -6.2209300995e+00
    2.6720706177e+02   -6.1856398582e+00
    2.6730703735e+02   -6.1504302025e+00
    2.6740704346e+02   -6.1152801514e+00
    2.6750704956e+02   -6.0802001953e+00
    2.6760705566e+02   -6.0451898575e+00
    2.6770709229e+02   -6.0102500916e+00
    2.6780706787e+02   -5.9753899574e+00
    2.6790707397e+02   -5.9406099319e+00
    2.6800711060e+02   -5.9058899879e+00
    2.6810708618e+02   -5.8712701797e+00
    2.6820709229e+02   -5.8367300034e+00
    2.6830709839e+02   -5.8022599220e+00
    2.6840713501e+02   -5.7678699493e+00
    2.6850714111e+02   -5.7335801125e+00
    2.6860711670e+02   -5.6993799210e+00
    2.6870715332e+02   -5.6652498245e+00
    2.6880712891e+02   -5.6312298775e+00
    2.6890716553e+02   -5.5972800255e+00
    2.6900714111e+02   -5.5634398460e+00
    2.6910714722e+02   -5.5296697617e+00
    2.6920718384e+02   -5.4959897995e+00
    2.6930715942e+02   -5.4624099731e+00
    2.6940719604e+02   -5.4289097786e+00
    2.6950717163e+02   -5.3955202103e+00
    2.6960717773e+02   -5.3621997833e+00
    2.6970721436e+02   -5.3289799690e+00
    2.6980722046e+02   -5.2958498001e+00
    2.6990716553e+02   -5.2628297806e+00
    2.7000723267e+02   -5.2298798561e+00
    2.7010720825e+02   -5.1970400810e+00
    2.7020724487e+02   -5.1642899513e+00
    2.7030725098e+02   -5.1316299438e+00
    2.7040722656e+02   -5.0990800858e+00
    2.7050723267e+02   -5.0666198730e+00
    2.7060723877e+02   -5.0342497826e+00
    2.7070724487e+02   -5.0019698143e+00
    2.7080725098e+02   -4.9697999954e+00
    2.7090725708e+02   -4.9376997948e+00
    2.7100729370e+02   -4.9057102203e+00
    2.7110729980e+02   -4.8738198280e+00
    2.7120730591e+02   -4.8420100212e+00
    2.7130731201e+02   -4.8103098869e+00
    2.7140728760e+02   -4.7786898613e+00
    2.7150729370e+02   -4.7471699715e+00
    2.7160733032e+02   -4.7157301903e+00
    2.7170730591e+02   -4.6843900681e+00
    2.7180731201e+02   -4.6531500816e+00
    2.7190734863e+02   -4.6219801903e+00
    2.7200735474e+02   -4.5909199715e+00
    2.7210736084e+02   -4.5599598885e+00
    2.7220736694e+02   -4.5290699005e+00
    2.7230734253e+02   -4.4982900620e+00
    2.7240734863e+02   -4.4675898552e+00
    2.7250738525e+02   -4.4369797707e+00
    2.7260739136e+02   -4.4064497948e+00
    2.7270736694e+02   -4.3760299683e+00
    2.7280740356e+02   -4.3456602097e+00
    2.7290740967e+02   -4.3153901100e+00
    2.7300741577e+02   -4.2851901054e+00
    2.7310739136e+02   -4.2550997734e+00
    2.7320739746e+02   -4.2250699997e+00
    2.7330743408e+02   -4.1951198578e+00
    2.7340744019e+02   -4.1652598381e+00
    2.7350741577e+02   -4.1354899406e+00
    2.7360742188e+02   -4.1058001518e+00
    2.7370745850e+02   -4.0761799812e+00
    2.7380746460e+02   -4.0466499329e+00
    2.7390747070e+02   -4.0171999931e+00
    2.7400747681e+02   -3.9878299236e+00
    2.7410748291e+02   -3.9585399628e+00
    2.7420745850e+02   -3.9293498993e+00
    2.7430746460e+02   -3.9002299309e+00
    2.7440747070e+02   -3.8711900711e+00
    2.7450747681e+02   -3.8422200680e+00
    2.7460748291e+02   -3.8133499622e+00
    2.7470748901e+02   -3.7845399380e+00
    2.7480749512e+02   -3.7558300495e+00
    2.7490750122e+02   -3.7271900177e+00
    2.7500753784e+02   -3.6986100674e+00
    2.7510754395e+02   -3.6701300144e+00
    2.7520751953e+02   -3.6417300701e+00
    2.7530752563e+02   -3.6133999825e+00
    2.7540753174e+02   -3.5851600170e+00
    2.7550753784e+02   -3.5569999218e+00
    2.7560754395e+02   -3.5289199352e+00
    2.7570758057e+02   -3.5009100437e+00
    2.7580758667e+02   -3.4730000496e+00
    2.7590759277e+02   -3.4451699257e+00
    2.7600759888e+02   -3.4174098969e+00
    2.7610757446e+02   -3.3897500038e+00
    2.7620761108e+02   -3.3621499538e+00
    2.7630758667e+02   -3.3346400261e+00
    2.7640759277e+02   -3.3072199821e+00
    2.7650762939e+02   -3.2798700333e+00
    2.7660760498e+02   -3.2525999546e+00
    2.7670764160e+02   -3.2254199982e+00
    2.7680761719e+02   -3.1983199120e+00
    2.7690765381e+02   -3.1712899208e+00
    2.7700765991e+02   -3.1443400383e+00
    2.7710760498e+02   -3.1174900532e+00
    2.7720767212e+02   -3.0906999111e+00
    2.7730764771e+02   -3.0639998913e+00
    2.7740768433e+02   -3.0373799801e+00
    2.7750765991e+02   -3.0108399391e+00
    2.7760766602e+02   -2.9843800068e+00
    2.7770770264e+02   -2.9579899311e+00
    2.7780767822e+02   -2.9316999912e+00
    2.7790771484e+02   -2.9054698944e+00
    2.7800769043e+02   -2.8793199062e+00
    2.7810769653e+02   -2.8532600403e+00
    2.7820773315e+02   -2.8272500038e+00
    2.7830773926e+02   -2.8013300896e+00
    2.7840771484e+02   -2.7754900455e+00
    2.7850772095e+02   -2.7497100830e+00
    2.7860775757e+02   -2.7240099907e+00
    2.7870773315e+02   -2.6983900070e+00
    2.7880770874e+02   -2.6728498936e+00
    2.7890774536e+02   -2.6473600864e+00
    2.7900778198e+02   -2.6219499111e+00
    2.7910775757e+02   -2.5966200829e+00
    2.7920779419e+02   -2.5713400841e+00
    2.7930776978e+02   -2.5461599827e+00
    2.7940777588e+02   -2.5210199356e+00
    2.7950778198e+02   -2.4959599972e+00
    2.7960781860e+02   -2.4709498882e+00
    2.7970782471e+02   -2.4460101128e+00
    2.7980783081e+02   -2.4211399555e+00
    2.7990780640e+02   -2.3963398933e+00
    2.8000781250e+02   -2.3715898991e+00
    2.8010781860e+02   -2.3469099998e+00
    2.8020782471e+02   -2.3222899437e+00
    2.8030786133e+02   -2.2977299690e+00
    2.8040783691e+02   -2.2732400894e+00
    2.8050787354e+02   -2.2488000393e+00
    2.8060787964e+02   -2.2244200706e+00
    2.8070785522e+02   -2.2001099586e+00
    2.8080789185e+02   -2.1758399010e+00
    2.8090789795e+02   -2.1516399384e+00
    2.8100790405e+02   -2.1275000572e+00
    2.8110787964e+02   -2.1034200191e+00
    2.8120791626e+02   -2.0793800354e+00
    2.8130792236e+02   -2.0553998947e+00
    2.8140792847e+02   -2.0314500332e+00
    2.8150790405e+02   -2.0075700283e+00
    2.8160791016e+02   -1.9837299585e+00
    2.8170791626e+02   -1.9599399567e+00
    2.8180795288e+02   -1.9361900091e+00
    2.8190795898e+02   -1.9125000238e+00
    2.8200793457e+02   -1.8888700008e+00
    2.8210797119e+02   -1.8652700186e+00
    2.8220797729e+02   -1.8417199850e+00
    2.8230795288e+02   -1.8182300329e+00
    2.8240795898e+02   -1.7947700024e+00
    2.8250796509e+02   -1.7713700533e+00
    2.8260800171e+02   -1.7479900122e+00
    2.8270797729e+02   -1.7246700525e+00
    2.8280801392e+02   -1.7013800144e+00
    2.8290798950e+02   -1.6781300306e+00
    2.8300799561e+02   -1.6549199820e+00
    2.8310803223e+02   -1.6317299604e+00
    2.8320800781e+02   -1.6086100340e+00
    2.8330804443e+02   -1.5855100155e+00
    2.8340802002e+02   -1.5624699593e+00
    2.8350805664e+02   -1.5394500494e+00
    2.8360806274e+02   -1.5164699554e+00
    2.8370800781e+02   -1.4935400486e+00
    2.8380807495e+02   -1.4706200361e+00
    2.8390805054e+02   -1.4477599859e+00
    2.8400808716e+02   -1.4249199629e+00
    2.8410806274e+02   -1.4021400213e+00
    2.8420809937e+02   -1.3793900013e+00
    2.8430807495e+02   -1.3566800356e+00
    2.8440808105e+02   -1.3340100050e+00
    2.8450808716e+02   -1.3113700151e+00
    2.8460809326e+02   -1.2887699604e+00
    2.8470812988e+02   -1.2661999464e+00
    2.8480810547e+02   -1.2436800003e+00
    2.8490814209e+02   -1.2211799622e+00
    2.8500811768e+02   -1.1987400055e+00
    2.8510812378e+02   -1.1763199568e+00
    2.8520816040e+02   -1.1539299488e+00
    2.8530813599e+02   -1.1315799952e+00
    2.8540817261e+02   -1.1092599630e+00
    2.8550814819e+02   -1.0870000124e+00
    2.8560815430e+02   -1.0647699833e+00
    2.8570819092e+02   -1.0425699949e+00
    2.8580816650e+02   -1.0204299688e+00
    2.8590820312e+02   -9.9831098318e-01
    2.8600820923e+02   -9.7623699903e-01
    2.8610818481e+02   -9.5420801640e-01
    2.8620819092e+02   -9.3221300840e-01
    2.8630819702e+02   -9.1025799513e-01
    2.8640820312e+02   -8.8834398985e-01
    2.8650820923e+02   -8.6646699905e-01
    2.8660821533e+02   -8.4463399649e-01
    2.8670825195e+02   -8.2283097506e-01
    2.8680822754e+02   -8.0107498169e-01
    2.8690826416e+02   -7.7934497595e-01
    2.8700823975e+02   -7.5766599178e-01
    2.8710827637e+02   -7.3600900173e-01
    2.8720825195e+02   -7.1441000700e-01
    2.8730825806e+02   -6.9284099340e-01
    2.8740829468e+02   -6.7130702734e-01
    2.8750830078e+02   -6.4982098341e-01
    2.8760830688e+02   -6.2837201357e-01
    2.8770828247e+02   -6.0697698593e-01
    2.8780828857e+02   -5.8561402559e-01
    2.8790832520e+02   -5.6428498030e-01
    2.8800833130e+02   -5.4299998283e-01
    2.8810830688e+02   -5.2176499367e-01
    2.8820834351e+02   -5.0055199862e-01
    2.8830834961e+02   -4.7938099504e-01
    2.8840832520e+02   -4.5824900270e-01
    2.8850833130e+02   -4.3715500832e-01
    2.8860836792e+02   -4.1608899832e-01
    2.8870834351e+02   -3.9507800341e-01
    2.8880834961e+02   -3.7409600616e-01
    2.8890835571e+02   -3.5315299034e-01
    2.8900839233e+02   -3.3224499226e-01
    2.8910839844e+02   -3.1138199568e-01
    2.8920837402e+02   -2.9056400061e-01
    2.8930841064e+02   -2.6976901293e-01
    2.8940838623e+02   -2.4902500212e-01
    2.8950842285e+02   -2.2831200063e-01
    2.8960839844e+02   -2.0764400065e-01
    2.8970843506e+02   -1.8699699640e-01
    2.8980841064e+02   -1.6640299559e-01
    2.8990844727e+02   -1.4582799375e-01
    2.9000845337e+02   -1.2530000508e-01
    2.9010845947e+02   -1.0480599850e-01
    2.9020843506e+02   -8.4360696375e-02
    2.9030844116e+02   -6.3943997025e-02
    2.9040847778e+02   -4.3561499566e-02
    2.9050845337e+02   -2.3226799443e-02
    2.9060848999e+02   -2.9216399416e-03
    2.9070846558e+02    1.7333300784e-02
    2.9080850220e+02    3.7559799850e-02
    2.9090847778e+02    5.7736601681e-02
    2.9100854492e+02    7.7883496881e-02
    2.9110852051e+02    9.7979396582e-02
    2.9120849609e+02    1.1803200096e-01
    2.9130850220e+02    1.3805800676e-01
    2.9140850830e+02    1.5804800391e-01
    2.9150854492e+02    1.7800599337e-01
    2.9160855103e+02    1.9791600108e-01
    2.9170855713e+02    2.1778300405e-01
    2.9180856323e+02    2.3760199547e-01
    2.9190853882e+02    2.5737598538e-01
    2.9200854492e+02    2.7711400390e-01
    2.9210858154e+02    2.9680600762e-01
    2.9220855713e+02    3.1644800305e-01
    2.9230856323e+02    3.3604198694e-01
    2.9240859985e+02    3.5559499264e-01
    2.9250857544e+02    3.7509599328e-01
    2.9260858154e+02    3.9454698563e-01
    2.9270861816e+02    4.1395801306e-01
    2.9280862427e+02    4.3331798911e-01
    2.9290863037e+02    4.5263600349e-01
    2.9300860596e+02    4.7189900279e-01
    2.9310864258e+02    4.9112001061e-01
    2.9320864868e+02    5.1027697325e-01
    2.9330862427e+02    5.2937299013e-01
    2.9340866089e+02    5.4842400551e-01
    2.9350866699e+02    5.6742101908e-01
    2.9360864258e+02    5.8635497093e-01
    2.9370864868e+02    6.0524100065e-01
    2.9380868530e+02    6.2407100201e-01
    2.9390869141e+02    6.4284098148e-01
    2.9400866699e+02    6.6154599190e-01
    2.9410867310e+02    6.8019300699e-01
    2.9420870972e+02    6.9878900051e-01
    2.9430868530e+02    7.1731299162e-01
    2.9440872192e+02    7.3578500748e-01
    2.9450869751e+02    7.5418299437e-01
    2.9460870361e+02    7.7252799273e-01
    2.9470870972e+02    7.9081302881e-01
    2.9480874634e+02    8.0903601646e-01
    2.9490872192e+02    8.2718300819e-01
    2.9500872803e+02    8.4527301788e-01
    2.9510876465e+02    8.6331099272e-01
    2.9520874023e+02    8.8127499819e-01
    2.9530877686e+02    8.9919197559e-01
    2.9540875244e+02    9.1702997684e-01
    2.9550878906e+02    9.3480902910e-01
    2.9560879517e+02    9.5252197981e-01
    2.9570877075e+02    9.7016102076e-01
    2.9580877686e+02    9.8773998022e-01
    2.9590878296e+02    1.0052599907e+00
    2.9600881958e+02    1.0227099657e+00
    2.9610879517e+02    1.0400899649e+00
    2.9620880127e+02    1.0574100018e+00
    2.9630883789e+02    1.0746699572e+00
    2.9640881348e+02    1.0918400288e+00
    2.9650885010e+02    1.1089700460e+00
    2.9660882568e+02    1.1260199547e+00
    2.9670883179e+02    1.1430100203e+00
    2.9680886841e+02    1.1599400043e+00
    2.9690887451e+02    1.1768100262e+00
    2.9700885010e+02    1.1936099529e+00
    2.9710888672e+02    1.2103500366e+00
    2.9720889282e+02    1.2270200253e+00
    2.9730886841e+02    1.2436300516e+00
    2.9740887451e+02    1.2601799965e+00
    2.9750891113e+02    1.2766699791e+00
    2.9760891724e+02    1.2930899858e+00
    2.9770889282e+02    1.3094400167e+00
    2.9780889893e+02    1.3257199526e+00
    2.9790893555e+02    1.3419500589e+00
    2.9800894165e+02    1.3581199646e+00
    2.9810888672e+02    1.3742100000e+00
    2.9820895386e+02    1.3902499676e+00
    2.9830892944e+02    1.4062199593e+00
    2.9840896606e+02    1.4221299887e+00
    2.9850897217e+02    1.4379899502e+00
    2.9860897827e+02    1.4537700415e+00
    2.9870895386e+02    1.4694800377e+00
    2.9880899048e+02    1.4851399660e+00
    2.9890899658e+02    1.5007300377e+00
    2.9900900269e+02    1.5162400007e+00
    2.9910897827e+02    1.5316900015e+00
    2.9920898438e+02    1.5470700264e+00
    2.9930902100e+02    1.5623899698e+00
    2.9940902710e+02    1.5776400566e+00
    2.9950900269e+02    1.5928100348e+00
    2.9960900879e+02    1.6079299450e+00
    2.9970904541e+02    1.6229699850e+00
    2.9980905151e+02    1.6379400492e+00
    2.9990905762e+02    1.6528500319e+00
endcurve
