Curveplot
LS-DYNA keyword deck by LS-PrePost
Time
Yrot-displ
Rigid Body Ids
300001 #pts=1800
* Minval=    -1.1022183228e+02 at time=        89.4991531372
* Maxval=     3.6031188965e+01 at time=       179.9017028809
    0.0000000000e+00    1.0996686797e-06
    9.9951542914e-02    1.0392940339e-06
    1.9998230040e-01    9.0652588369e-07
    2.9998990893e-01    6.8649904961e-07
    3.9995259047e-01    3.6442565943e-07
    4.9997231364e-01   -7.3609754736e-08
    5.9999191761e-01   -6.3966183461e-07
    6.9998770952e-01   -1.3427352314e-06
    7.9997938871e-01   -2.1873970582e-06
    8.9995640516e-01   -3.1722020140e-06
    9.9995571375e-01   -4.2879501052e-06
    1.0999840498e+00   -5.5157865972e-06
    1.1999980211e+00   -6.8251974881e-06
    1.2999570370e+00   -8.1720027083e-06
    1.3999869823e+00   -9.4964425443e-06
    1.4999699593e+00   -1.0721450963e-05
    1.5999829769e+00   -1.1751363672e-05
    1.6999739408e+00   -1.2471520677e-05
    1.7999900579e+00   -1.2749107555e-05
    1.8999450207e+00   -1.2435343706e-05
    1.9999530315e+00   -1.1368894775e-05
    2.0999569893e+00   -9.3802373158e-06
    2.1999700069e+00   -6.2965445977e-06
    2.2999770641e+00   -1.9466638150e-06
    2.3999519348e+00    3.8342163862e-06
    2.4999980927e+00    1.1200384506e-05
    2.5999948978e+00    2.0291949113e-05
    2.6999700069e+00    3.1231826142e-05
    2.7999579906e+00    4.4123564294e-05
    2.8999938965e+00    5.9050209529e-05
    2.9999461174e+00    7.6074160461e-05
    3.0999929905e+00    9.5237795904e-05
    3.1999859810e+00    1.1656480638e-04
    3.2999889851e+00    1.4006196579e-04
    3.3999469280e+00    1.6572140157e-04
    3.4999909401e+00    1.9352312665e-04
    3.5999820232e+00    2.2343781893e-04
    3.6999840736e+00    2.5542979711e-04
    3.7999429703e+00    2.8945971280e-04
    3.8999910355e+00    3.2548693707e-04
    3.9999849796e+00    3.6347101559e-04
    4.0999960899e+00    4.0337216342e-04
    4.1999588013e+00    4.4515100308e-04
    4.2999591827e+00    4.8876763321e-04
    4.3999481201e+00    5.3418008611e-04
    4.4999899864e+00    5.8134237770e-04
    4.5999770164e+00    6.3020241214e-04
    4.6999797821e+00    6.8069895497e-04
    4.7999768257e+00    7.3275913019e-04
    4.8999729156e+00    7.8629615018e-04
    4.9999852180e+00    8.4120646352e-04
    5.0999970436e+00    8.9736725204e-04
    5.1999640465e+00    9.5463386970e-04
    5.2999668121e+00    1.0128370486e-03
    5.3999519348e+00    1.0717803380e-03
    5.4999938011e+00    1.1312377173e-03
    5.5999431610e+00    1.1909512104e-03
    5.6999788284e+00    1.2506279163e-03
    5.7999629974e+00    1.3099377975e-03
    5.8999509811e+00    1.3685107697e-03
    5.9999661446e+00    1.4259327436e-03
    6.0999841690e+00    1.4817427145e-03
    6.1999540329e+00    1.5354282223e-03
    6.2999458313e+00    1.5864215093e-03
    6.3999671936e+00    1.6340953298e-03
    6.4999709129e+00    1.6777588753e-03
    6.5999870300e+00    1.7166549806e-03
    6.6999487877e+00    1.7499579117e-03
    6.7999501228e+00    1.7767745303e-03
    6.8999619484e+00    1.7961440608e-03
    6.9999427795e+00    1.8070414662e-03
    7.0999941826e+00    1.8083789619e-03
    7.1999950409e+00    1.7990102060e-03
    7.2999768257e+00    1.7777347239e-03
    7.3999600410e+00    1.7433025641e-03
    7.4999489784e+00    1.6944205854e-03
    7.5999879837e+00    1.6297574621e-03
    7.6999650002e+00    1.5479505528e-03
    7.7999691963e+00    1.4476113720e-03
    7.8999509811e+00    1.3273314107e-03
    7.9999828339e+00    1.1856887722e-03
    8.0999822617e+00    1.0212545749e-03
    8.1999845505e+00    8.3260127576e-04
    8.2999677658e+00    6.1831064522e-04
    8.3999948502e+00    3.7698372034e-04
    8.4999847412e+00    1.0725124594e-04
    8.5999612808e+00   -1.9221390539e-04
    8.6999835968e+00   -5.2268302534e-04
    8.7999744415e+00   -8.8535581017e-04
    8.8999443054e+00   -1.2813428184e-03
    8.9999704361e+00   -1.7116463277e-03
    9.0999965668e+00   -2.1771416068e-03
    9.1999645233e+00   -2.6785572991e-03
    9.2999582291e+00   -3.2164603472e-03
    9.3999938965e+00   -3.7912433036e-03
    9.4999971390e+00   -4.4031180441e-03
    9.5999946594e+00   -5.0521194935e-03
    9.6999635696e+00   -5.7381209917e-03
    9.7999725342e+00   -6.4608640969e-03
    9.8999948502e+00   -7.2200084105e-03
    9.9999790192e+00   -8.0152023584e-03
    1.0099989891e+01   -8.8461786509e-03
    1.0199970245e+01   -9.7128776833e-03
    1.0299969673e+01   -1.0615599342e-02
    1.0399979591e+01   -1.1555188335e-02
    1.0500000000e+01   -1.2533240020e-02
    1.0599989891e+01   -1.3552341610e-02
    1.0699990273e+01   -1.4616327360e-02
    1.0799980164e+01   -1.5730554238e-02
    1.0899990082e+01   -1.6902178526e-02
    1.1000000000e+01   -1.8140412867e-02
    1.1099989891e+01   -1.9456772134e-02
    1.1199950218e+01   -2.0865267143e-02
    1.1299960136e+01   -2.2382510826e-02
    1.1399999619e+01   -2.4027738720e-02
    1.1500009537e+01   -2.5822691619e-02
    1.1599989891e+01   -2.7791339904e-02
    1.1699979782e+01   -2.9959391803e-02
    1.1799989700e+01   -3.2353583723e-02
    1.1899979591e+01   -3.5000693053e-02
    1.1999970436e+01   -3.7926271558e-02
    1.2099980354e+01   -4.1153155267e-02
    1.2199990273e+01   -4.4699911028e-02
    1.2299989700e+01   -4.8579562455e-02
    1.2399999619e+01   -5.2798807621e-02
    1.2499979973e+01   -5.7358011603e-02
    1.2599989891e+01   -6.2251906842e-02
    1.2700010300e+01   -6.7471019924e-02
    1.2800000191e+01   -7.3003411293e-02
    1.2899990082e+01   -7.8836522996e-02
    1.2999979973e+01   -8.4958918393e-02
    1.3100000381e+01   -9.1361731291e-02
    1.3199979782e+01   -9.8039828241e-02
    1.3299960136e+01   -1.0499263555e-01
    1.3400010109e+01   -1.1222454160e-01
    1.3500009537e+01   -1.1974497885e-01
    1.3599989891e+01   -1.2756796181e-01
    1.3699959755e+01   -1.3571125269e-01
    1.3800009727e+01   -1.4419507980e-01
    1.3899990082e+01   -1.5304067731e-01
    1.3999979973e+01   -1.6226847470e-01
    1.4099989891e+01   -1.7189662158e-01
    1.4199990273e+01   -1.8193967640e-01
    1.4299960136e+01   -1.9240818918e-01
    1.4399990082e+01   -2.0330889523e-01
    1.4499979973e+01   -2.1464563906e-01
    1.4599980354e+01   -2.2642084956e-01
    1.4699999809e+01   -2.3863719404e-01
    1.4800009727e+01   -2.5129911304e-01
    1.4900019646e+01   -2.6441431046e-01
    1.5000009537e+01   -2.7799445391e-01
    1.5100000381e+01   -2.9205554724e-01
    1.5200019836e+01   -3.0661791563e-01
    1.5300000191e+01   -3.2170546055e-01
    1.5399979591e+01   -3.3734452724e-01
    1.5499970436e+01   -3.5356283188e-01
    1.5599989891e+01   -3.7038803101e-01
    1.5699979782e+01   -3.8784679770e-01
    1.5799969673e+01   -4.0596419573e-01
    1.5899990082e+01   -4.2476335168e-01
    1.6000000000e+01   -4.4426605105e-01
    1.6100019455e+01   -4.6449324489e-01
    1.6199979782e+01   -4.8546585441e-01
    1.6300010681e+01   -5.0720560551e-01
    1.6399969101e+01   -5.2973556519e-01
    1.6499980927e+01   -5.5308008194e-01
    1.6599979401e+01   -5.7726430893e-01
    1.6699979782e+01   -6.0231316090e-01
    1.6800020218e+01   -6.2825018167e-01
    1.6900009155e+01   -6.5509611368e-01
    1.7000000000e+01   -6.8286764622e-01
    1.7100009918e+01   -7.1157670021e-01
    1.7200000763e+01   -7.4123001099e-01
    1.7299999237e+01   -7.7182972431e-01
    1.7399980545e+01   -8.0337440968e-01
    1.7500000000e+01   -8.3586049080e-01
    1.7600000381e+01   -8.6928421259e-01
    1.7699979782e+01   -9.0364313126e-01
    1.7799989700e+01   -9.3893766403e-01
    1.7899980545e+01   -9.7517210245e-01
    1.8000019073e+01   -1.0123546124e+00
    1.8100000381e+01   -1.0504972935e+00
    1.8200000763e+01   -1.0896151066e+00
    1.8299989700e+01   -1.1297243834e+00
    1.8400020599e+01   -1.1708418131e+00
    1.8499980927e+01   -1.2129831314e+00
    1.8600009918e+01   -1.2561621666e+00
    1.8700019836e+01   -1.3003907204e+00
    1.8799999237e+01   -1.3456786871e+00
    1.8899999619e+01   -1.3920344114e+00
    1.8999980927e+01   -1.4394664764e+00
    1.9100019455e+01   -1.4879842997e+00
    1.9200000763e+01   -1.5375990868e+00
    1.9299980164e+01   -1.5883247852e+00
    1.9399990082e+01   -1.6401779652e+00
    1.9500000000e+01   -1.6931780577e+00
    1.9599990845e+01   -1.7473462820e+00
    1.9700019836e+01   -1.8027049303e+00
    1.9799999237e+01   -1.8592765331e+00
    1.9899990082e+01   -1.9170826674e+00
    2.0000000000e+01   -1.9761434793e+00
    2.0100009918e+01   -2.0364775658e+00
    2.0200010300e+01   -2.0981020927e+00
    2.0299989700e+01   -2.1610321999e+00
    2.0400020599e+01   -2.2252826691e+00
    2.0499980927e+01   -2.2908685207e+00
    2.0600009918e+01   -2.3578040600e+00
    2.0700000763e+01   -2.4261047840e+00
    2.0800010681e+01   -2.4957859516e+00
    2.0899999619e+01   -2.5668621063e+00
    2.1000000000e+01   -2.6393470764e+00
    2.1100009918e+01   -2.7132523060e+00
    2.1200029373e+01   -2.7885868549e+00
    2.1300010681e+01   -2.8653554916e+00
    2.1399990082e+01   -2.9435603619e+00
    2.1500030518e+01   -3.0232005119e+00
    2.1600030899e+01   -3.1042723656e+00
    2.1700040817e+01   -3.1867718697e+00
    2.1799989700e+01   -3.2706947327e+00
    2.1899999619e+01   -3.3560392857e+00
    2.2000000000e+01   -3.4428050518e+00
    2.2100030899e+01   -3.5309956074e+00
    2.2200040817e+01   -3.6206169128e+00
    2.2300039291e+01   -3.7116785049e+00
    2.2400030136e+01   -3.8041906357e+00
    2.2500009537e+01   -3.8981657028e+00
    2.2600009918e+01   -3.9936153889e+00
    2.2700010300e+01   -4.0905499458e+00
    2.2799999237e+01   -4.1889786720e+00
    2.2900030136e+01   -4.2889103889e+00
    2.3000019073e+01   -4.3903508186e+00
    2.3100000381e+01   -4.4933061600e+00
    2.3200029373e+01   -4.5977821350e+00
    2.3300039291e+01   -4.7037854195e+00
    2.3400049210e+01   -4.8113236427e+00
    2.3500019073e+01   -4.9204063416e+00
    2.3600019455e+01   -5.0310459137e+00
    2.3700040817e+01   -5.1432542801e+00
    2.3799999237e+01   -5.2570438385e+00
    2.3900049210e+01   -5.3724279404e+00
    2.4000019073e+01   -5.4894189835e+00
    2.4100040436e+01   -5.6080269814e+00
    2.4200000763e+01   -5.7282619476e+00
    2.4300050735e+01   -5.8501310349e+00
    2.4400009155e+01   -5.9736418724e+00
    2.4500040054e+01   -6.0987992287e+00
    2.4600030899e+01   -6.2256093025e+00
    2.4700050354e+01   -6.3540773392e+00
    2.4800029755e+01   -6.4842085838e+00
    2.4900020599e+01   -6.6160097122e+00
    2.5000009537e+01   -6.7494864464e+00
    2.5100000381e+01   -6.8846430779e+00
    2.5200029373e+01   -7.0214838982e+00
    2.5300029755e+01   -7.1600093842e+00
    2.5399999619e+01   -7.3002185822e+00
    2.5500030518e+01   -7.4421091080e+00
    2.5600009918e+01   -7.5856747627e+00
    2.5700000763e+01   -7.7309098244e+00
    2.5800060272e+01   -7.8778057098e+00
    2.5900009155e+01   -8.0263557434e+00
    2.6000019073e+01   -8.1765527725e+00
    2.6100000381e+01   -8.3283910751e+00
    2.6200010300e+01   -8.4818696976e+00
    2.6300050735e+01   -8.6369867325e+00
    2.6400030136e+01   -8.7937431335e+00
    2.6500059128e+01   -8.9521427155e+00
    2.6600030899e+01   -9.1121864319e+00
    2.6700000763e+01   -9.2738790512e+00
    2.6799999237e+01   -9.4372196198e+00
    2.6900030136e+01   -9.6022129059e+00
    2.7000049591e+01   -9.7688570023e+00
    2.7100059509e+01   -9.9371538162e+00
    2.7200029373e+01   -1.0107102394e+01
    2.7300069809e+01   -1.0278703690e+01
    2.7400009155e+01   -1.0451959610e+01
    2.7500009537e+01   -1.0626871109e+01
    2.7600019455e+01   -1.0803442001e+01
    2.7700019836e+01   -1.0981673241e+01
    2.7800029755e+01   -1.1161569595e+01
    2.7900039673e+01   -1.1343132973e+01
    2.8000030518e+01   -1.1526365280e+01
    2.8100009918e+01   -1.1711267471e+01
    2.8200050354e+01   -1.1897840500e+01
    2.8300060272e+01   -1.2086082458e+01
    2.8400039673e+01   -1.2275989532e+01
    2.8500059128e+01   -1.2467557907e+01
    2.8600030899e+01   -1.2660784721e+01
    2.8700029373e+01   -1.2855664253e+01
    2.8800020218e+01   -1.3052192688e+01
    2.8900020599e+01   -1.3250366211e+01
    2.9000030518e+01   -1.3450180054e+01
    2.9100030899e+01   -1.3651630402e+01
    2.9200059891e+01   -1.3854711533e+01
    2.9300050735e+01   -1.4059416771e+01
    2.9400020599e+01   -1.4265739441e+01
    2.9500049591e+01   -1.4473670006e+01
    2.9600040436e+01   -1.4683196068e+01
    2.9700050354e+01   -1.4894306183e+01
    2.9800060272e+01   -1.5106987000e+01
    2.9900020599e+01   -1.5321225166e+01
    3.0000049591e+01   -1.5537008286e+01
    3.0100030899e+01   -1.5754324913e+01
    3.0200050354e+01   -1.5973168373e+01
    3.0300060272e+01   -1.6193529129e+01
    3.0400049210e+01   -1.6415403366e+01
    3.0500059128e+01   -1.6638784409e+01
    3.0600070953e+01   -1.6863672256e+01
    3.0700080872e+01   -1.7090061188e+01
    3.0800069809e+01   -1.7317945480e+01
    3.0900070190e+01   -1.7547321320e+01
    3.1000049591e+01   -1.7778184891e+01
    3.1100070953e+01   -1.8010526657e+01
    3.1200040817e+01   -1.8244337082e+01
    3.1300069809e+01   -1.8479610443e+01
    3.1400049210e+01   -1.8716335297e+01
    3.1500080109e+01   -1.8954502106e+01
    3.1600040436e+01   -1.9194108963e+01
    3.1700080872e+01   -1.9435140610e+01
    3.1800079346e+01   -1.9677595139e+01
    3.1900079727e+01   -1.9921466827e+01
    3.2000061035e+01   -2.0166746140e+01
    3.2100028992e+01   -2.0413425446e+01
    3.2200038910e+01   -2.0661497116e+01
    3.2300041199e+01   -2.0910951614e+01
    3.2400039673e+01   -2.1161777496e+01
    3.2500019073e+01   -2.1413961411e+01
    3.2600059509e+01   -2.1667493820e+01
    3.2700019836e+01   -2.1922359467e+01
    3.2800010681e+01   -2.2178543091e+01
    3.2900070190e+01   -2.2436029434e+01
    3.3000019073e+01   -2.2694805145e+01
    3.3100040436e+01   -2.2954858780e+01
    3.3200038910e+01   -2.3216176987e+01
    3.3300029755e+01   -2.3478744507e+01
    3.3400058746e+01   -2.3742547989e+01
    3.3500038147e+01   -2.4007574081e+01
    3.3599998474e+01   -2.4273807526e+01
    3.3700038910e+01   -2.4541229248e+01
    3.3799999237e+01   -2.4809822083e+01
    3.3900020599e+01   -2.5079568863e+01
    3.4000038147e+01   -2.5350450516e+01
    3.4100051880e+01   -2.5622449875e+01
    3.4200038910e+01   -2.5895551682e+01
    3.4300041199e+01   -2.6169734955e+01
    3.4400009155e+01   -2.6444990158e+01
    3.4500019073e+01   -2.6721298218e+01
    3.4600028992e+01   -2.6998649597e+01
    3.4700000763e+01   -2.7277029037e+01
    3.4800029755e+01   -2.7556423187e+01
    3.4900009155e+01   -2.7836816788e+01
    3.5000011444e+01   -2.8118192673e+01
    3.5100021362e+01   -2.8400535583e+01
    3.5199981689e+01   -2.8683826447e+01
    3.5299999237e+01   -2.8968044281e+01
    3.5399978638e+01   -2.9253170013e+01
    3.5500019073e+01   -2.9539180756e+01
    3.5599990845e+01   -2.9826065063e+01
    3.5699981689e+01   -3.0113805771e+01
    3.5799980164e+01   -3.0402395248e+01
    3.5900020599e+01   -3.0691820145e+01
    3.5999988556e+01   -3.0982069016e+01
    3.6099971771e+01   -3.1273128510e+01
    3.6200008392e+01   -3.1564977646e+01
    3.6299961090e+01   -3.1857597351e+01
    3.6400009155e+01   -3.2150974274e+01
    3.6499988556e+01   -3.2445091248e+01
    3.6599971771e+01   -3.2739936829e+01
    3.6700000763e+01   -3.3035514832e+01
    3.6799949646e+01   -3.3331809998e+01
    3.6899959564e+01   -3.3628822327e+01
    3.7000000000e+01   -3.3926540375e+01
    3.7099960327e+01   -3.4224952698e+01
    3.7199989319e+01   -3.4524044037e+01
    3.7299980164e+01   -3.4823802948e+01
    3.7399971008e+01   -3.5124217987e+01
    3.7500000000e+01   -3.5425281525e+01
    3.7599948883e+01   -3.5726989746e+01
    3.7699939728e+01   -3.6029346466e+01
    3.7799980164e+01   -3.6332344055e+01
    3.7899978638e+01   -3.6635993958e+01
    3.7999950409e+01   -3.6940280914e+01
    3.8099960327e+01   -3.7245204926e+01
    3.8199939728e+01   -3.7550762177e+01
    3.8299949646e+01   -3.7856945038e+01
    3.8399940491e+01   -3.8163749695e+01
    3.8499950409e+01   -3.8471187592e+01
    3.8599918365e+01   -3.8779258728e+01
    3.8699970245e+01   -3.9087966919e+01
    3.8799930573e+01   -3.9397315979e+01
    3.8899959564e+01   -3.9707305908e+01
    3.8999950409e+01   -4.0017925262e+01
    3.9099948883e+01   -4.0329174042e+01
    3.9199951172e+01   -4.0641044617e+01
    3.9299930573e+01   -4.0953533173e+01
    3.9399959564e+01   -4.1266628265e+01
    3.9499931335e+01   -4.1580333710e+01
    3.9599929810e+01   -4.1894645691e+01
    3.9699920654e+01   -4.2209556580e+01
    3.9799949646e+01   -4.2525062561e+01
    3.9899909973e+01   -4.2841156006e+01
    3.9999900818e+01   -4.3157817841e+01
    4.0099941254e+01   -4.3475051880e+01
    4.0199928284e+01   -4.3792842865e+01
    4.0299930573e+01   -4.4111190796e+01
    4.0399909973e+01   -4.4430084229e+01
    4.0499950409e+01   -4.4749523163e+01
    4.0599948883e+01   -4.5069503784e+01
    4.0699951172e+01   -4.5390018463e+01
    4.0799900055e+01   -4.5711067200e+01
    4.0899921417e+01   -4.6032642365e+01
    4.0999900818e+01   -4.6354736328e+01
    4.1099918365e+01   -4.6677341461e+01
    4.1199901581e+01   -4.7000453949e+01
    4.1299880981e+01   -4.7324069977e+01
    4.1399898529e+01   -4.7648181915e+01
    4.1499908447e+01   -4.7972789764e+01
    4.1599910736e+01   -4.8297893524e+01
    4.1699878693e+01   -4.8623481750e+01
    4.1799930573e+01   -4.8949550629e+01
    4.1899890900e+01   -4.9276100159e+01
    4.1999919891e+01   -4.9603126526e+01
    4.2099918365e+01   -4.9930622101e+01
    4.2199878693e+01   -5.0258583069e+01
    4.2299919128e+01   -5.0587001801e+01
    4.2399879456e+01   -5.0915870667e+01
    4.2499889374e+01   -5.1245185852e+01
    4.2599868774e+01   -5.1574935913e+01
    4.2699878693e+01   -5.1905120850e+01
    4.2799869537e+01   -5.2235733032e+01
    4.2899890900e+01   -5.2566768646e+01
    4.2999870300e+01   -5.2898220062e+01
    4.3099861145e+01   -5.3230087280e+01
    4.3199871063e+01   -5.3562366486e+01
    4.3299900055e+01   -5.3895057678e+01
    4.3399860382e+01   -5.4228153229e+01
    4.3499889374e+01   -5.4561649323e+01
    4.3599849701e+01   -5.4895530701e+01
    4.3699859619e+01   -5.5229785919e+01
    4.3799850464e+01   -5.5564392090e+01
    4.3899871826e+01   -5.5899330139e+01
    4.3999889374e+01   -5.6234573364e+01
    4.4099868774e+01   -5.6570087433e+01
    4.4199878693e+01   -5.6905841827e+01
    4.4299869537e+01   -5.7241806030e+01
    4.4399848938e+01   -5.7577945709e+01
    4.4499881744e+01   -5.7914237976e+01
    4.4599849701e+01   -5.8250656128e+01
    4.4699859619e+01   -5.8587200165e+01
    4.4799839020e+01   -5.8923862457e+01
    4.4899879456e+01   -5.9260635376e+01
    4.4999858856e+01   -5.9597530365e+01
    4.5099849701e+01   -5.9934535980e+01
    4.5199821472e+01   -6.0271667480e+01
    4.5299819946e+01   -6.0608924866e+01
    4.5399879456e+01   -6.0946292877e+01
    4.5499870300e+01   -6.1283767700e+01
    4.5599849701e+01   -6.1621330261e+01
    4.5699821472e+01   -6.1958965302e+01
    4.5799839020e+01   -6.2296672821e+01
    4.5899871826e+01   -6.2634426117e+01
    4.5999839783e+01   -6.2972206116e+01
    4.6099868774e+01   -6.3309993744e+01
    4.6199848175e+01   -6.3647762299e+01
    4.6299850464e+01   -6.3985485077e+01
    4.6399810791e+01   -6.4323143005e+01
    4.6499809265e+01   -6.4660713196e+01
    4.6599830627e+01   -6.4998168945e+01
    4.6699829102e+01   -6.5335502625e+01
    4.6799850464e+01   -6.5672676086e+01
    4.6899841309e+01   -6.6009658813e+01
    4.6999820709e+01   -6.6346405029e+01
    4.7099800110e+01   -6.6682876587e+01
    4.7199821472e+01   -6.7019004822e+01
    4.7299789429e+01   -6.7354751587e+01
    4.7399841309e+01   -6.7690040588e+01
    4.7499790192e+01   -6.8024803162e+01
    4.7599781036e+01   -6.8358993530e+01
    4.7699790955e+01   -6.8692543030e+01
    4.7799808502e+01   -6.9025405884e+01
    4.7899799347e+01   -6.9357559204e+01
    4.7999790192e+01   -6.9688980103e+01
    4.8099811554e+01   -7.0019660950e+01
    4.8199821472e+01   -7.0349617004e+01
    4.8299789429e+01   -7.0678848267e+01
    4.8399818420e+01   -7.1007347107e+01
    4.8499828339e+01   -7.1335121155e+01
    4.8599769592e+01   -7.1662170410e+01
    4.8699779510e+01   -7.1988471985e+01
    4.8799819946e+01   -7.2314025879e+01
    4.8899810791e+01   -7.2638778687e+01
    4.8999790192e+01   -7.2962692261e+01
    4.9099811554e+01   -7.3285720825e+01
    4.9199779510e+01   -7.3607803345e+01
    4.9299789429e+01   -7.3928886414e+01
    4.9399768829e+01   -7.4248939514e+01
    4.9499801636e+01   -7.4567909241e+01
    4.9599769592e+01   -7.4885787964e+01
    4.9699760437e+01   -7.5202522278e+01
    4.9799758911e+01   -7.5518096924e+01
    4.9899810791e+01   -7.5832466125e+01
    4.9999790192e+01   -7.6145591736e+01
    5.0099750519e+01   -7.6457420349e+01
    5.0199779510e+01   -7.6767921448e+01
    5.0299789429e+01   -7.7077049255e+01
    5.0399738312e+01   -7.7384780884e+01
    5.0499771118e+01   -7.7691070557e+01
    5.0599739075e+01   -7.7995895386e+01
    5.0699741364e+01   -7.8299240112e+01
    5.0799789429e+01   -7.8601066589e+01
    5.0899780273e+01   -7.8901374817e+01
    5.0999759674e+01   -7.9200164795e+01
    5.1099739075e+01   -7.9497421265e+01
    5.1199760437e+01   -7.9793151855e+01
    5.1299789429e+01   -8.0087333679e+01
    5.1399738312e+01   -8.0379981995e+01
    5.1499771118e+01   -8.0671066284e+01
    5.1599781036e+01   -8.0960578918e+01
    5.1699748993e+01   -8.1248504639e+01
    5.1799770355e+01   -8.1534805298e+01
    5.1899738312e+01   -8.1819465637e+01
    5.1999771118e+01   -8.2102439880e+01
    5.2099750519e+01   -8.2383697510e+01
    5.2199710846e+01   -8.2663208008e+01
    5.2299770355e+01   -8.2940933228e+01
    5.2399761200e+01   -8.3216835022e+01
    5.2499729156e+01   -8.3490882874e+01
    5.2599739075e+01   -8.3763023376e+01
    5.2699718475e+01   -8.4033233643e+01
    5.2799758911e+01   -8.4301483154e+01
    5.2899719238e+01   -8.4567741394e+01
    5.2999759674e+01   -8.4831985474e+01
    5.3099708557e+01   -8.5094184875e+01
    5.3199718475e+01   -8.5354324341e+01
    5.3299728394e+01   -8.5612373352e+01
    5.3399730682e+01   -8.5868324280e+01
    5.3499740601e+01   -8.6122169495e+01
    5.3599700928e+01   -8.6373893738e+01
    5.3699748993e+01   -8.6623504639e+01
    5.3799709320e+01   -8.6870986938e+01
    5.3899749756e+01   -8.7116348267e+01
    5.3999729156e+01   -8.7359588623e+01
    5.4099720001e+01   -8.7600692749e+01
    5.4199710846e+01   -8.7839668274e+01
    5.4299720764e+01   -8.8076507568e+01
    5.4399730682e+01   -8.8311210632e+01
    5.4499721527e+01   -8.8543762207e+01
    5.4599708557e+01   -8.8774162292e+01
    5.4699710846e+01   -8.9002388000e+01
    5.4799709320e+01   -8.9228439331e+01
    5.4899730682e+01   -8.9452308655e+01
    5.4999698639e+01   -8.9673965454e+01
    5.5099720001e+01   -8.9893409729e+01
    5.5199691772e+01   -9.0110618591e+01
    5.5299690247e+01   -9.0325569153e+01
    5.5399681091e+01   -9.0538246155e+01
    5.5499691010e+01   -9.0748634338e+01
    5.5599681854e+01   -9.0956710815e+01
    5.5699691772e+01   -9.1162460327e+01
    5.5799709320e+01   -9.1365875244e+01
    5.5899700165e+01   -9.1566940308e+01
    5.5999698639e+01   -9.1765647888e+01
    5.6099700928e+01   -9.1961997986e+01
    5.6199680328e+01   -9.2155982971e+01
    5.6299709320e+01   -9.2347618103e+01
    5.6399681091e+01   -9.2536888123e+01
    5.6499660492e+01   -9.2723808289e+01
    5.6599670410e+01   -9.2908386230e+01
    5.6699680328e+01   -9.3090621948e+01
    5.6799659729e+01   -9.3270538330e+01
    5.6899650574e+01   -9.3448120117e+01
    5.6999668121e+01   -9.3623397827e+01
    5.7099700928e+01   -9.3796363831e+01
    5.7199680328e+01   -9.3967025757e+01
    5.7299671173e+01   -9.4135391235e+01
    5.7399650574e+01   -9.4301467896e+01
    5.7499649048e+01   -9.4465248108e+01
    5.7599651337e+01   -9.4626739502e+01
    5.7699638367e+01   -9.4785942078e+01
    5.7799659729e+01   -9.4942855835e+01
    5.7899650574e+01   -9.5097480774e+01
    5.7999668121e+01   -9.5249824524e+01
    5.8099681854e+01   -9.5399887085e+01
    5.8199638367e+01   -9.5547668457e+01
    5.8299659729e+01   -9.5693191528e+01
    5.8399669647e+01   -9.5836441040e+01
    5.8499660492e+01   -9.5977439880e+01
    5.8599651337e+01   -9.6116188049e+01
    5.8699638367e+01   -9.6252708435e+01
    5.8799640656e+01   -9.6387001038e+01
    5.8899631500e+01   -9.6519088745e+01
    5.8999629974e+01   -9.6648986816e+01
    5.9099639893e+01   -9.6776695251e+01
    5.9199630737e+01   -9.6902244568e+01
    5.9299659729e+01   -9.7025642395e+01
    5.9399639130e+01   -9.7146896362e+01
    5.9499618530e+01   -9.7266036987e+01
    5.9599651337e+01   -9.7383071899e+01
    5.9699611664e+01   -9.7498046875e+01
    5.9799598694e+01   -9.7610961914e+01
    5.9899600983e+01   -9.7721855164e+01
    5.9999599457e+01   -9.7830726624e+01
    6.0099609375e+01   -9.7937599182e+01
    6.0199600220e+01   -9.8042472839e+01
    6.0299610138e+01   -9.8145370483e+01
    6.0399639130e+01   -9.8246292114e+01
    6.0499599457e+01   -9.8345275879e+01
    6.0599590302e+01   -9.8442321777e+01
    6.0699611664e+01   -9.8537452698e+01
    6.0799598694e+01   -9.8630683899e+01
    6.0899620056e+01   -9.8722030640e+01
    6.0999599457e+01   -9.8811508179e+01
    6.1099609375e+01   -9.8899139404e+01
    6.1199581146e+01   -9.8984954834e+01
    6.1299591064e+01   -9.9068962097e+01
    6.1399600983e+01   -9.9151206970e+01
    6.1499629974e+01   -9.9231704712e+01
    6.1599609375e+01   -9.9310462952e+01
    6.1699569702e+01   -9.9387535095e+01
    6.1799591064e+01   -9.9462936401e+01
    6.1899589539e+01   -9.9536705017e+01
    6.1999610901e+01   -9.9608871460e+01
    6.2099578857e+01   -9.9679466248e+01
    6.2199581146e+01   -9.9748504639e+01
    6.2299610138e+01   -9.9816009521e+01
    6.2399570465e+01   -9.9882003784e+01
    6.2499580383e+01   -9.9946510315e+01
    6.2599559784e+01   -1.0000955200e+02
    6.2699611664e+01   -1.0007115173e+02
    6.2799579620e+01   -1.0013135529e+02
    6.2899570465e+01   -1.0019018555e+02
    6.2999580383e+01   -1.0024765015e+02
    6.3099571228e+01   -1.0030376434e+02
    6.3199588776e+01   -1.0035855865e+02
    6.3299568176e+01   -1.0041204071e+02
    6.3399570465e+01   -1.0046425629e+02
    6.3499580383e+01   -1.0051522827e+02
    6.3599559784e+01   -1.0056500244e+02
    6.3699581146e+01   -1.0061362457e+02
    6.3799591064e+01   -1.0066112518e+02
    6.3899570465e+01   -1.0070753479e+02
    6.3999549866e+01   -1.0075287628e+02
    6.4099586487e+01   -1.0079716492e+02
    6.4199539185e+01   -1.0084040070e+02
    6.4299552917e+01   -1.0088260651e+02
    6.4399559021e+01   -1.0092382812e+02
    6.4499572754e+01   -1.0096411133e+02
    6.4599563599e+01   -1.0100350189e+02
    6.4699531555e+01   -1.0104208374e+02
    6.4799552917e+01   -1.0107991791e+02
    6.4899551392e+01   -1.0111704254e+02
    6.4999572754e+01   -1.0115350342e+02
    6.5099548340e+01   -1.0118931580e+02
    6.5199539185e+01   -1.0122448730e+02
    6.5299583435e+01   -1.0125901031e+02
    6.5399520874e+01   -1.0129283142e+02
    6.5499549866e+01   -1.0132591248e+02
    6.5599548340e+01   -1.0135820007e+02
    6.5699546814e+01   -1.0138963318e+02
    6.5799507141e+01   -1.0142017365e+02
    6.5899520874e+01   -1.0144979858e+02
    6.5999549866e+01   -1.0147850037e+02
    6.6099548340e+01   -1.0150633240e+02
    6.6199501038e+01   -1.0153333282e+02
    6.6299507141e+01   -1.0155957794e+02
    6.6399520874e+01   -1.0158515930e+02
    6.6499496460e+01   -1.0161016846e+02
    6.6599533081e+01   -1.0163470459e+02
    6.6699516296e+01   -1.0165887451e+02
    6.6799522400e+01   -1.0168273926e+02
    6.6899497986e+01   -1.0170639801e+02
    6.6999496460e+01   -1.0172991180e+02
    6.7099533081e+01   -1.0175334930e+02
    6.7199539185e+01   -1.0177674866e+02
    6.7299491882e+01   -1.0180014801e+02
    6.7399490356e+01   -1.0182359314e+02
    6.7499511719e+01   -1.0184708405e+02
    6.7599487305e+01   -1.0187064362e+02
    6.7699531555e+01   -1.0189428711e+02
    6.7799476624e+01   -1.0191799927e+02
    6.7899513245e+01   -1.0194178009e+02
    6.7999519348e+01   -1.0196562195e+02
    6.8099479675e+01   -1.0198950958e+02
    6.8199501038e+01   -1.0201343536e+02
    6.8299499512e+01   -1.0203737640e+02
    6.8399482727e+01   -1.0206130219e+02
    6.8499481201e+01   -1.0208521271e+02
    6.8599487305e+01   -1.0210908508e+02
    6.8699470520e+01   -1.0213289642e+02
    6.8799476624e+01   -1.0215663147e+02
    6.8899482727e+01   -1.0218027496e+02
    6.8999488831e+01   -1.0220381927e+02
    6.9099456787e+01   -1.0222726440e+02
    6.9199501038e+01   -1.0225061035e+02
    6.9299476624e+01   -1.0227385712e+02
    6.9399452209e+01   -1.0229701996e+02
    6.9499473572e+01   -1.0232009888e+02
    6.9599479675e+01   -1.0234310150e+02
    6.9699470520e+01   -1.0236608124e+02
    6.9799461365e+01   -1.0238905334e+02
    6.9899467468e+01   -1.0241208649e+02
    6.9999473572e+01   -1.0243521881e+02
    7.0099472046e+01   -1.0245854187e+02
    7.0199493408e+01   -1.0248210144e+02
    7.0299468994e+01   -1.0250598145e+02
    7.0399467468e+01   -1.0253026581e+02
    7.0499488831e+01   -1.0255502319e+02
    7.0599441528e+01   -1.0258034515e+02
    7.0699440002e+01   -1.0260629272e+02
    7.0799438477e+01   -1.0263295746e+02
    7.0899459839e+01   -1.0266040039e+02
    7.0999481201e+01   -1.0268864441e+02
    7.1099426270e+01   -1.0271771240e+02
    7.1199432373e+01   -1.0274760437e+02
    7.1299438477e+01   -1.0277828217e+02
    7.1399436951e+01   -1.0280967712e+02
    7.1499473572e+01   -1.0284172058e+02
    7.1599426270e+01   -1.0287432861e+02
    7.1699470520e+01   -1.0290739441e+02
    7.1799461365e+01   -1.0294084167e+02
    7.1899467468e+01   -1.0297459412e+02
    7.1999443054e+01   -1.0300858307e+02
    7.2099426270e+01   -1.0304273987e+02
    7.2199462891e+01   -1.0307704926e+02
    7.2299430847e+01   -1.0311147308e+02
    7.2399406433e+01   -1.0314602661e+02
    7.2499427795e+01   -1.0318071747e+02
    7.2599418640e+01   -1.0321559906e+02
    7.2699462891e+01   -1.0325070953e+02
    7.2799423218e+01   -1.0328612518e+02
    7.2899398804e+01   -1.0332190704e+02
    7.2999427795e+01   -1.0335816193e+02
    7.3099426270e+01   -1.0339496613e+02
    7.3199440002e+01   -1.0343241119e+02
    7.3299400330e+01   -1.0347055817e+02
    7.3399391174e+01   -1.0350948334e+02
    7.3499427795e+01   -1.0354922485e+02
    7.3599426270e+01   -1.0358979797e+02
    7.3699386597e+01   -1.0363118744e+02
    7.3799423218e+01   -1.0367337036e+02
    7.3899421692e+01   -1.0371628571e+02
    7.3999397278e+01   -1.0375986481e+02
    7.4099380493e+01   -1.0380401611e+02
    7.4199409485e+01   -1.0384864807e+02
    7.4299392700e+01   -1.0389366913e+02
    7.4399429321e+01   -1.0393898773e+02
    7.4499397278e+01   -1.0398453522e+02
    7.4599388123e+01   -1.0403023529e+02
    7.4699409485e+01   -1.0407604980e+02
    7.4799369812e+01   -1.0412193298e+02
    7.4899368286e+01   -1.0416786957e+02
    7.4999397278e+01   -1.0421385956e+02
    7.5099403381e+01   -1.0425991821e+02
    7.5199371338e+01   -1.0430606842e+02
    7.5299423218e+01   -1.0435237122e+02
    7.5399398804e+01   -1.0439886475e+02
    7.5499382019e+01   -1.0444563293e+02
    7.5599372864e+01   -1.0449275208e+02
    7.5699401855e+01   -1.0454029846e+02
    7.5799407959e+01   -1.0458834839e+02
    7.5899398804e+01   -1.0463695526e+02
    7.5999397278e+01   -1.0468616486e+02
    7.6099372864e+01   -1.0473600769e+02
    7.6199363708e+01   -1.0478651428e+02
    7.6299362183e+01   -1.0483767700e+02
    7.6399353027e+01   -1.0488950348e+02
    7.6499366760e+01   -1.0494198608e+02
    7.6599372864e+01   -1.0499510956e+02
    7.6699386597e+01   -1.0504885101e+02
    7.6799339294e+01   -1.0510317230e+02
    7.6899360657e+01   -1.0515802002e+02
    7.6999336243e+01   -1.0521335602e+02
    7.7099349976e+01   -1.0526911163e+02
    7.7199386597e+01   -1.0532522583e+02
    7.7299392700e+01   -1.0538163757e+02
    7.7399368286e+01   -1.0543828583e+02
    7.7499359131e+01   -1.0549510193e+02
    7.7599327087e+01   -1.0555202484e+02
    7.7699371338e+01   -1.0560901642e+02
    7.7799362183e+01   -1.0566603851e+02
    7.7899322510e+01   -1.0572306061e+02
    7.7999320984e+01   -1.0578005981e+02
    7.8099349976e+01   -1.0583702087e+02
    7.8199363708e+01   -1.0589393616e+02
    7.8299316406e+01   -1.0595080566e+02
    7.8399322510e+01   -1.0600760651e+02
    7.8499320984e+01   -1.0606434631e+02
    7.8599327087e+01   -1.0612103271e+02
    7.8699363708e+01   -1.0617768860e+02
    7.8799316406e+01   -1.0623430634e+02
    7.8899307251e+01   -1.0629089355e+02
    7.8999351501e+01   -1.0634746552e+02
    7.9099349976e+01   -1.0640402222e+02
    7.9199302673e+01   -1.0646058655e+02
    7.9299301147e+01   -1.0651715851e+02
    7.9399299622e+01   -1.0657376862e+02
    7.9499328613e+01   -1.0663040161e+02
    7.9599311829e+01   -1.0668708038e+02
    7.9699302673e+01   -1.0674379730e+02
    7.9799308777e+01   -1.0680056000e+02
    7.9899307251e+01   -1.0685736847e+02
    7.9999298096e+01   -1.0691422272e+02
    8.0099311829e+01   -1.0697113800e+02
    8.0199340820e+01   -1.0702809143e+02
    8.0299339294e+01   -1.0708509064e+02
    8.0399291992e+01   -1.0714212036e+02
    8.0499313354e+01   -1.0719915009e+02
    8.0599296570e+01   -1.0725617218e+02
    8.0699279785e+01   -1.0731315613e+02
    8.0799316406e+01   -1.0737004852e+02
    8.0899322510e+01   -1.0742682648e+02
    8.0999313354e+01   -1.0748342133e+02
    8.1099296570e+01   -1.0753977966e+02
    8.1199333191e+01   -1.0759583282e+02
    8.1299308777e+01   -1.0765151978e+02
    8.1399269104e+01   -1.0770677185e+02
    8.1499282837e+01   -1.0776152802e+02
    8.1599319458e+01   -1.0781574249e+02
    8.1699317932e+01   -1.0786936951e+02
    8.1799293518e+01   -1.0792239380e+02
    8.1899261475e+01   -1.0797478485e+02
    8.1999290466e+01   -1.0802654266e+02
    8.2099288940e+01   -1.0807765961e+02
    8.2199302673e+01   -1.0812814331e+02
    8.2299293518e+01   -1.0817800140e+02
    8.2399246216e+01   -1.0822725677e+02
    8.2499259949e+01   -1.0827594757e+02
    8.2599281311e+01   -1.0832411194e+02
    8.2699279785e+01   -1.0837179565e+02
    8.2799293518e+01   -1.0841905212e+02
    8.2899276733e+01   -1.0846591949e+02
    8.2999259949e+01   -1.0851245880e+02
    8.3099288940e+01   -1.0855869293e+02
    8.3199256897e+01   -1.0860466003e+02
    8.3299293518e+01   -1.0865036011e+02
    8.3399291992e+01   -1.0869581604e+02
    8.3499252319e+01   -1.0874100494e+02
    8.3599273682e+01   -1.0878591156e+02
    8.3699256897e+01   -1.0883052063e+02
    8.3799263000e+01   -1.0887476349e+02
    8.3899261475e+01   -1.0891859436e+02
    8.3999237061e+01   -1.0896194458e+02
    8.4099258423e+01   -1.0900473785e+02
    8.4199256897e+01   -1.0904689789e+02
    8.4299263000e+01   -1.0908837128e+02
    8.4399223328e+01   -1.0912911224e+02
    8.4499229431e+01   -1.0916909790e+02
    8.4599250793e+01   -1.0920831299e+02
    8.4699256897e+01   -1.0924677277e+02
    8.4799263000e+01   -1.0928450775e+02
    8.4899238586e+01   -1.0932153320e+02
    8.4999237061e+01   -1.0935790253e+02
    8.5099227905e+01   -1.0939364624e+02
    8.5199256897e+01   -1.0942878723e+02
    8.5299217224e+01   -1.0946333313e+02
    8.5399223328e+01   -1.0949729919e+02
    8.5499206543e+01   -1.0953066254e+02
    8.5599243164e+01   -1.0956339264e+02
    8.5699249268e+01   -1.0959545898e+02
    8.5799209595e+01   -1.0962680817e+02
    8.5899223328e+01   -1.0965740967e+02
    8.5999206543e+01   -1.0968721771e+02
    8.6099227905e+01   -1.0971620178e+02
    8.6199203491e+01   -1.0974433136e+02
    8.6299232483e+01   -1.0977161407e+02
    8.6399200439e+01   -1.0979804993e+02
    8.6499237061e+01   -1.0982366180e+02
    8.6599243164e+01   -1.0984848785e+02
    8.6699241638e+01   -1.0987255859e+02
    8.6799217224e+01   -1.0989591980e+02
    8.6899230957e+01   -1.0991857910e+02
    8.6999183655e+01   -1.0994054413e+02
    8.7099243164e+01   -1.0996179199e+02
    8.7199218750e+01   -1.0998230743e+02
    8.7299186707e+01   -1.1000205231e+02
    8.7399230957e+01   -1.1002098083e+02
    8.7499198914e+01   -1.1003905487e+02
    8.7599166870e+01   -1.1005625916e+02
    8.7699172974e+01   -1.1007257843e+02
    8.7799179077e+01   -1.1008802032e+02
    8.7899223328e+01   -1.1010261536e+02
    8.7999183655e+01   -1.1011639404e+02
    8.8099182129e+01   -1.1012937164e+02
    8.8199172974e+01   -1.1014157104e+02
    8.8299209595e+01   -1.1015299225e+02
    8.8399200439e+01   -1.1016364288e+02
    8.8499183655e+01   -1.1017347717e+02
    8.8599197388e+01   -1.1018248749e+02
    8.8699188232e+01   -1.1019062042e+02
    8.8799156189e+01   -1.1019783783e+02
    8.8899192810e+01   -1.1020410156e+02
    8.8999153137e+01   -1.1020940399e+02
    8.9099197388e+01   -1.1021374512e+02
    8.9199172974e+01   -1.1021713257e+02
    8.9299201965e+01   -1.1021959686e+02
    8.9399147034e+01   -1.1022115326e+02
    8.9499153137e+01   -1.1022183228e+02
    8.9599197388e+01   -1.1022163391e+02
    8.9699172974e+01   -1.1022055817e+02
    8.9799156189e+01   -1.1021858978e+02
    8.9899177551e+01   -1.1021570587e+02
    8.9999153137e+01   -1.1021187592e+02
    9.0099166870e+01   -1.1020709229e+02
    9.0199188232e+01   -1.1020132446e+02
    9.0299171448e+01   -1.1019458008e+02
    9.0399139404e+01   -1.1018689728e+02
    9.0499153137e+01   -1.1017829132e+02
    9.0599166870e+01   -1.1016880798e+02
    9.0699142456e+01   -1.1015847778e+02
    9.0799156189e+01   -1.1014731598e+02
    9.0899147034e+01   -1.1013534546e+02
    9.0999153137e+01   -1.1012255859e+02
    9.1099159241e+01   -1.1010894012e+02
    9.1199172974e+01   -1.1009448242e+02
    9.1299118042e+01   -1.1007914734e+02
    9.1399116516e+01   -1.1006291962e+02
    9.1499153137e+01   -1.1004578400e+02
    9.1599113464e+01   -1.1002776337e+02
    9.1699142456e+01   -1.1000885773e+02
    9.1799110413e+01   -1.0998911285e+02
    9.1899162292e+01   -1.0996856689e+02
    9.1999122620e+01   -1.0994724274e+02
    9.2099113464e+01   -1.0992515564e+02
    9.2199127197e+01   -1.0990231323e+02
    9.2299110413e+01   -1.0987870789e+02
    9.2399108887e+01   -1.0985431671e+02
    9.2499130249e+01   -1.0982908630e+02
    9.2599098206e+01   -1.0980297852e+02
    9.2699142456e+01   -1.0977596283e+02
    9.2799133301e+01   -1.0974800110e+02
    9.2899116516e+01   -1.0971910095e+02
    9.2999137878e+01   -1.0968928528e+02
    9.3099121094e+01   -1.0965856934e+02
    9.3199142456e+01   -1.0962701416e+02
    9.3299102783e+01   -1.0959466553e+02
    9.3399093628e+01   -1.0956156158e+02
    9.3499130249e+01   -1.0952774048e+02
    9.3599128723e+01   -1.0949322510e+02
    9.3699096680e+01   -1.0945801544e+02
    9.3799110413e+01   -1.0942211914e+02
    9.3899108887e+01   -1.0938551331e+02
    9.3999076843e+01   -1.0934816742e+02
    9.4099113464e+01   -1.0931005859e+02
    9.4199111938e+01   -1.0927114105e+02
    9.4299118042e+01   -1.0923142242e+02
    9.4399116516e+01   -1.0919087982e+02
    9.4499076843e+01   -1.0914955139e+02
    9.4599121094e+01   -1.0910746765e+02
    9.4699089050e+01   -1.0906466675e+02
    9.4799110413e+01   -1.0902120209e+02
    9.4899078369e+01   -1.0897711945e+02
    9.4999076843e+01   -1.0893244934e+02
    9.5099098206e+01   -1.0888719940e+02
    9.5199096680e+01   -1.0884138489e+02
    9.5299057007e+01   -1.0879497528e+02
    9.5399063110e+01   -1.0874796295e+02
    9.5499092102e+01   -1.0870030975e+02
    9.5599052429e+01   -1.0865199280e+02
    9.5699050903e+01   -1.0860298920e+02
    9.5799049377e+01   -1.0855326843e+02
    9.5899047852e+01   -1.0850281525e+02
    9.5999099731e+01   -1.0845162964e+02
    9.6099052429e+01   -1.0839971924e+02
    9.6199073792e+01   -1.0834708405e+02
    9.6299041748e+01   -1.0829376984e+02
    9.6399070740e+01   -1.0823980713e+02
    9.6499038696e+01   -1.0818527222e+02
    9.6599037170e+01   -1.0813021088e+02
    9.6699043274e+01   -1.0807469177e+02
    9.6799057007e+01   -1.0801873779e+02
    9.6899047852e+01   -1.0796240234e+02
    9.6999031067e+01   -1.0790570068e+02
    9.7099067688e+01   -1.0784863281e+02
    9.7199073792e+01   -1.0779119110e+02
    9.7299057007e+01   -1.0773336792e+02
    9.7399017334e+01   -1.0767512512e+02
    9.7499046326e+01   -1.0761643219e+02
    9.7599037170e+01   -1.0755724335e+02
    9.7699020386e+01   -1.0749752045e+02
    9.7799072266e+01   -1.0743721771e+02
    9.7899063110e+01   -1.0737631226e+02
    9.7999038696e+01   -1.0731477356e+02
    9.8099037170e+01   -1.0725260162e+02
    9.8199073792e+01   -1.0718978882e+02
    9.8299057007e+01   -1.0712635803e+02
    9.8399040222e+01   -1.0706230164e+02
    9.8499061584e+01   -1.0699765015e+02
    9.8599021912e+01   -1.0693242645e+02
    9.8699028015e+01   -1.0686667633e+02
    9.8799026489e+01   -1.0680043793e+02
    9.8899017334e+01   -1.0673377228e+02
    9.8999031067e+01   -1.0666674042e+02
    9.9099006653e+01   -1.0659939575e+02
    9.9199012756e+01   -1.0653179169e+02
    9.9299011230e+01   -1.0646397400e+02
    9.9399040222e+01   -1.0639599609e+02
    9.9499038696e+01   -1.0632788086e+02
    9.9599037170e+01   -1.0625966644e+02
    9.9699012756e+01   -1.0619136810e+02
    9.9798988342e+01   -1.0612297058e+02
    9.9899017334e+01   -1.0605445862e+02
    9.9999038696e+01   -1.0598582458e+02
    1.0009899902e+02   -1.0591703033e+02
    1.0019899750e+02   -1.0584804535e+02
    1.0029900360e+02   -1.0577883148e+02
    1.0039900208e+02   -1.0570935822e+02
    1.0049900055e+02   -1.0563957977e+02
    1.0059899902e+02   -1.0556945801e+02
    1.0069899750e+02   -1.0549897003e+02
    1.0079900360e+02   -1.0542808533e+02
    1.0089900208e+02   -1.0535679626e+02
    1.0099900055e+02   -1.0528510284e+02
    1.0109899902e+02   -1.0521302032e+02
    1.0119899750e+02   -1.0514056396e+02
    1.0129900360e+02   -1.0506774139e+02
    1.0139900208e+02   -1.0499456787e+02
    1.0149900055e+02   -1.0492103577e+02
    1.0159899902e+02   -1.0484715271e+02
    1.0169899750e+02   -1.0477290344e+02
    1.0179900360e+02   -1.0469828796e+02
    1.0189900208e+02   -1.0462329102e+02
    1.0199900055e+02   -1.0454788971e+02
    1.0209899902e+02   -1.0447206116e+02
    1.0219899750e+02   -1.0439579010e+02
    1.0229900360e+02   -1.0431906128e+02
    1.0239900208e+02   -1.0424188232e+02
    1.0249900055e+02   -1.0416427612e+02
    1.0259899902e+02   -1.0408626556e+02
    1.0269899750e+02   -1.0400791168e+02
    1.0279900360e+02   -1.0392926025e+02
    1.0289890289e+02   -1.0385035706e+02
    1.0299900055e+02   -1.0377125549e+02
    1.0309899902e+02   -1.0369200134e+02
    1.0319899750e+02   -1.0361260986e+02
    1.0329900360e+02   -1.0353311920e+02
    1.0339900208e+02   -1.0345352936e+02
    1.0349900055e+02   -1.0337386322e+02
    1.0359899902e+02   -1.0329412079e+02
    1.0369899750e+02   -1.0321429443e+02
    1.0379889679e+02   -1.0313435364e+02
    1.0389890289e+02   -1.0305427551e+02
    1.0399890137e+02   -1.0297402191e+02
    1.0409899902e+02   -1.0289353180e+02
    1.0419899750e+02   -1.0281276703e+02
    1.0429900360e+02   -1.0273167419e+02
    1.0439890289e+02   -1.0265020752e+02
    1.0449890137e+02   -1.0256834412e+02
    1.0459889984e+02   -1.0248605347e+02
    1.0469899750e+02   -1.0240332031e+02
    1.0479900360e+02   -1.0232015991e+02
    1.0489890289e+02   -1.0223656464e+02
    1.0499890137e+02   -1.0215254211e+02
    1.0509889984e+02   -1.0206810760e+02
    1.0519889832e+02   -1.0198326111e+02
    1.0529889679e+02   -1.0189801025e+02
    1.0539890289e+02   -1.0181234741e+02
    1.0549890137e+02   -1.0172626495e+02
    1.0559889984e+02   -1.0163973999e+02
    1.0569889832e+02   -1.0155274200e+02
    1.0579889679e+02   -1.0146527100e+02
    1.0589890289e+02   -1.0137729645e+02
    1.0599890137e+02   -1.0128883362e+02
    1.0609889984e+02   -1.0119989014e+02
    1.0619889832e+02   -1.0111048126e+02
    1.0629889679e+02   -1.0102062225e+02
    1.0639890289e+02   -1.0093033600e+02
    1.0649890137e+02   -1.0083962250e+02
    1.0659889984e+02   -1.0074848175e+02
    1.0669889832e+02   -1.0065689850e+02
    1.0679889679e+02   -1.0056485748e+02
    1.0689890289e+02   -1.0047233582e+02
    1.0699890137e+02   -1.0037931061e+02
    1.0709889984e+02   -1.0028575897e+02
    1.0719889832e+02   -1.0019165802e+02
    1.0729889679e+02   -1.0009700012e+02
    1.0739890289e+02   -1.0000177002e+02
    1.0749890137e+02   -9.9905960083e+01
    1.0759889984e+02   -9.9809539795e+01
    1.0769889832e+02   -9.9712501526e+01
    1.0779889679e+02   -9.9614814758e+01
    1.0789890289e+02   -9.9516456604e+01
    1.0799890137e+02   -9.9417411804e+01
    1.0809889984e+02   -9.9317649841e+01
    1.0819889832e+02   -9.9217147827e+01
    1.0829889679e+02   -9.9115890503e+01
    1.0839890289e+02   -9.9013870239e+01
    1.0849890137e+02   -9.8911071777e+01
    1.0859889984e+02   -9.8807479858e+01
    1.0869889832e+02   -9.8703094482e+01
    1.0879889679e+02   -9.8597892761e+01
    1.0889890289e+02   -9.8491882324e+01
    1.0899890137e+02   -9.8385055542e+01
    1.0909889984e+02   -9.8277404785e+01
    1.0919889832e+02   -9.8168922424e+01
    1.0929879761e+02   -9.8059616089e+01
    1.0939880371e+02   -9.7949455261e+01
    1.0949890137e+02   -9.7838432312e+01
    1.0959880066e+02   -9.7726516724e+01
    1.0969879913e+02   -9.7613693237e+01
    1.0979879761e+02   -9.7499938965e+01
    1.0989880371e+02   -9.7385238647e+01
    1.0999890137e+02   -9.7269592285e+01
    1.1009889984e+02   -9.7152976990e+01
    1.1019879913e+02   -9.7035408020e+01
    1.1029889679e+02   -9.6916870117e+01
    1.1039880371e+02   -9.6797355652e+01
    1.1049880219e+02   -9.6676849365e+01
    1.1059889984e+02   -9.6555328369e+01
    1.1069889832e+02   -9.6432769775e+01
    1.1079889679e+02   -9.6309143066e+01
    1.1089880371e+02   -9.6184455872e+01
    1.1099880219e+02   -9.6058670044e+01
    1.1109889984e+02   -9.5931800842e+01
    1.1119879913e+02   -9.5803825378e+01
    1.1129889679e+02   -9.5674736023e+01
    1.1139880371e+02   -9.5544525146e+01
    1.1149890137e+02   -9.5413177490e+01
    1.1159880066e+02   -9.5280670166e+01
    1.1169879913e+02   -9.5146965027e+01
    1.1179889679e+02   -9.5012054443e+01
    1.1189880371e+02   -9.4875915527e+01
    1.1199880219e+02   -9.4738533020e+01
    1.1209880066e+02   -9.4599899292e+01
    1.1219879913e+02   -9.4460014343e+01
    1.1229879761e+02   -9.4318878174e+01
    1.1239880371e+02   -9.4176483154e+01
    1.1249880219e+02   -9.4032821655e+01
    1.1259880066e+02   -9.3887878418e+01
    1.1269879913e+02   -9.3741645813e+01
    1.1279879761e+02   -9.3594108582e+01
    1.1289880371e+02   -9.3445259094e+01
    1.1299880219e+02   -9.3295097351e+01
    1.1309880066e+02   -9.3143623352e+01
    1.1319879913e+02   -9.2990829468e+01
    1.1329879761e+02   -9.2836715698e+01
    1.1339880371e+02   -9.2681274414e+01
    1.1349880219e+02   -9.2524497986e+01
    1.1359880066e+02   -9.2366363525e+01
    1.1369879913e+02   -9.2206871033e+01
    1.1379879761e+02   -9.2045997620e+01
    1.1389880371e+02   -9.1883743286e+01
    1.1399880219e+02   -9.1720115662e+01
    1.1409880066e+02   -9.1555099487e+01
    1.1419879913e+02   -9.1388710022e+01
    1.1429879761e+02   -9.1220924377e+01
    1.1439880371e+02   -9.1051719666e+01
    1.1449880219e+02   -9.0881095886e+01
    1.1459880066e+02   -9.0709037781e+01
    1.1469879913e+02   -9.0535552979e+01
    1.1479879761e+02   -9.0360641479e+01
    1.1489880371e+02   -9.0184318542e+01
    1.1499880219e+02   -9.0006584167e+01
    1.1509880066e+02   -8.9827430725e+01
    1.1519879913e+02   -8.9646858215e+01
    1.1529879761e+02   -8.9464859009e+01
    1.1539880371e+02   -8.9281425476e+01
    1.1549880219e+02   -8.9096557617e+01
    1.1559880066e+02   -8.8910270691e+01
    1.1569879913e+02   -8.8722572327e+01
    1.1579879761e+02   -8.8533470154e+01
    1.1589869690e+02   -8.8342948914e+01
    1.1599870300e+02   -8.8151023865e+01
    1.1609880066e+02   -8.7957672119e+01
    1.1619879913e+02   -8.7762893677e+01
    1.1629879761e+02   -8.7566711426e+01
    1.1639880371e+02   -8.7369117737e+01
    1.1649870300e+02   -8.7170120239e+01
    1.1659880066e+02   -8.6969718933e+01
    1.1669869995e+02   -8.6767913818e+01
    1.1679869843e+02   -8.6564674377e+01
    1.1689880371e+02   -8.6360008240e+01
    1.1699870300e+02   -8.6153907776e+01
    1.1709870148e+02   -8.5946380615e+01
    1.1719869995e+02   -8.5737449646e+01
    1.1729869843e+02   -8.5527122498e+01
    1.1739869690e+02   -8.5315406799e+01
    1.1749880219e+02   -8.5102317810e+01
    1.1759880066e+02   -8.4887840271e+01
    1.1769869995e+02   -8.4671989441e+01
    1.1779879761e+02   -8.4454757690e+01
    1.1789869690e+02   -8.4236167908e+01
    1.1799880219e+02   -8.4016220093e+01
    1.1809870148e+02   -8.3794960022e+01
    1.1819869995e+02   -8.3572372437e+01
    1.1829869843e+02   -8.3348472595e+01
    1.1839880371e+02   -8.3123268127e+01
    1.1849870300e+02   -8.2896759033e+01
    1.1859870148e+02   -8.2668945312e+01
    1.1869869995e+02   -8.2439842224e+01
    1.1879869843e+02   -8.2209457397e+01
    1.1889869690e+02   -8.1977821350e+01
    1.1899870300e+02   -8.1744941711e+01
    1.1909870148e+02   -8.1510848999e+01
    1.1919869995e+02   -8.1275543213e+01
    1.1929869843e+02   -8.1039039612e+01
    1.1939869690e+02   -8.0801330566e+01
    1.1949870300e+02   -8.0562423706e+01
    1.1959870148e+02   -8.0322341919e+01
    1.1969869995e+02   -8.0081092834e+01
    1.1979869843e+02   -7.9838699341e+01
    1.1989869690e+02   -7.9595199585e+01
    1.1999870300e+02   -7.9350601196e+01
    1.2009870148e+02   -7.9104927063e+01
    1.2019869995e+02   -7.8858177185e+01
    1.2029869843e+02   -7.8610351562e+01
    1.2039869690e+02   -7.8361457825e+01
    1.2049870300e+02   -7.8111495972e+01
    1.2059870148e+02   -7.7860473633e+01
    1.2069869995e+02   -7.7608413696e+01
    1.2079869843e+02   -7.7355339050e+01
    1.2089869690e+02   -7.7101272583e+01
    1.2099870300e+02   -7.6846237183e+01
    1.2109870148e+02   -7.6590263367e+01
    1.2119869995e+02   -7.6333358765e+01
    1.2129869843e+02   -7.6075538635e+01
    1.2139869690e+02   -7.5816818237e+01
    1.2149870300e+02   -7.5557197571e+01
    1.2159870148e+02   -7.5296699524e+01
    1.2169869995e+02   -7.5035339355e+01
    1.2179869843e+02   -7.4773139954e+01
    1.2189869690e+02   -7.4510116577e+01
    1.2199859619e+02   -7.4246307373e+01
    1.2209870148e+02   -7.3981735229e+01
    1.2219869995e+02   -7.3716438293e+01
    1.2229869843e+02   -7.3450439453e+01
    1.2239859772e+02   -7.3183761597e+01
    1.2249870300e+02   -7.2916419983e+01
    1.2259860229e+02   -7.2648437500e+01
    1.2269869995e+02   -7.2379806519e+01
    1.2279869843e+02   -7.2110565186e+01
    1.2289859772e+02   -7.1840705872e+01
    1.2299870300e+02   -7.1570251465e+01
    1.2309870148e+02   -7.1299209595e+01
    1.2319869995e+02   -7.1027595520e+01
    1.2329859924e+02   -7.0755416870e+01
    1.2339869690e+02   -7.0482688904e+01
    1.2349870300e+02   -7.0209449768e+01
    1.2359870148e+02   -6.9935714722e+01
    1.2369860077e+02   -6.9661521912e+01
    1.2379869843e+02   -6.9386894226e+01
    1.2389859772e+02   -6.9111869812e+01
    1.2399870300e+02   -6.8836456299e+01
    1.2409870148e+02   -6.8560684204e+01
    1.2419869995e+02   -6.8284561157e+01
    1.2429859924e+02   -6.8008079529e+01
    1.2439859772e+02   -6.7731262207e+01
    1.2449859619e+02   -6.7454109192e+01
    1.2459860229e+02   -6.7176620483e+01
    1.2469860077e+02   -6.6898826599e+01
    1.2479859924e+02   -6.6620758057e+01
    1.2489859772e+02   -6.6342453003e+01
    1.2499859619e+02   -6.6063964844e+01
    1.2509860229e+02   -6.5785324097e+01
    1.2519860077e+02   -6.5506561279e+01
    1.2529869843e+02   -6.5227722168e+01
    1.2539869690e+02   -6.4948829651e+01
    1.2549859619e+02   -6.4669898987e+01
    1.2559860229e+02   -6.4390945435e+01
    1.2569860077e+02   -6.4111984253e+01
    1.2579859924e+02   -6.3833015442e+01
    1.2589859772e+02   -6.3554035187e+01
    1.2599859619e+02   -6.3275051117e+01
    1.2609860229e+02   -6.2996070862e+01
    1.2619860077e+02   -6.2717086792e+01
    1.2629859924e+02   -6.2438114166e+01
    1.2639859772e+02   -6.2159172058e+01
    1.2649859619e+02   -6.1880275726e+01
    1.2659860229e+02   -6.1601451874e+01
    1.2669860077e+02   -6.1322719574e+01
    1.2679859924e+02   -6.1044109344e+01
    1.2689859772e+02   -6.0765666962e+01
    1.2699859619e+02   -6.0487422943e+01
    1.2709860229e+02   -6.0209415436e+01
    1.2719860077e+02   -5.9931686401e+01
    1.2729859924e+02   -5.9654270172e+01
    1.2739859772e+02   -5.9377178192e+01
    1.2749859619e+02   -5.9100414276e+01
    1.2759860229e+02   -5.8823974609e+01
    1.2769860077e+02   -5.8547840118e+01
    1.2779859924e+02   -5.8271991730e+01
    1.2789859772e+02   -5.7996410370e+01
    1.2799859619e+02   -5.7721084595e+01
    1.2809860229e+02   -5.7446002960e+01
    1.2819859314e+02   -5.7171157837e+01
    1.2829859924e+02   -5.6896560669e+01
    1.2839860535e+02   -5.6622219086e+01
    1.2849859619e+02   -5.6348133087e+01
    1.2859860229e+02   -5.6074314117e+01
    1.2869859314e+02   -5.5800750732e+01
    1.2879859924e+02   -5.5527439117e+01
    1.2889860535e+02   -5.5254364014e+01
    1.2899859619e+02   -5.4981502533e+01
    1.2909860229e+02   -5.4708839417e+01
    1.2919859314e+02   -5.4436359406e+01
    1.2929859924e+02   -5.4164058685e+01
    1.2939869690e+02   -5.3891933441e+01
    1.2949870300e+02   -5.3619987488e+01
    1.2959869385e+02   -5.3348239899e+01
    1.2969869995e+02   -5.3076705933e+01
    1.2979870605e+02   -5.2805423737e+01
    1.2989869690e+02   -5.2534423828e+01
    1.2999870300e+02   -5.2263748169e+01
    1.3009869385e+02   -5.1993427277e+01
    1.3019869995e+02   -5.1723491669e+01
    1.3029870605e+02   -5.1453971863e+01
    1.3039869690e+02   -5.1184883118e+01
    1.3049870300e+02   -5.0916229248e+01
    1.3059869385e+02   -5.0648010254e+01
    1.3069880676e+02   -5.0380214691e+01
    1.3079870605e+02   -5.0112838745e+01
    1.3089880371e+02   -4.9845870972e+01
    1.3099879456e+02   -4.9579315186e+01
    1.3109880066e+02   -4.9313171387e+01
    1.3119880676e+02   -4.9047447205e+01
    1.3129879761e+02   -4.8782161713e+01
    1.3139880371e+02   -4.8517330170e+01
    1.3149879456e+02   -4.8252971649e+01
    1.3159880066e+02   -4.7989097595e+01
    1.3169880676e+02   -4.7725715637e+01
    1.3179879761e+02   -4.7462833405e+01
    1.3189880371e+02   -4.7200443268e+01
    1.3199879456e+02   -4.6938549042e+01
    1.3209880066e+02   -4.6677139282e+01
    1.3219880676e+02   -4.6416217804e+01
    1.3229879761e+02   -4.6155784607e+01
    1.3239889526e+02   -4.5895847321e+01
    1.3249890137e+02   -4.5636413574e+01
    1.3259880066e+02   -4.5377494812e+01
    1.3269889832e+02   -4.5119106293e+01
    1.3279890442e+02   -4.4861248016e+01
    1.3289889526e+02   -4.4603927612e+01
    1.3299890137e+02   -4.4347137451e+01
    1.3309890747e+02   -4.4090877533e+01
    1.3319889832e+02   -4.3835147858e+01
    1.3329890442e+02   -4.3579936981e+01
    1.3339889526e+02   -4.3325252533e+01
    1.3349890137e+02   -4.3071102142e+01
    1.3359890747e+02   -4.2817489624e+01
    1.3369889832e+02   -4.2564418793e+01
    1.3379899597e+02   -4.2311897278e+01
    1.3389889526e+02   -4.2059932709e+01
    1.3399890137e+02   -4.1808513641e+01
    1.3409890747e+02   -4.1557643890e+01
    1.3419900513e+02   -4.1307315826e+01
    1.3429890442e+02   -4.1057525635e+01
    1.3439900208e+02   -4.0808273315e+01
    1.3449899292e+02   -4.0559555054e+01
    1.3459899902e+02   -4.0311382294e+01
    1.3469900513e+02   -4.0063751221e+01
    1.3479899597e+02   -3.9816673279e+01
    1.3489900208e+02   -3.9570152283e+01
    1.3499899292e+02   -3.9324180603e+01
    1.3509899902e+02   -3.9078762054e+01
    1.3519900513e+02   -3.8833889008e+01
    1.3529899597e+02   -3.8589561462e+01
    1.3539900208e+02   -3.8345775604e+01
    1.3549909973e+02   -3.8102527618e+01
    1.3559899902e+02   -3.7859821320e+01
    1.3569909668e+02   -3.7617652893e+01
    1.3579899597e+02   -3.7376026154e+01
    1.3589900208e+02   -3.7134937286e+01
    1.3599909973e+02   -3.6894386292e+01
    1.3609899902e+02   -3.6654369354e+01
    1.3619909668e+02   -3.6414875031e+01
    1.3629910278e+02   -3.6175907135e+01
    1.3639909363e+02   -3.5937450409e+01
    1.3649909973e+02   -3.5699501038e+01
    1.3659910583e+02   -3.5462055206e+01
    1.3669909668e+02   -3.5225109100e+01
    1.3679910278e+02   -3.4988658905e+01
    1.3689909363e+02   -3.4752696991e+01
    1.3699909973e+02   -3.4517227173e+01
    1.3709910583e+02   -3.4282249451e+01
    1.3719909668e+02   -3.4047763824e+01
    1.3729919434e+02   -3.3813770294e+01
    1.3739909363e+02   -3.3580280304e+01
    1.3749909973e+02   -3.3347297668e+01
    1.3759919739e+02   -3.3114837646e+01
    1.3769920349e+02   -3.2882915497e+01
    1.3779919434e+02   -3.2651554108e+01
    1.3789920044e+02   -3.2420780182e+01
    1.3799920654e+02   -3.2190616608e+01
    1.3809919739e+02   -3.1961107254e+01
    1.3819920349e+02   -3.1732284546e+01
    1.3829919434e+02   -3.1504198074e+01
    1.3839920044e+02   -3.1276889801e+01
    1.3849920654e+02   -3.1050403595e+01
    1.3859919739e+02   -3.0824775696e+01
    1.3869920349e+02   -3.0600040436e+01
    1.3879930115e+02   -3.0376224518e+01
    1.3889920044e+02   -3.0153339386e+01
    1.3899920654e+02   -2.9931381226e+01
    1.3909919739e+02   -2.9710340500e+01
    1.3919920349e+02   -2.9490190506e+01
    1.3929930115e+02   -2.9270898819e+01
    1.3939930725e+02   -2.9052419662e+01
    1.3949929810e+02   -2.8834711075e+01
    1.3959930420e+02   -2.8617715836e+01
    1.3969929504e+02   -2.8401386261e+01
    1.3979930115e+02   -2.8185672760e+01
    1.3989930725e+02   -2.7970525742e+01
    1.3999929810e+02   -2.7755897522e+01
    1.4009930420e+02   -2.7541746140e+01
    1.4019929504e+02   -2.7328031540e+01
    1.4029930115e+02   -2.7114723206e+01
    1.4039930725e+02   -2.6901788712e+01
    1.4049940491e+02   -2.6689208984e+01
    1.4059930420e+02   -2.6476966858e+01
    1.4069929504e+02   -2.6265048981e+01
    1.4079930115e+02   -2.6053453445e+01
    1.4089939880e+02   -2.5842180252e+01
    1.4099940491e+02   -2.5631233215e+01
    1.4109939575e+02   -2.5420625687e+01
    1.4119940186e+02   -2.5210369110e+01
    1.4129939270e+02   -2.5000484467e+01
    1.4139939880e+02   -2.4790988922e+01
    1.4149940491e+02   -2.4581912994e+01
    1.4159939575e+02   -2.4373281479e+01
    1.4169940186e+02   -2.4165126801e+01
    1.4179939270e+02   -2.3957479477e+01
    1.4189939880e+02   -2.3750371933e+01
    1.4199949646e+02   -2.3543832779e+01
    1.4209939575e+02   -2.3337890625e+01
    1.4219940186e+02   -2.3132566452e+01
    1.4229949951e+02   -2.2927879333e+01
    1.4239939880e+02   -2.2723844528e+01
    1.4249940491e+02   -2.2520469666e+01
    1.4259939575e+02   -2.2317766190e+01
    1.4269949341e+02   -2.2115741730e+01
    1.4279949951e+02   -2.1914400101e+01
    1.4289950562e+02   -2.1713752747e+01
    1.4299949646e+02   -2.1513803482e+01
    1.4309950256e+02   -2.1314558029e+01
    1.4319949341e+02   -2.1116020203e+01
    1.4329949951e+02   -2.0918190002e+01
    1.4339950562e+02   -2.0721063614e+01
    1.4349949646e+02   -2.0524635315e+01
    1.4359950256e+02   -2.0328891754e+01
    1.4369949341e+02   -2.0133808136e+01
    1.4379949951e+02   -1.9939359665e+01
    1.4389959717e+02   -1.9745502472e+01
    1.4399949646e+02   -1.9552190781e+01
    1.4409950256e+02   -1.9359376907e+01
    1.4419960022e+02   -1.9167001724e+01
    1.4429960632e+02   -1.8975013733e+01
    1.4439959717e+02   -1.8783357620e+01
    1.4449960327e+02   -1.8591981888e+01
    1.4459959412e+02   -1.8400836945e+01
    1.4469960022e+02   -1.8209882736e+01
    1.4479960632e+02   -1.8019084930e+01
    1.4489959717e+02   -1.7828420639e+01
    1.4499960327e+02   -1.7637880325e+01
    1.4509959412e+02   -1.7447462082e+01
    1.4519960022e+02   -1.7257177353e+01
    1.4529969788e+02   -1.7067047119e+01
    1.4539970398e+02   -1.6877098083e+01
    1.4549960327e+02   -1.6687370300e+01
    1.4559959412e+02   -1.6497903824e+01
    1.4569960022e+02   -1.6308742523e+01
    1.4579969788e+02   -1.6119930267e+01
    1.4589959717e+02   -1.5931508064e+01
    1.4599969482e+02   -1.5743509293e+01
    1.4609970093e+02   -1.5555963516e+01
    1.4619970703e+02   -1.5368889809e+01
    1.4629969788e+02   -1.5182307243e+01
    1.4639970398e+02   -1.4996225357e+01
    1.4649969482e+02   -1.4810648918e+01
    1.4659970093e+02   -1.4625576973e+01
    1.4669970703e+02   -1.4441002846e+01
    1.4679969788e+02   -1.4256920815e+01
    1.4689970398e+02   -1.4073321342e+01
    1.4699969482e+02   -1.3890196800e+01
    1.4709970093e+02   -1.3707534790e+01
    1.4719979858e+02   -1.3525322914e+01
    1.4729969788e+02   -1.3343542099e+01
    1.4739979553e+02   -1.3162175179e+01
    1.4749969482e+02   -1.2981199265e+01
    1.4759979248e+02   -1.2800588608e+01
    1.4769979858e+02   -1.2620317459e+01
    1.4779980469e+02   -1.2440359116e+01
    1.4789979553e+02   -1.2260683060e+01
    1.4799980164e+02   -1.2081263542e+01
    1.4809979248e+02   -1.1902074814e+01
    1.4819979858e+02   -1.1723088264e+01
    1.4829980469e+02   -1.1544280052e+01
    1.4839979553e+02   -1.1365628242e+01
    1.4849980164e+02   -1.1187109947e+01
    1.4859989929e+02   -1.1008707047e+01
    1.4869979858e+02   -1.0830403328e+01
    1.4879980469e+02   -1.0652182579e+01
    1.4889979553e+02   -1.0474035263e+01
    1.4899980164e+02   -1.0295951843e+01
    1.4909989929e+02   -1.0117928505e+01
    1.4919990540e+02   -9.9399633408e+00
    1.4929989624e+02   -9.7620592117e+00
    1.4939990234e+02   -9.5842227936e+00
    1.4949989319e+02   -9.4064645767e+00
    1.4959989929e+02   -9.2287940979e+00
    1.4969990540e+02   -9.0512266159e+00
    1.4979989624e+02   -8.8737735748e+00
    1.4989990234e+02   -8.6964492798e+00
    1.4999989319e+02   -8.5192680359e+00
    1.5009989929e+02   -8.3422431946e+00
    1.5019990540e+02   -8.1653862000e+00
    1.5030000305e+02   -7.9887084961e+00
    1.5039990234e+02   -7.8122181892e+00
    1.5050000000e+02   -7.6359229088e+00
    1.5059989929e+02   -7.4598278999e+00
    1.5069999695e+02   -7.2839393616e+00
    1.5080000305e+02   -7.1082611084e+00
    1.5089999390e+02   -6.9327964783e+00
    1.5100000000e+02   -6.7575492859e+00
    1.5110000610e+02   -6.5825214386e+00
    1.5119999695e+02   -6.4077153206e+00
    1.5130000305e+02   -6.2331333160e+00
    1.5139999390e+02   -6.0587773323e+00
    1.5150000000e+02   -5.8846487999e+00
    1.5160000610e+02   -5.7107481956e+00
    1.5169999695e+02   -5.5370745659e+00
    1.5180000305e+02   -5.3636264801e+00
    1.5189999390e+02   -5.1904010773e+00
    1.5200000000e+02   -5.0173945427e+00
    1.5210000610e+02   -4.8446021080e+00
    1.5219999695e+02   -4.6720190048e+00
    1.5230000305e+02   -4.4996404648e+00
    1.5240010071e+02   -4.3274617195e+00
    1.5250010681e+02   -4.1554775238e+00
    1.5260009766e+02   -3.9836852551e+00
    1.5270010376e+02   -3.8120810986e+00
    1.5280009460e+02   -3.6406636238e+00
    1.5290010071e+02   -3.4694316387e+00
    1.5300010681e+02   -3.2983849049e+00
    1.5310009766e+02   -3.1275238991e+00
    1.5320010376e+02   -2.9568498135e+00
    1.5330009460e+02   -2.7863638401e+00
    1.5340010071e+02   -2.6160683632e+00
    1.5350010681e+02   -2.4459655285e+00
    1.5360009766e+02   -2.2760581970e+00
    1.5370010376e+02   -2.1063499451e+00
    1.5380009460e+02   -1.9368436337e+00
    1.5390020752e+02   -1.7675431967e+00
    1.5400019836e+02   -1.5984520912e+00
    1.5410020447e+02   -1.4295735359e+00
    1.5420019531e+02   -1.2609102726e+00
    1.5430020142e+02   -1.0924649239e+00
    1.5440020752e+02   -9.2423933744e-01
    1.5450019836e+02   -7.5623512268e-01
    1.5460020447e+02   -5.8845299482e-01
    1.5470019531e+02   -4.2089352012e-01
    1.5480020142e+02   -2.5355678797e-01
    1.5490020752e+02   -8.6442574859e-02
    1.5500019836e+02    8.0449536443e-02
    1.5510020447e+02    2.4712002277e-01
    1.5520019531e+02    4.1356930137e-01
    1.5530029297e+02    5.7979756594e-01
    1.5540029907e+02    7.4580466747e-01
    1.5550019836e+02    9.1159015894e-01
    1.5560029602e+02    1.0771530867e+00
    1.5570030212e+02    1.2424917221e+00
    1.5580029297e+02    1.4076040983e+00
    1.5590029907e+02    1.5724874735e+00
    1.5600030518e+02    1.7371388674e+00
    1.5610029602e+02    1.9015545845e+00
    1.5620030212e+02    2.0657310486e+00
    1.5630029297e+02    2.2296640873e+00
    1.5640029907e+02    2.3933498859e+00
    1.5650030518e+02    2.5567841530e+00
    1.5660029602e+02    2.7199630737e+00
    1.5670030212e+02    2.8828828335e+00
    1.5680029297e+02    3.0455400944e+00
    1.5690040588e+02    3.2079315186e+00
    1.5700039673e+02    3.3700544834e+00
    1.5710029602e+02    3.5319063663e+00
    1.5720030212e+02    3.6934850216e+00
    1.5730029297e+02    3.8547887802e+00
    1.5740029907e+02    4.0158157349e+00
    1.5750039673e+02    4.1765637398e+00
    1.5760040283e+02    4.3370308876e+00
    1.5770039368e+02    4.4972143173e+00
    1.5780039978e+02    4.6571111679e+00
    1.5790040588e+02    4.8167200089e+00
    1.5800039673e+02    4.9760375023e+00
    1.5810040283e+02    5.1350612640e+00
    1.5820039368e+02    5.2937889099e+00
    1.5830039978e+02    5.4522175789e+00
    1.5840040588e+02    5.6103453636e+00
    1.5850050354e+02    5.7681698799e+00
    1.5860040283e+02    5.9256896973e+00
    1.5870039368e+02    6.0829038620e+00
    1.5880039978e+02    6.2398114204e+00
    1.5890040588e+02    6.3964118958e+00
    1.5900050354e+02    6.5527052879e+00
    1.5910049438e+02    6.7086920738e+00
    1.5920050049e+02    6.8643727303e+00
    1.5930050659e+02    7.0197472572e+00
    1.5940049744e+02    7.1748166084e+00
    1.5950050354e+02    7.3295822144e+00
    1.5960049438e+02    7.4840431213e+00
    1.5970050049e+02    7.6382007599e+00
    1.5980050659e+02    7.7920556068e+00
    1.5990049744e+02    7.9456067085e+00
    1.6000050354e+02    8.0988559723e+00
    1.6010049438e+02    8.2518014908e+00
    1.6020050049e+02    8.4044437408e+00
    1.6030059814e+02    8.5567827225e+00
    1.6040049744e+02    8.7088146210e+00
    1.6050050354e+02    8.8605403900e+00
    1.6060060120e+02    9.0119590759e+00
    1.6070060730e+02    9.1630697250e+00
    1.6080059814e+02    9.3138732910e+00
    1.6090060425e+02    9.4643688202e+00
    1.6100059509e+02    9.6145563126e+00
    1.6110060120e+02    9.7644357681e+00
    1.6120060730e+02    9.9140100479e+00
    1.6130059814e+02    1.0063280106e+01
    1.6140060425e+02    1.0212248802e+01
    1.6150059509e+02    1.0360918045e+01
    1.6160060120e+02    1.0509291649e+01
    1.6170060730e+02    1.0657370567e+01
    1.6180059814e+02    1.0805158615e+01
    1.6190060425e+02    1.0952657700e+01
    1.6200059509e+02    1.1099869728e+01
    1.6210069275e+02    1.1246797562e+01
    1.6220069885e+02    1.1393445015e+01
    1.6230070496e+02    1.1539813995e+01
    1.6240069580e+02    1.1685909271e+01
    1.6250070190e+02    1.1831733704e+01
    1.6260069275e+02    1.1977293015e+01
    1.6270069885e+02    1.2122590065e+01
    1.6280070496e+02    1.2267629623e+01
    1.6290069580e+02    1.2412415504e+01
    1.6300070190e+02    1.2556951523e+01
    1.6310069275e+02    1.2701244354e+01
    1.6320069885e+02    1.2845295906e+01
    1.6330070496e+02    1.2989110947e+01
    1.6340080261e+02    1.3132693291e+01
    1.6350070190e+02    1.3276045799e+01
    1.6360079956e+02    1.3419173241e+01
    1.6370080566e+02    1.3562079430e+01
    1.6380079651e+02    1.3704764366e+01
    1.6390080261e+02    1.3847229958e+01
    1.6400079346e+02    1.3989479065e+01
    1.6410079956e+02    1.4131510735e+01
    1.6420080566e+02    1.4273324966e+01
    1.6430079651e+02    1.4414920807e+01
    1.6440080261e+02    1.4556295395e+01
    1.6450079346e+02    1.4697445869e+01
    1.6460079956e+02    1.4838369370e+01
    1.6470080566e+02    1.4979063988e+01
    1.6480079651e+02    1.5119529724e+01
    1.6490089417e+02    1.5259770393e+01
    1.6500079346e+02    1.5399791718e+01
    1.6510079956e+02    1.5539605141e+01
    1.6520080566e+02    1.5679222107e+01
    1.6530090332e+02    1.5818652153e+01
    1.6540080261e+02    1.5957908630e+01
    1.6550090027e+02    1.6096998215e+01
    1.6560079956e+02    1.6235931396e+01
    1.6570089722e+02    1.6374706268e+01
    1.6580090332e+02    1.6513328552e+01
    1.6590089417e+02    1.6651796341e+01
    1.6600090027e+02    1.6790102005e+01
    1.6610090637e+02    1.6928241730e+01
    1.6620089722e+02    1.7066202164e+01
    1.6630090332e+02    1.7203975677e+01
    1.6640089417e+02    1.7341550827e+01
    1.6650090027e+02    1.7478919983e+01
    1.6660090637e+02    1.7616085052e+01
    1.6670089722e+02    1.7753044128e+01
    1.6680099487e+02    1.7889808655e+01
    1.6690100098e+02    1.8026391983e+01
    1.6700100708e+02    1.8162809372e+01
    1.6710099792e+02    1.8299077988e+01
    1.6720100403e+02    1.8435224533e+01
    1.6730099487e+02    1.8571264267e+01
    1.6740100098e+02    1.8707223892e+01
    1.6750100708e+02    1.8843120575e+01
    1.6760099792e+02    1.8978975296e+01
    1.6770100403e+02    1.9114803314e+01
    1.6780099487e+02    1.9250617981e+01
    1.6790100098e+02    1.9386428833e+01
    1.6800100708e+02    1.9522247314e+01
    1.6810099792e+02    1.9658081055e+01
    1.6820100403e+02    1.9793930054e+01
    1.6830110168e+02    1.9929800034e+01
    1.6840100098e+02    2.0065690994e+01
    1.6850109863e+02    2.0201602936e+01
    1.6860099792e+02    2.0337532043e+01
    1.6870109558e+02    2.0473476410e+01
    1.6880110168e+02    2.0609434128e+01
    1.6890100098e+02    2.0745399475e+01
    1.6900109863e+02    2.0881368637e+01
    1.6910110474e+02    2.1017337799e+01
    1.6920109558e+02    2.1153299332e+01
    1.6930110168e+02    2.1289251328e+01
    1.6940109253e+02    2.1425189972e+01
    1.6950109863e+02    2.1561111450e+01
    1.6960110474e+02    2.1697011948e+01
    1.6970109558e+02    2.1832891464e+01
    1.6980110168e+02    2.1968746185e+01
    1.6990109253e+02    2.2104576111e+01
    1.7000120544e+02    2.2240385056e+01
    1.7010110474e+02    2.2376174927e+01
    1.7020109558e+02    2.2511949539e+01
    1.7030110168e+02    2.2647716522e+01
    1.7040109253e+02    2.2783487320e+01
    1.7050109863e+02    2.2919275284e+01
    1.7060119629e+02    2.3055091858e+01
    1.7070120239e+02    2.3190958023e+01
    1.7080119324e+02    2.3326892853e+01
    1.7090119934e+02    2.3462919235e+01
    1.7100120544e+02    2.3599056244e+01
    1.7110119629e+02    2.3735330582e+01
    1.7120120239e+02    2.3871761322e+01
    1.7130119324e+02    2.4008369446e+01
    1.7140119934e+02    2.4145170212e+01
    1.7150120544e+02    2.4282178879e+01
    1.7160130310e+02    2.4419401169e+01
    1.7170120239e+02    2.4556844711e+01
    1.7180130005e+02    2.4694507599e+01
    1.7190130615e+02    2.4832384109e+01
    1.7200120544e+02    2.4970472336e+01
    1.7210119629e+02    2.5108764648e+01
    1.7220129395e+02    2.5247261047e+01
    1.7230130005e+02    2.5385957718e+01
    1.7240130615e+02    2.5524860382e+01
    1.7250129700e+02    2.5663974762e+01
    1.7260130310e+02    2.5803310394e+01
    1.7270129395e+02    2.5942874908e+01
    1.7280130005e+02    2.6082681656e+01
    1.7290130615e+02    2.6222740173e+01
    1.7300129700e+02    2.6363056183e+01
    1.7310130310e+02    2.6503639221e+01
    1.7320129395e+02    2.6644493103e+01
    1.7330140686e+02    2.6785621643e+01
    1.7340139771e+02    2.6927030563e+01
    1.7350140381e+02    2.7068727493e+01
    1.7360139465e+02    2.7210716248e+01
    1.7370140076e+02    2.7353008270e+01
    1.7380140686e+02    2.7495611191e+01
    1.7390139771e+02    2.7638534546e+01
    1.7400140381e+02    2.7781784058e+01
    1.7410139465e+02    2.7925365448e+01
    1.7420140076e+02    2.8069282532e+01
    1.7430140686e+02    2.8213537216e+01
    1.7440139771e+02    2.8358127594e+01
    1.7450140381e+02    2.8503059387e+01
    1.7460139465e+02    2.8648330688e+01
    1.7470140076e+02    2.8793943405e+01
    1.7480140686e+02    2.8939897537e+01
    1.7490139771e+02    2.9086189270e+01
    1.7500140381e+02    2.9232814789e+01
    1.7510150146e+02    2.9379770279e+01
    1.7520140076e+02    2.9527044296e+01
    1.7530149841e+02    2.9674634933e+01
    1.7540150452e+02    2.9822525024e+01
    1.7550140381e+02    2.9970706940e+01
    1.7560150146e+02    3.0119171143e+01
    1.7570150757e+02    3.0267919540e+01
    1.7580149841e+02    3.0416957855e+01
    1.7590150452e+02    3.0566299438e+01
    1.7600149536e+02    3.0715967178e+01
    1.7610150146e+02    3.0865993500e+01
    1.7620150757e+02    3.1016429901e+01
    1.7630149841e+02    3.1167337418e+01
    1.7640150452e+02    3.1318798065e+01
    1.7650160217e+02    3.1470909119e+01
    1.7660150146e+02    3.1623781204e+01
    1.7670159912e+02    3.1777544022e+01
    1.7680149841e+02    3.1932340622e+01
    1.7690159607e+02    3.2088325500e+01
    1.7700160217e+02    3.2245662689e+01
    1.7710150146e+02    3.2404518127e+01
    1.7720159912e+02    3.2565055847e+01
    1.7730160522e+02    3.2727428436e+01
    1.7740159607e+02    3.2891777039e+01
    1.7750160217e+02    3.3058189392e+01
    1.7760159302e+02    3.3226711273e+01
    1.7770159912e+02    3.3397327423e+01
    1.7780160522e+02    3.3569904327e+01
    1.7790159607e+02    3.3744209290e+01
    1.7800160217e+02    3.3919876099e+01
    1.7810159302e+02    3.4096374512e+01
    1.7820159912e+02    3.4273010254e+01
    1.7830160522e+02    3.4448905945e+01
    1.7840170288e+02    3.4622982025e+01
    1.7850160217e+02    3.4793968201e+01
    1.7860159302e+02    3.4960395813e+01
    1.7870159912e+02    3.5120620728e+01
    1.7880169678e+02    3.5272857666e+01
    1.7890170288e+02    3.5415225983e+01
    1.7900169373e+02    3.5545822144e+01
    1.7910169983e+02    3.5662822723e+01
    1.7920170593e+02    3.5764587402e+01
    1.7930169678e+02    3.5849826813e+01
    1.7940170288e+02    3.5917751312e+01
    1.7950169373e+02    3.5968265533e+01
    1.7960169983e+02    3.6002189636e+01
    1.7970179749e+02    3.6021484375e+01
    1.7980169678e+02    3.6029495239e+01
    1.7990170288e+02    3.6031188965e+01
endcurve
