Curveplot
LS-DYNA keyword deck by LS-PrePost
Yrot-displ
phi moment-stiffness
Joint Stiff
300001 #pts=1000
* Minval= -2.013373632813e+004 at time=       0.149915456772
* Maxval=  6.115147265625e+004 at time=       1.816840887070
-2.965839840385e-008 -1.673368513584e-001
-2.565994527970e-008 -2.358610183001e-001
-1.448558339945e-008 -3.011589050293e-001
 6.035780764080e-009 -3.495344817638e-001
 3.770682610593e-008 -3.622464537621e-001
 8.143712193487e-008 -3.161700665951e-001
 1.371558937535e-007 -1.841375976801e-001
 2.006159292023e-007  5.107767507434e-002
 2.650808426097e-007  4.090088605881e-001
 3.199453999514e-007  8.929141759872e-001
 3.504812298161e-007  1.477019667625e+000
 3.343768071318e-007  2.111761331558e+000
 2.518489736758e-007  2.728292465210e+000
 8.184363764485e-008  3.264292001724e+000
-1.955526016673e-007  3.666563749313e+000
-5.979170509818e-007  3.896948575974e+000
-1.148323008238e-006  3.919841051102e+000
-1.849490331551e-006  3.733948469162e+000
-2.706409304665e-006  3.342197895050e+000
-3.721023176695e-006  2.760585546494e+000
-4.892624474451e-006  2.010685443878e+000
-6.227479843801e-006  1.092396140099e+000
-7.714131243119e-006  1.991927623749e-003
-9.348004823551e-006 -1.292558908463e+000
-1.112556310545e-005 -2.833323955536e+000
-1.304276520386e-005 -4.660625934601e+000
-1.510096353741e-005 -6.835985183716e+000
-1.728523420752e-005 -9.386198997498e+000
-1.958312168426e-005 -1.234801864624e+001
-2.197904359491e-005 -1.576379871368e+001
-2.445209429425e-005 -1.968781089783e+001
-2.697801028262e-005 -2.422738265991e+001
-2.951616625069e-005 -2.943817329407e+001
-3.202228617738e-005 -3.539767456055e+001
-3.444356116233e-005 -4.218999862671e+001
-3.671471858979e-005 -4.989340972900e+001
-3.874044341501e-005 -5.863066864014e+001
-4.042898217449e-005 -6.838668060303e+001
-4.167122824583e-005 -7.913049316406e+001
-4.234255902702e-005 -9.080235290527e+001
-4.230514605297e-005 -1.033165435791e+002
-4.135659037274e-005 -1.165830078125e+002
-3.936220309697e-005 -1.304577331543e+002
-3.616920366767e-005 -1.448392181396e+002
-3.161041604471e-005 -1.596762695313e+002
-2.551917168603e-005 -1.749439697266e+002
-1.762990359566e-005 -1.906755981445e+002
-7.826144610590e-006 -2.068805847168e+002
 4.051853920828e-006 -2.235970153809e+002
 1.817885095079e-005 -2.408494567871e+002
 3.474686673144e-005 -2.586481323242e+002
 5.409322329797e-005 -2.769792785645e+002
 7.633985660505e-005 -2.957458190918e+002
 1.016692185658e-004 -3.148648986816e+002
 1.303038297920e-004 -3.342596740723e+002
 1.624767901376e-004 -3.538619995117e+002
 1.986083225347e-004 -3.736130065918e+002
 2.388333668932e-004 -3.935019226074e+002
 2.833393227775e-004 -4.135617675781e+002
 3.323728451505e-004 -4.338732299805e+002
 3.861863515340e-004 -4.545534362793e+002
 4.452767607290e-004 -4.757929687500e+002
 5.097648827359e-004 -4.977888488770e+002
 5.798160564154e-004 -5.207506713867e+002
 6.557138985954e-004 -5.448724365234e+002
 7.376971771009e-004 -5.703018798828e+002
 8.263200870715e-004 -5.971806030273e+002
 9.217329788953e-004 -6.254192504883e+002
 1.024047960527e-003 -6.547434082031e+002
 1.133550307713e-003 -6.846077270508e+002
 1.250533037819e-003 -7.140673828125e+002
 1.375615713187e-003 -7.415142822266e+002
 1.508928602561e-003 -7.647963256836e+002
 1.650573103689e-003 -7.814126586914e+002
 1.800836878829e-003 -7.885714111328e+002
 1.960001420230e-003 -7.835794067383e+002
 2.128663938493e-003 -7.637053222656e+002
 2.306794282049e-003 -7.287651367188e+002
 2.494430867955e-003 -6.812347412109e+002
 2.691653789952e-003 -6.268916015625e+002
 2.898608800024e-003 -5.761201171875e+002
 3.115835599601e-003 -5.466829833984e+002
 3.343390068039e-003 -5.629565429688e+002
 3.581391880289e-003 -6.533021850586e+002
 3.830593777820e-003 -8.501615600586e+002
 4.091889597476e-003 -1.186370239258e+003
 4.367521032691e-003 -1.697712524414e+003
 4.659460857511e-003 -2.396607910156e+003
 4.970232956111e-003 -3.268839599609e+003
 5.303245037794e-003 -4.269631347656e+003
 5.662274081260e-003 -5.309229980469e+003
 6.052824202925e-003 -6.237399414063e+003
 6.478368770331e-003 -6.876785156250e+003
 6.940914317966e-003 -7.107829101563e+003
 7.441804744303e-003 -6.899170898438e+003
 7.981084287167e-003 -6.325542480469e+003
 8.558866567910e-003 -5.547407226563e+003
 9.171908721328e-003 -4.783262695313e+003
 9.817202575505e-003 -4.215364746094e+003
 1.049278676510e-002 -3.971283935547e+003
 1.119769830257e-002 -4.117404785156e+003
 1.193331554532e-002 -4.667232910156e+003
 1.270100194961e-002 -5.538583007813e+003
 1.350283529609e-002 -6.586062011719e+003
 1.434227265418e-002 -7.641272949219e+003
 1.522278413177e-002 -8.540787109375e+003
 1.614958979189e-002 -9.156333984375e+003
 1.712488941848e-002 -9.458225585938e+003
 1.814901269972e-002 -9.518814453125e+003
 1.922268606722e-002 -9.464471679688e+003
 2.034663595259e-002 -9.445684570313e+003
 2.152283489704e-002 -9.606737304688e+003
 2.275223843753e-002 -1.003371582031e+004
 2.403592132032e-002 -1.072464257813e+004
 2.537634409964e-002 -1.161582812500e+004
 2.677760086954e-002 -1.259379589844e+004
 2.824608981609e-002 -1.351342187500e+004
 2.978524938226e-002 -1.423333105469e+004
 3.139618411660e-002 -1.468052734375e+004
 3.308132663369e-002 -1.485269433594e+004
 3.484126180410e-002 -1.481343164063e+004
 3.667832911015e-002 -1.466465722656e+004
 3.859169408679e-002 -1.451661816406e+004
 4.057840630412e-002 -1.443971093750e+004
 4.263756796718e-002 -1.446610449219e+004
 4.476934298873e-002 -1.460348339844e+004
 4.697650298476e-002 -1.485182714844e+004
 4.925943911076e-002 -1.520471582031e+004
 5.161817744374e-002 -1.564517187500e+004
 5.405391752720e-002 -1.614379980469e+004
 5.657007545233e-002 -1.665348242188e+004
 5.917151644826e-002 -1.711510546875e+004
 6.185974925756e-002 -1.747936718750e+004
 6.463522464037e-002 -1.773737890625e+004
 6.749810278416e-002 -1.791764062500e+004
 7.045038789511e-002 -1.807917578125e+004
 7.349543273449e-002 -1.829073828125e+004
 7.663500308990e-002 -1.859421484375e+004
 7.986798137426e-002 -1.897337695313e+004
 8.319584280252e-002 -1.936990234375e+004
 8.662039786577e-002 -1.970644140625e+004
 9.014493227005e-002 -1.991047265625e+004
 9.377361834049e-002 -1.994736328125e+004
 9.750082343817e-002 -1.984013085938e+004
 1.013273596764e-001 -1.964159375000e+004
 1.052525565028e-001 -1.941889453125e+004
 1.092763319612e-001 -1.923443164063e+004
 1.134001687169e-001 -1.912966406250e+004
 1.176204085350e-001 -1.911374218750e+004
 1.219349801540e-001 -1.918170117188e+004
 1.263464838266e-001 -1.932002929688e+004
 1.308582574129e-001 -1.951005859375e+004
 1.354706436396e-001 -1.972250000000e+004
 1.401842981577e-001 -1.992070507813e+004
 1.449984759092e-001 -2.006736523438e+004
 1.499154567719e-001 -2.013373632813e+004
 1.549383848906e-001 -2.010782812500e+004
 1.600666642189e-001 -2.000630468750e+004
 1.652997881174e-001 -1.987049414063e+004
 1.706352978945e-001 -1.974066406250e+004
 1.760733276606e-001 -1.964358007813e+004
 1.816171556711e-001 -1.958196093750e+004
 1.872676163912e-001 -1.952921289063e+004
 1.930212825537e-001 -1.944516210938e+004
 1.988778263330e-001 -1.929704492188e+004
 2.048353254795e-001 -1.907022851563e+004
 2.108965963125e-001 -1.877059179688e+004
 2.170627713203e-001 -1.842389843750e+004
 2.233288288116e-001 -1.806280468750e+004
 2.296901494265e-001 -1.771399804688e+004
 2.361478209496e-001 -1.739680468750e+004
 2.427026331425e-001 -1.712632617188e+004
 2.493551075459e-001 -1.691246679688e+004
 2.561008632183e-001 -1.675361132813e+004
 2.629401385784e-001 -1.664039843750e+004
 2.698724865913e-001 -1.655126171875e+004
 2.769002020359e-001 -1.645215820313e+004
 2.840253114700e-001 -1.630069628906e+004
 2.912448048592e-001 -1.606796972656e+004
 2.985557019711e-001 -1.574332714844e+004
 3.059603869915e-001 -1.533696386719e+004
 3.134569823742e-001 -1.487620507813e+004
 3.210461139679e-001 -1.440007421875e+004
 3.287235498428e-001 -1.394154492188e+004
 3.364838361740e-001 -1.352019335938e+004
 3.443301618099e-001 -1.313949804688e+004
 3.522585928440e-001 -1.279137988281e+004
 3.602708280087e-001 -1.245746484375e+004
 3.683608174324e-001 -1.211663964844e+004
 3.765307068825e-001 -1.175198925781e+004
 3.847746849060e-001 -1.135172753906e+004
 3.930945396423e-001 -1.091018261719e+004
 4.014906883240e-001 -1.042895507813e+004
 4.099561870098e-001 -9.920608398438e+003
 4.184921383858e-001 -9.401199218750e+003
 4.270950853825e-001 -8.890102539063e+003
 4.357660114765e-001 -8.407471679688e+003
 4.445050656796e-001 -7.971807617188e+003
 4.533043503761e-001 -7.588694824219e+003
 4.621653556824e-001 -7.255280761719e+003
 4.710862934589e-001 -6.958829589844e+003
 4.800668954849e-001 -6.678727539063e+003
 4.891059994698e-001 -6.388521972656e+003
 4.982022643089e-001 -6.066367187500e+003
 5.073529481888e-001 -5.699891113281e+003
 5.165575146675e-001 -5.288505859375e+003
 5.258128643036e-001 -4.844168457031e+003
 5.351228117943e-001 -4.391553710938e+003
 5.444812774658e-001 -3.960102539063e+003
 5.538845062256e-001 -3.573339599609e+003
 5.633321404457e-001 -3.247316406250e+003
 5.728241801262e-001 -2.989111572266e+003
 5.823578238487e-001 -2.800824218750e+003
 5.919311046600e-001 -2.670577636719e+003
 6.015453934669e-001 -2.587031005859e+003
 6.111975312233e-001 -2.537810791016e+003
 6.208902597427e-001 -2.511147949219e+003
 6.306194663048e-001 -2.497055419922e+003
 6.403872966766e-001 -2.487245849609e+003
 6.501914262772e-001 -2.477035888672e+003
 6.600331664085e-001 -2.463640869141e+003
 6.699125766754e-001 -2.445628173828e+003
 6.798282861710e-001 -2.422484375000e+003
 6.897779107094e-001 -2.395004394531e+003
 6.997646093369e-001 -2.363893310547e+003
 7.097854018211e-001 -2.330057617188e+003
 7.198396921158e-001 -2.294452636719e+003
 7.299295663834e-001 -2.257993652344e+003
 7.400498390198e-001 -2.221624267578e+003
 7.502030134201e-001 -2.186066894531e+003
 7.603873014450e-001 -2.151858398438e+003
 7.706044316292e-001 -2.119326416016e+003
 7.808516025543e-001 -2.088521728516e+003
 7.911300063133e-001 -2.058831542969e+003
 8.014372587204e-001 -2.029416137695e+003
 8.117715716362e-001 -1.999247680664e+003
 8.221347332001e-001 -1.967291992188e+003
 8.325334787369e-001 -1.932514526367e+003
 8.429600596428e-001 -1.894577636719e+003
 8.534175157547e-001 -1.853623657227e+003
 8.639065027237e-001 -1.810606811523e+003
 8.744282722473e-001 -1.767439453125e+003
 8.849768638611e-001 -1.727521240234e+003
 8.955576419830e-001 -1.694841430664e+003
 9.061646461487e-001 -1.674159423828e+003
 9.167975783348e-001 -1.670920410156e+003
 9.274550676346e-001 -1.690907348633e+003
 9.381333589554e-001 -1.741587646484e+003
 9.488244652748e-001 -1.825380737305e+003
 9.595285654068e-001 -1.943412109375e+003
 9.702405929565e-001 -2.092358886719e+003
 9.809674620628e-001 -2.262273925781e+003
 9.917023777962e-001 -2.431859863281e+003
 1.002451658249e+000 -2.567080566406e+003
 1.013213038445e+000 -2.622387451172e+003
 1.023989915848e+000 -2.540197753906e+003
 1.034777402878e+000 -2.253142578125e+003
 1.045578122139e+000 -1.668479614258e+003
 1.056386470795e+000 -7.339931030273e+002
 1.067199707031e+000  5.864494018555e+002
 1.078011512756e+000  2.283791992188e+003
 1.088817238808e+000  4.280184082031e+003
 1.099610686302e+000  6.387757812500e+003
 1.110381364822e+000  8.261282226563e+003
 1.121121883392e+000  9.489534179688e+003
 1.131819605827e+000  9.760216796875e+003
 1.142471790314e+000  9.064131835938e+003
 1.153066158295e+000  7.739742675781e+003
 1.163609266281e+000  6.388024902344e+003
 1.174105644226e+000  5.475696777344e+003
 1.184556007385e+000  5.297126464844e+003
 1.194970369339e+000  5.958434570313e+003
 1.205343365669e+000  7.391687500000e+003
 1.215683221817e+000  9.229663085938e+003
 1.225981354713e+000  1.104194335938e+004
 1.236238360405e+000  1.248768066406e+004
 1.246451020241e+000  1.347371777344e+004
 1.256606936455e+000  1.419765527344e+004
 1.266714811325e+000  1.502700878906e+004
 1.276769399643e+000  1.617488769531e+004
 1.286771416664e+000  1.761700585938e+004
 1.296721577644e+000  1.910980468750e+004
 1.306616663933e+000  2.028641406250e+004
 1.316458463669e+000  2.094108593750e+004
 1.326246738434e+000  2.113310546875e+004
 1.335988998413e+000  2.113767382813e+004
 1.345681905746e+000  2.132093945313e+004
 1.355327248573e+000  2.198514062500e+004
 1.364931941032e+000  2.313004101563e+004
 1.374489665031e+000  2.452351953125e+004
 1.383997201920e+000  2.584766015625e+004
 1.393451094627e+000  2.685634960938e+004
 1.402843713760e+000  2.749733984375e+004
 1.412175655365e+000  2.798038281250e+004
 1.421441435814e+000  2.856435546875e+004
 1.430639863014e+000  2.941562500000e+004
 1.439765930176e+000  3.052403906250e+004
 1.448809504509e+000  3.169971093750e+004
 1.457769393921e+000  3.269614257813e+004
 1.466648697853e+000  3.340110156250e+004
 1.475447654724e+000  3.388375000000e+004
 1.484167933464e+000  3.434742968750e+004
 1.492809057236e+000  3.501062500000e+004
 1.501374483109e+000  3.592392578125e+004
 1.509862899780e+000  3.695495703125e+004
 1.518269181252e+000  3.788846484375e+004
 1.526589035988e+000  3.855632421875e+004
 1.534812569618e+000  3.894210156250e+004
 1.542940974236e+000  3.923203515625e+004
 1.550974011421e+000  3.964233203125e+004
 1.558912038803e+000  4.029564453125e+004
 1.566756367683e+000  4.115973828125e+004
 1.574505209923e+000  4.206698046875e+004
 1.582159280777e+000  4.284118359375e+004
 1.589719533920e+000  4.343984375000e+004
 1.597186326981e+000  4.393730078125e+004
 1.604556918144e+000  4.446063281250e+004
 1.611824274063e+000  4.510129687500e+004
 1.618990063667e+000  4.581158593750e+004
 1.626051545143e+000  4.645164843750e+004
 1.633007407188e+000  4.690263671875e+004
 1.639855146408e+000  4.714575000000e+004
 1.646587252617e+000  4.728000000000e+004
 1.653206825256e+000  4.747753125000e+004
 1.659716963768e+000  4.785077343750e+004
 1.666115283966e+000  4.840437109375e+004
 1.672404766083e+000  4.904294921875e+004
 1.678580641747e+000  4.962875000000e+004
 1.684650897980e+000  5.008106640625e+004
 1.690616369247e+000  5.041300000000e+004
 1.696479916573e+000  5.068153515625e+004
 1.702240228653e+000  5.093569140625e+004
 1.707896113396e+000  5.117295703125e+004
 1.713448047638e+000  5.133167968750e+004
 1.718896746635e+000  5.135862890625e+004
 1.724245190620e+000  5.126788281250e+004
 1.729493260384e+000  5.115032421875e+004
 1.734636783600e+000  5.114345312500e+004
 1.739676117897e+000  5.136862500000e+004
 1.744606137276e+000  5.187960156250e+004
 1.749420166016e+000  5.266808593750e+004
 1.754106402397e+000  5.368146484375e+004
 1.758644223213e+000  5.486585546875e+004
 1.763016700745e+000  5.616399218750e+004
 1.767205834389e+000  5.748888281250e+004
 1.771192908287e+000  5.868237109375e+004
 1.774964809418e+000  5.950205859375e+004
 1.778506278992e+000  5.966512890625e+004
 1.781829833984e+000  5.909036718750e+004
 1.784954786301e+000  5.801921875000e+004
 1.787901759148e+000  5.688726953125e+004
 1.790689587593e+000  5.613880078125e+004
 1.793329715729e+000  5.602697656250e+004
 1.795836210251e+000  5.643541015625e+004
 1.798218727112e+000  5.703791796875e+004
 1.800480127335e+000  5.756281250000e+004
 1.802620172501e+000  5.792114843750e+004
 1.804632663727e+000  5.823280859375e+004
 1.806514620781e+000  5.870120312500e+004
 1.808262586594e+000  5.937501953125e+004
 1.809868097305e+000  6.010910937500e+004
 1.811322331429e+000  6.065426953125e+004
 1.812612295151e+000  6.080652734375e+004
 1.813730835915e+000  6.059111718750e+004
 1.814680337906e+000  6.025397656250e+004
 1.815459251404e+000  6.007250390625e+004
 1.816067457199e+000  6.020225781250e+004
 1.816499710083e+000  6.058542187500e+004
 1.816755890846e+000  6.097456250000e+004
 1.816840887070e+000  6.115147265625e+004
 1.816755056381e+000  6.105501953125e+004
 1.816499114037e+000  6.079001171875e+004
 1.816068530083e+000  6.055321484375e+004
 1.815462946892e+000  6.048130078125e+004
 1.814686417580e+000  6.052124218750e+004
 1.813736081123e+000  6.050179296875e+004
 1.812609314919e+000  6.025174609375e+004
 1.811298489571e+000  5.970405859375e+004
 1.809801220894e+000  5.896556640625e+004
 1.808124423027e+000  5.823581640625e+004
 1.806269526482e+000  5.766798046875e+004
 1.804237008095e+000  5.729552343750e+004
 1.802023053169e+000  5.701967968750e+004
 1.799625635147e+000  5.668024609375e+004
 1.797051310539e+000  5.620066406250e+004
 1.794299602509e+000  5.561408593750e+004
 1.791373372078e+000  5.502466796875e+004
 1.788268208504e+000  5.453662500000e+004
 1.784984350204e+000  5.415928906250e+004
 1.781528592110e+000  5.377585156250e+004
 1.777901291847e+000  5.323091406250e+004
 1.774103164673e+000  5.241887500000e+004
 1.770131468773e+000  5.134655859375e+004
 1.765986800194e+000  5.016255468750e+004
 1.761677503586e+000  4.906130078125e+004
 1.757205247879e+000  4.816310546875e+004
 1.752572178841e+000  4.746378906250e+004
 1.747776627541e+000  4.684416796875e+004
 1.742816090584e+000  4.614039453125e+004
 1.737701058388e+000  4.528296484375e+004
 1.732436895370e+000  4.432101171875e+004
 1.727028489113e+000  4.337989453125e+004
 1.721477866173e+000  4.257649609375e+004
 1.715786337852e+000  4.191589453125e+004
 1.709962487221e+000  4.126475390625e+004
 1.704007387161e+000  4.046560546875e+004
 1.697924137115e+000  3.942530078125e+004
 1.691712856293e+000  3.817460546875e+004
 1.685372233391e+000  3.687401562500e+004
 1.678915977478e+000  3.569521875000e+004
 1.672345280647e+000  3.470836718750e+004
 1.665661931038e+000  3.386032421875e+004
 1.658871173859e+000  3.300908203125e+004
 1.651971817017e+000  3.200972851563e+004
 1.644978761673e+000  3.084576562500e+004
 1.637894034386e+000  2.962071875000e+004
 1.630730271339e+000  2.849491015625e+004
 1.623485326767e+000  2.759379687500e+004
 1.616168022156e+000  2.692044140625e+004
 1.608783006668e+000  2.632576757813e+004
 1.601334691048e+000  2.562283007813e+004
 1.593829035759e+000  2.467576757813e+004
 1.586265444756e+000  2.347123437500e+004
 1.578650593758e+000  2.213647851563e+004
 1.570995807648e+000  2.084976171875e+004
 1.563312172890e+000  1.971916796875e+004
 1.555608034134e+000  1.875697851563e+004
 1.547897100449e+000  1.788841406250e+004
 1.540191650391e+000  1.698987890625e+004
 1.532503604889e+000  1.598310351563e+004
 1.524839043617e+000  1.487518847656e+004
 1.517212748528e+000  1.374184277344e+004
 1.509630441666e+000  1.267616894531e+004
 1.502104043961e+000  1.174538574219e+004
 1.494637489319e+000  1.094314062500e+004
 1.487238526344e+000  1.021440722656e+004
 1.479910612106e+000  9.474875000000e+003
 1.472660064697e+000  8.644197265625e+003
 1.465496301651e+000  7.679757812500e+003
 1.458423852921e+000  6.602644531250e+003
 1.451447844505e+000  5.461096679688e+003
 1.444573640823e+000  4.319682128906e+003
 1.437810540199e+000  3.242692138672e+003
 1.431169867516e+000  2.283721435547e+003
 1.424655675888e+000  1.459046142578e+003
 1.418271899223e+000  7.651330566406e+002
 1.412024378777e+000  1.834097747803e+002
 1.405921578407e+000 -3.084440307617e+002
 1.399972438812e+000 -7.280971679688e+002
 1.394175887108e+000 -1.089317749023e+003
 1.388533830643e+000 -1.391277832031e+003
 1.383047699928e+000 -1.629913940430e+003
 1.377721071243e+000 -1.805149169922e+003
 1.372563958168e+000 -1.921308593750e+003
 1.367567062378e+000 -1.991606689453e+003
 1.362732529640e+000 -2.025546264648e+003
 1.358062028885e+000 -2.031518432617e+003
 1.353555560112e+000 -2.017047729492e+003
 1.349223613739e+000 -1.988583007813e+003
 1.345053195953e+000 -1.952369873047e+003
 1.341045022011e+000 -1.912338989258e+003
 1.337196469307e+000 -1.871517700195e+003
 1.333507180214e+000 -1.832218750000e+003
 1.329982161522e+000 -1.796517211914e+003
 1.326611161232e+000 -1.765883422852e+003
 1.323390483856e+000 -1.742261596680e+003
 1.320317029953e+000 -1.728370605469e+003
 1.317386269569e+000 -1.727473022461e+003
 1.314602971077e+000 -1.744102050781e+003
 1.311952710152e+000 -1.780496582031e+003
 1.309431076050e+000 -1.839191650391e+003
 1.307032585144e+000 -1.922278320313e+003
 1.304751515388e+000 -2.030702880859e+003
 1.302587389946e+000 -2.163570800781e+003
 1.300528407097e+000 -2.311963867188e+003
 1.298567652702e+000 -2.462269531250e+003
 1.296699643135e+000 -2.592125732422e+003
 1.294918060303e+000 -2.669035888672e+003
 1.293222069740e+000 -2.640295654297e+003
 1.291601538658e+000 -2.455424316406e+003
 1.290051937103e+000 -2.056884765625e+003
 1.288567781448e+000 -1.390313964844e+003
 1.287146449089e+000 -4.152337646484e+002
 1.285789012909e+000  8.970378417969e+002
 1.284488916397e+000  2.477545410156e+003
 1.283241868019e+000  4.200172363281e+003
 1.282040476799e+000  5.842887695313e+003
 1.280874371529e+000  7.080260253906e+003
 1.279734849930e+000  7.489954101563e+003
 1.278611183167e+000  6.939503906250e+003
 1.277497887611e+000  5.582389648438e+003
 1.276392340660e+000  3.782609130859e+003
 1.275296688080e+000  1.941426879883e+003
 1.274216771126e+000  4.191796264648e+002
 1.273159503937e+000 -5.610295410156e+002
 1.272133111954e+000 -8.628774414063e+002
 1.271144509315e+000 -4.181458129883e+002
 1.270198583603e+000  7.725214233398e+002
 1.269295692444e+000  2.656197265625e+003
 1.268424630165e+000  4.989746093750e+003
 1.267569422722e+000  7.454177734375e+003
 1.266711950302e+000  9.637004882813e+003
 1.265834093094e+000  1.116257421875e+004
 1.264917969704e+000  1.182182714844e+004
 1.263957023621e+000  1.180345507813e+004
 1.262951850891e+000  1.144332128906e+004
 1.261908054352e+000  1.108222363281e+004
 1.260833978653e+000  1.093424902344e+004
 1.259738087654e+000  1.104799707031e+004
 1.258630394936e+000  1.130439453125e+004
 1.257517457008e+000  1.158250976563e+004
 1.256403565407e+000  1.184440625000e+004
 1.255289673805e+000  1.216173925781e+004
 1.254173517227e+000  1.269636230469e+004
 1.253050088882e+000  1.355450195313e+004
 1.251911401749e+000  1.470204199219e+004
 1.250748515129e+000  1.596178222656e+004
 1.249550938606e+000  1.707294140625e+004
 1.248306870461e+000  1.777948632813e+004
 1.247012019157e+000  1.803104101563e+004
 1.245666027069e+000  1.796873242188e+004
 1.244270801544e+000  1.784789257813e+004
 1.242828011513e+000  1.792578515625e+004
 1.241335511208e+000  1.835984765625e+004
 1.239792704582e+000  1.907788476563e+004
 1.238194227219e+000  1.988590820313e+004
 1.236534357071e+000  2.058183007813e+004
 1.234808683395e+000  2.104917968750e+004
 1.233010888100e+000  2.130528710938e+004
 1.231141686440e+000  2.149634960938e+004
 1.229199290276e+000  2.174583789063e+004
 1.227181315422e+000  2.208595703125e+004
 1.225085854530e+000  2.244700390625e+004
 1.222907900810e+000  2.270224023438e+004
 1.220649957657e+000  2.278935937500e+004
 1.218313217163e+000  2.276831835938e+004
 1.215897798538e+000  2.279046679688e+004
 1.213405370712e+000  2.302704687500e+004
 1.210831880569e+000  2.358717187500e+004
 1.208177328110e+000  2.439803515625e+004
 1.205439567566e+000  2.527135351563e+004
 1.202613830566e+000  2.599483203125e+004
 1.199696063995e+000  2.642007812500e+004
 1.196679234505e+000  2.650905859375e+004
 1.193566560745e+000  2.637571289063e+004
 1.190357923508e+000  2.617194335938e+004
 1.187054395676e+000  2.601201367188e+004
 1.183656096458e+000  2.593699218750e+004
 1.180159211159e+000  2.592394335938e+004
 1.176566720009e+000  2.592626171875e+004
 1.172880172729e+000  2.593934375000e+004
 1.169100165367e+000  2.601062890625e+004
 1.165225386620e+000  2.620942773438e+004
 1.161252617836e+000  2.658437304688e+004
 1.157180190086e+000  2.709384570313e+004
 1.153007864952e+000  2.762166796875e+004
 1.148733377457e+000  2.802899609375e+004
 1.144356131554e+000  2.820994921875e+004
 1.139871954918e+000  2.812862500000e+004
 1.135284662247e+000  2.786627343750e+004
 1.130599021912e+000  2.755199023438e+004
 1.125816941261e+000  2.729376757813e+004
 1.120940208435e+000  2.714302929688e+004
 1.115966320038e+000  2.708485937500e+004
 1.110896587372e+000  2.705081640625e+004
 1.105731368065e+000  2.698728320313e+004
 1.100469708443e+000  2.688295312500e+004
 1.095111370087e+000  2.676457617188e+004
 1.089653849602e+000  2.667539648438e+004
 1.084098339081e+000  2.663160156250e+004
 1.078448414803e+000  2.660352734375e+004
 1.072702050209e+000  2.654091992188e+004
 1.066869735718e+000  2.640353906250e+004
 1.060940027237e+000  2.618856640625e+004
 1.054920196533e+000  2.594993359375e+004
 1.048812627792e+000  2.575621679688e+004
 1.042622685432e+000  2.565010546875e+004
 1.036352992058e+000  2.562669335938e+004
 1.029992222786e+000  2.562913867188e+004
 1.023552179337e+000  2.557144921875e+004
 1.017031311989e+000  2.539593359375e+004
 1.010429143906e+000  2.508706250000e+004
 1.003742337227e+000  2.467000976563e+004
 9.969779849052e-001  2.419320507813e+004
 9.901286363602e-001  2.370731835938e+004
 9.832028746605e-001  2.324293945313e+004
 9.762074947357e-001  2.281523632813e+004
 9.691423773766e-001  2.243256054688e+004
 9.620082378387e-001  2.210684179688e+004
 9.548071622849e-001  2.184908398438e+004
 9.475434422493e-001  2.165757421875e+004
 9.402190446854e-001  2.151513085938e+004
 9.328345060349e-001  2.138630273438e+004
 9.253892898560e-001  2.122213281250e+004
 9.178847670555e-001  2.097680859375e+004
 9.103235602379e-001  2.062927343750e+004
 9.027078747749e-001  2.018157421875e+004
 8.950400352478e-001  1.965790820313e+004
 8.873209357262e-001  1.909602539063e+004
 8.795540928841e-001  1.853907617188e+004
 8.717437982559e-001  1.801719726563e+004
 8.638933897018e-001  1.754255078125e+004
 8.560065031052e-001  1.711018945313e+004
 8.480845093727e-001  1.670139453125e+004
 8.401303887367e-001  1.628658203125e+004
 8.321480751038e-001  1.584114550781e+004
 8.241395950317e-001  1.535211621094e+004
 8.161078095436e-001  1.482041503906e+004
 8.080564141273e-001  1.426148925781e+004
 7.999868392944e-001  1.370445898438e+004
 7.919008731842e-001  1.317876171875e+004
 7.837991714478e-001  1.270538867188e+004
 7.756818532944e-001  1.229080371094e+004
 7.675490379333e-001  1.192529003906e+004
 7.593991160393e-001  1.158233300781e+004
 7.512355446815e-001  1.123100976563e+004
 7.430595159531e-001  1.084687792969e+004
 7.348809242249e-001  1.041499707031e+004
 7.266879677773e-001  9.929233398438e+003
 7.184967994690e-001  9.392897460938e+003
 7.103093266487e-001  8.816838867188e+003
 7.021214365959e-001  8.213233398438e+003
 6.939467191696e-001  7.597877441406e+003
 6.857771873474e-001  6.990625976563e+003
 6.776157021523e-001  6.415055175781e+003
 6.694670915604e-001  5.889628417969e+003
 6.613314151764e-001  5.424272949219e+003
 6.532085537910e-001  5.016406738281e+003
 6.450997591019e-001  4.654080566406e+003
 6.370081305504e-001  4.317009277344e+003
 6.289363503456e-001  3.983320312500e+003
 6.208866238594e-001  3.637640869141e+003
 6.128618717194e-001  3.273316650391e+003
 6.048645973206e-001  2.893253417969e+003
 5.968959331512e-001  2.508609130859e+003
 5.889558196068e-001  2.132273437500e+003
 5.810444355011e-001  1.773584960938e+003
 5.731618404388e-001  1.438172241211e+003
 5.653091073036e-001  1.128983886719e+003
 5.574861168861e-001  8.476421508789e+002
 5.496917963028e-001  5.942445068359e+002
 5.419265627861e-001  3.712482299805e+002
 5.341898202896e-001  1.825318908691e+002
 5.264821648598e-001  3.278980255127e+001
 5.188000202179e-001 -7.525241088867e+001
 5.111541748047e-001 -1.455320739746e+002
 5.035322904587e-001 -1.828462219238e+002
 4.959383308887e-001 -1.934644470215e+002
 4.883740544319e-001 -1.841838226318e+002
 4.808357357979e-001 -1.624317932129e+002
 4.733307957649e-001 -1.355750427246e+002
 4.658458828926e-001 -1.088541488647e+002
 4.583878219128e-001 -8.597466278076e+001
 4.509582519531e-001 -6.923902893066e+001
 4.435481727123e-001 -5.978051376343e+001
 4.361552298069e-001 -5.734540176392e+001
 4.287891089916e-001 -6.160287094116e+001
 4.214376807213e-001 -7.185139465332e+001
 4.141070842743e-001 -8.702616882324e+001
 4.067966341972e-001 -1.055824356079e+002
 3.995020389557e-001 -1.255917282104e+002
 3.922255933285e-001 -1.456637115479e+002
 3.849646449089e-001 -1.650464172363e+002
 3.777184784412e-001 -1.836975097656e+002
 3.704864680767e-001 -2.022414550781e+002
 3.632659912109e-001 -2.214973907471e+002
 3.560563921928e-001 -2.419677429199e+002
 3.488566279411e-001 -2.636751403809e+002
 3.416656255722e-001 -2.861013183594e+002
 3.344835042953e-001 -3.082803955078e+002
 3.273089230061e-001 -3.293847656250e+002
 3.201414048672e-001 -3.489811401367e+002
 3.129805922508e-001 -3.671153869629e+002
 3.058251142502e-001 -3.842802124023e+002
 2.986748814583e-001 -4.012297058105e+002
 2.915296554565e-001 -4.186615600586e+002
 2.843886613846e-001 -4.370051574707e+002
 2.772520482540e-001 -4.564700622559e+002
 2.701196074486e-001 -4.771455688477e+002
 2.629902660847e-001 -4.991277770996e+002
 2.558632791042e-001 -5.223493652344e+002
 2.487374693155e-001 -5.466988525391e+002
 2.416111230850e-001 -5.718698120117e+002
 2.344858497381e-001 -5.972614135742e+002
 2.273573875427e-001 -6.219953002930e+002
 2.202282547951e-001 -6.454423828125e+002
 2.130926996469e-001 -6.674363403320e+002
 2.059572488070e-001 -6.883927001953e+002
 1.988155394793e-001 -7.092176513672e+002
 1.916645914316e-001 -7.310317993164e+002
 1.845119446516e-001 -7.545537719727e+002
 1.773521751165e-001 -7.800178833008e+002
 1.701877117157e-001 -8.071678466797e+002
 1.630132645369e-001 -8.354592285156e+002
 1.558357477188e-001 -8.643460693359e+002
 1.486520320177e-001 -8.935322265625e+002
 1.414608657360e-001 -9.231537475586e+002
 1.342620253563e-001 -9.536084594727e+002
 1.270551979542e-001 -9.854058837891e+002
 1.198393404484e-001 -1.019078613281e+003
 1.126153916121e-001 -1.054571166992e+003
 1.053832024336e-001 -1.091459838867e+003
 9.814286231995e-002 -1.129061523438e+003
 9.089498966932e-002 -1.166620605469e+003
 8.363878726959e-002 -1.203367431641e+003
 7.637533545494e-002 -1.238874267578e+003
 6.910520792007e-002 -1.272895385742e+003
 6.182799115777e-002 -1.305307617188e+003
 5.454411357641e-002 -1.336104370117e+003
 4.725354909897e-002 -1.365364013672e+003
 3.995615243912e-002 -1.393590698242e+003
 3.265243396163e-002 -1.421354125977e+003
 2.534217387438e-002 -1.449169555664e+003
 1.802629418671e-002 -1.477279052734e+003
 1.070336345583e-002 -1.505519653320e+003
 3.374569816515e-003 -1.533319335938e+003
-3.959460183978e-003 -1.559956420898e+003
-1.129905041307e-002 -1.584743530273e+003
-1.864360831678e-002 -1.607225463867e+003
-2.598892338574e-002 -1.627227661133e+003
-3.334286436439e-002 -1.645410766602e+003
-4.070039838552e-002 -1.662562988281e+003
-4.806181788445e-002 -1.679414550781e+003
-5.542655661702e-002 -1.696421020508e+003
-6.279445439577e-002 -1.713636840820e+003
-7.016494125128e-002 -1.730671142578e+003
-7.753587514162e-002 -1.746925170898e+003
-8.490885794163e-002 -1.761715454102e+003
-9.228466451168e-002 -1.774461181641e+003
-9.966374188662e-002 -1.784721801758e+003
-1.070428565145e-001 -1.792697631836e+003
-1.144240275025e-001 -1.798767333984e+003
-1.218069642782e-001 -1.803463745117e+003
-1.291909962893e-001 -1.807368041992e+003
-1.365751028061e-001 -1.811074096680e+003
-1.439598500729e-001 -1.815152954102e+003
-1.513413488865e-001 -1.819988403320e+003
-1.587220281363e-001 -1.825799316406e+003
-1.661058813334e-001 -1.832649536133e+003
-1.734785139561e-001 -1.840513916016e+003
-1.808518618345e-001 -1.849119995117e+003
-1.882214993238e-001 -1.858045410156e+003
-1.955870389938e-001 -1.866630737305e+003
-2.029493451118e-001 -1.874019287109e+003
-2.103078663349e-001 -1.879077026367e+003
-2.176644355059e-001 -1.880745849609e+003
-2.250132113695e-001 -1.877712280273e+003
-2.323627322912e-001 -1.868343139648e+003
-2.397079020739e-001 -1.850822021484e+003
-2.470490932465e-001 -1.822785644531e+003
-2.543852925301e-001 -1.783445434570e+003
-2.617155611515e-001 -1.733120239258e+003
-2.690399587154e-001 -1.674106811523e+003
-2.763575315475e-001 -1.611512207031e+003
-2.836634516716e-001 -1.554895874023e+003
-2.909696102142e-001 -1.518069213867e+003
-2.982611358166e-001 -1.518005615234e+003
-3.055431544781e-001 -1.574683349609e+003
-3.128180801868e-001 -1.709409301758e+003
-3.200823962688e-001 -1.947986083984e+003
-3.273357450962e-001 -2.301584472656e+003
-3.345772027969e-001 -2.770915527344e+003
-3.418063223362e-001 -3.340159912109e+003
-3.490206897259e-001 -3.968789550781e+003
-3.562131822109e-001 -4.578792968750e+003
-3.633899688721e-001 -5.060109863281e+003
-3.705453276634e-001 -5.311167480469e+003
-3.776791095734e-001 -5.270223144531e+003
-3.847911655903e-001 -4.941573242188e+003
-3.918811082840e-001 -4.395681640625e+003
-3.989531099796e-001 -3.772826660156e+003
-4.060093760490e-001 -3.206423095703e+003
-4.130490422249e-001 -2.806475097656e+003
-4.200825989246e-001 -2.649967529297e+003
-4.270987510681e-001 -2.789265869141e+003
-4.341079294682e-001 -3.208960693359e+003
-4.411048889160e-001 -3.852481445313e+003
-4.480870068073e-001 -4.627440429688e+003
-4.550524652004e-001 -5.411213867188e+003
-4.619976282120e-001 -6.065036621094e+003
-4.689206779003e-001 -6.493368164063e+003
-4.758209288120e-001 -6.676998535156e+003
-4.826942682266e-001 -6.666705078125e+003
-4.895479679108e-001 -6.570984863281e+003
-4.963791370392e-001 -6.533630859375e+003
-5.031880140305e-001 -6.682235351563e+003
-5.099770426750e-001 -7.080578125000e+003
-5.167466998100e-001 -7.727132812500e+003
-5.234961509705e-001 -8.554303710938e+003
-5.302224159241e-001 -9.439035156250e+003
-5.369197726250e-001 -1.022556542969e+004
-5.435922741890e-001 -1.078906347656e+004
-5.502296090126e-001 -1.105730957031e+004
-5.568283796310e-001 -1.103286621094e+004
-5.633941888809e-001 -1.078928906250e+004
-5.699241757393e-001 -1.045527539063e+004
-5.764197707176e-001 -1.014921386719e+004
-5.828842520714e-001 -9.946462890625e+003
-5.893174409866e-001 -9.876947265625e+003
-5.957326889038e-001 -9.929894531250e+003
-6.021245718002e-001 -1.005213574219e+004
-6.084966063499e-001 -1.019074804688e+004
-6.148504018784e-001 -1.031344238281e+004
-6.211870312691e-001 -1.041905273438e+004
-6.275010108948e-001 -1.053945703125e+004
-6.337917447090e-001 -1.072068359375e+004
-6.400574445724e-001 -1.099153125000e+004
-6.462947130203e-001 -1.135220996094e+004
-6.525056362152e-001 -1.176891015625e+004
-6.586819291115e-001 -1.217774414063e+004
-6.648312807083e-001 -1.250963085938e+004
-6.709547042847e-001 -1.273131933594e+004
-6.770481467247e-001 -1.285123730469e+004
-6.831191778183e-001 -1.291160449219e+004
-6.891673207283e-001 -1.296379101563e+004
-6.951944231987e-001 -1.303135546875e+004
-7.012014389038e-001 -1.308933886719e+004
-7.071875333786e-001 -1.308376464844e+004
-7.131510376930e-001 -1.296283691406e+004
-7.190866470337e-001 -1.270474609375e+004
-7.250018119812e-001 -1.235129882813e+004
-7.308929562569e-001 -1.198110839844e+004
-7.367672324181e-001 -1.167251367188e+004
-7.426280975342e-001 -1.147978125000e+004
-7.484794855118e-001 -1.142229785156e+004
-7.543245553970e-001 -1.147287695313e+004
-7.601649761200e-001 -1.158784960938e+004
-7.660014629364e-001 -1.173320507813e+004
-7.718288898468e-001 -1.189178222656e+004
-7.776507735252e-001 -1.206294042969e+004
-7.834594249725e-001 -1.224908496094e+004
-7.892501354218e-001 -1.244061328125e+004
-7.950189113617e-001 -1.261391308594e+004
-8.007613420486e-001 -1.273871484375e+004
-8.064737319946e-001 -1.278964062500e+004
-8.121551871300e-001 -1.276670996094e+004
-8.178115487099e-001 -1.269399218750e+004
-8.234477043152e-001 -1.259969726563e+004
-8.290695548058e-001 -1.250263085938e+004
-8.346731066704e-001 -1.240214160156e+004
-8.402708172798e-001 -1.227989160156e+004
-8.458622694016e-001 -1.211969824219e+004
-8.514482378960e-001 -1.192119531250e+004
-8.570295572281e-001 -1.170508593750e+004
-8.626028895378e-001 -1.150965625000e+004
-8.681764006615e-001 -1.137641699219e+004
-8.737382888794e-001 -1.132759179688e+004
-8.792966604233e-001 -1.136499707031e+004
-8.848481178284e-001 -1.147157128906e+004
-8.903906941414e-001 -1.162030664063e+004
-8.959220647812e-001 -1.178407226563e+004
-9.014396667480e-001 -1.194817382813e+004
-9.069392681122e-001 -1.210743750000e+004
-9.124203920364e-001 -1.225736132813e+004
-9.178733229637e-001 -1.238521875000e+004
-9.233016967773e-001 -1.246890917969e+004
-9.287031292915e-001 -1.249102734375e+004
-9.340776205063e-001 -1.244715039063e+004
-9.394277334213e-001 -1.235144433594e+004
-9.447561502457e-001 -1.223283886719e+004
-9.500663876534e-001 -1.212476855469e+004
-9.553613662720e-001 -1.204499023438e+004
-9.606441855431e-001 -1.199315234375e+004
-9.659168720245e-001 -1.195596386719e+004
-9.711709022522e-001 -1.191723828125e+004
-9.764103889465e-001 -1.186997851563e+004
-9.816316962242e-001 -1.182342773438e+004
-9.868335127831e-001 -1.179660058594e+004
-9.920150637627e-001 -1.180900097656e+004
-9.971758127213e-001 -1.187255371094e+004
-1.002317786217e+000 -1.198191503906e+004
-1.007442116737e+000 -1.211505566406e+004
-1.012546181679e+000 -1.224718164063e+004
-1.017635583878e+000 -1.235740429688e+004
-1.022706985474e+000 -1.243410058594e+004
-1.027749180794e+000 -1.247680078125e+004
-1.032765984535e+000 -1.249142382813e+004
-1.037750244141e+000 -1.248053808594e+004
-1.042699694633e+000 -1.244258007813e+004
-1.047613501549e+000 -1.237343554688e+004
-1.052493453026e+000 -1.227360839844e+004
-1.057344079018e+000 -1.215454589844e+004
-1.062171339989e+000 -1.203368164063e+004
-1.066979646683e+000 -1.193065722656e+004
-1.071768283844e+000 -1.186273242188e+004
-1.076535820961e+000 -1.183840917969e+004
-1.081280112267e+000 -1.185447558594e+004
-1.085996747017e+000 -1.190082128906e+004
-1.090681791306e+000 -1.196370800781e+004
-1.095327138901e+000 -1.202899121094e+004
-1.099936962128e+000 -1.208624316406e+004
-1.104503989220e+000 -1.213245703125e+004
-1.109033226967e+000 -1.216864648438e+004
-1.113529086113e+000 -1.219690820313e+004
-1.117993831635e+000 -1.221780273438e+004
-1.122430086136e+000 -1.222926855469e+004
-1.126841545105e+000 -1.222815625000e+004
-1.131227016449e+000 -1.221080859375e+004
-1.135583281517e+000 -1.217438183594e+004
-1.139906525612e+000 -1.211699902344e+004
-1.144190549850e+000 -1.203844140625e+004
-1.148431777954e+000 -1.194167871094e+004
-1.152635335922e+000 -1.183094824219e+004
-1.156800985336e+000 -1.171285156250e+004
-1.160931229591e+000 -1.159653808594e+004
-1.165029764175e+000 -1.149387500000e+004
-1.169100284576e+000 -1.141536035156e+004
-1.173143267632e+000 -1.136928710938e+004
-1.177155613899e+000 -1.135946289063e+004
-1.181137323380e+000 -1.138385937500e+004
-1.185081720352e+000 -1.143203027344e+004
-1.188988566399e+000 -1.148574511719e+004
-1.192853569984e+000 -1.152633007813e+004
-1.196680426598e+000 -1.153772167969e+004
-1.200469374657e+000 -1.150995800781e+004
-1.204222679138e+000 -1.144235156250e+004
-1.207943439484e+000 -1.134576367188e+004
-1.211635947227e+000 -1.123264550781e+004
-1.215298295021e+000 -1.111510156250e+004
-1.218928098679e+000 -1.100239453125e+004
-1.222520589828e+000 -1.089978222656e+004
-1.226078987122e+000 -1.080727734375e+004
-1.229602932930e+000 -1.072275683594e+004
-1.233092308044e+000 -1.064361230469e+004
-1.236546993256e+000 -1.056837207031e+004
-1.239967346191e+000 -1.049790527344e+004
-1.243357896805e+000 -1.043454492188e+004
-1.246720552444e+000 -1.038108984375e+004
-1.250054597855e+000 -1.033908300781e+004
-1.253363490105e+000 -1.030772070313e+004
-1.256642937660e+000 -1.028282031250e+004
-1.259894132614e+000 -1.025698437500e+004
-1.263116478920e+000 -1.022250097656e+004
-1.266310214996e+000 -1.017251855469e+004
-1.269475460052e+000 -1.010219042969e+004
-1.272610545158e+000 -1.000888671875e+004
-1.275716781616e+000 -9.894847656250e+003
-1.278796434402e+000 -9.763056640625e+003
-1.281848669052e+000 -9.617755859375e+003
-1.284878253937e+000 -9.463935546875e+003
-1.287886023521e+000 -9.307472656250e+003
-1.290874242783e+000 -9.154523437500e+003
-1.293842077255e+000 -9.010480468750e+003
-1.296788215637e+000 -8.879921875000e+003
-1.299710512161e+000 -8.766308593750e+003
-1.302606821060e+000 -8.671561523438e+003
-1.305478930473e+000 -8.592699218750e+003
-1.308331131935e+000 -8.524922851563e+003
-1.311168432236e+000 -8.461288085938e+003
-1.313994646072e+000 -8.393529296875e+003
-1.316813826561e+000 -8.312623046875e+003
-1.319629907608e+000 -8.213016601563e+003
-1.322444796562e+000 -8.091794921875e+003
-1.325258493423e+000 -7.949003417969e+003
-1.328075289726e+000 -7.787360351563e+003
-1.330890893936e+000 -7.611531250000e+003
-1.333705663681e+000 -7.428678222656e+003
-1.336522102356e+000 -7.244748535156e+003
-1.339339137077e+000 -7.065021484375e+003
-1.342156529427e+000 -6.893406738281e+003
-1.344974398613e+000 -6.732569824219e+003
-1.347793459892e+000 -6.582115234375e+003
-1.350612521172e+000 -6.440838378906e+003
-1.353431582451e+000 -6.306723632813e+003
-1.356252670288e+000 -6.177288574219e+003
-1.359069705009e+000 -6.049608886719e+003
-1.361885905266e+000 -5.920769042969e+003
-1.364699959755e+000 -5.788766113281e+003
-1.367511034012e+000 -5.652346679688e+003
-1.370319247246e+000 -5.510868164063e+003
-1.373125195503e+000 -5.363828125000e+003
-1.375930547714e+000 -5.211838867188e+003
-1.378737688065e+000 -5.055360351563e+003
-1.381547570229e+000 -4.894870605469e+003
-1.384366869926e+000 -4.730869628906e+003
-1.387198805809e+000 -4.563774902344e+003
-1.390046596527e+000 -4.395208007813e+003
-1.392914056778e+000 -4.226287597656e+003
-1.395803093910e+000 -4.060646484375e+003
-1.398716211319e+000 -3.900720214844e+003
-1.401657342911e+000 -3.751980468750e+003
-1.404635548592e+000 -3.618070800781e+003
-1.407655954361e+000 -3.502121337891e+003
-1.410731792450e+000 -3.405474365234e+003
-1.413877725601e+000 -3.326971191406e+003
-1.417109608650e+000 -3.263642822266e+003
-1.420430541039e+000 -3.208765869141e+003
-1.423840880394e+000 -3.156012207031e+003
-1.427332758904e+000 -3.099750244141e+003
-1.430884122849e+000 -3.036183349609e+003
-1.434452295303e+000 -2.963760742188e+003
-1.437967538834e+000 -2.885181640625e+003
-1.441344380379e+000 -2.804794433594e+003
-1.444478392601e+000 -2.727855468750e+003
-1.447250962257e+000 -2.659627929688e+003
-1.449506759644e+000 -2.605461181641e+003
-1.451171875000e+000 -2.566959716797e+003
-1.452210426331e+000 -2.544066406250e+003
-1.452679276466e+000 -2.534293701172e+003
-1.452770948410e+000 -2.532469482422e+003
endcurve
