Curveplot
LS-DYNA keyword deck by LS-PrePost
Yrot-displ
phi moment-stiffness
Joint Stiff
300001 #pts=1000
* Minval= -5.065167187500e+004 at time=      -1.674920678139
* Maxval=  2.092935937500e+004 at time=      -0.118480734527
 1.918310843507e-008  7.273124158382e-002
 1.627460832765e-008  1.079634428024e-001
 8.593540989921e-009  1.440199315548e-001
-5.260048840938e-009  1.748670637608e-001
-2.642046403878e-008  1.919377297163e-001
-5.542537806491e-008  1.841033399105e-001
-9.204575235344e-008  1.326609253883e-001
-1.332991246272e-007  1.514995470643e-002
-1.743520812170e-007 -1.906658411026e-001
-2.076034064658e-007 -4.978031516075e-001
-2.223557657999e-007 -9.019362926483e-001
-2.018683602500e-007 -1.377159595490e+000
-1.308101218456e-007 -1.869100332260e+000
 7.485251529715e-009 -2.324911117554e+000
 2.289245344400e-007 -2.691153764725e+000
 5.476494493450e-007 -2.922960996628e+000
 9.814625627769e-007 -2.983504295349e+000
 1.532384430902e-006 -2.866857767105e+000
 2.203455096605e-006 -2.574494123459e+000
 2.995665681738e-006 -2.122301578522e+000
 3.906981419277e-006 -1.532731175423e+000
 4.941231509292e-006 -8.216204643250e-001
 6.087517249398e-006 -8.702874183655e-003
 7.341985110543e-006  9.123637080193e-001
 8.700618309376e-006  1.958358764648e+000
 1.015871839627e-005  3.145949125290e+000
 1.171716121462e-005  4.509464740753e+000
 1.336380319117e-005  6.063478946686e+000
 1.508879904577e-005  7.825186729431e+000
 1.688057454885e-005  9.808404922485e+000
 1.872256143542e-005  1.201368141174e+001
 2.059407233901e-005  1.445402145386e+001
 2.246470103273e-005  1.712718772888e+001
 2.430106360407e-005  2.006213188171e+001
 2.606175075925e-005  2.330842971802e+001
 2.769850470941e-005  2.694149971008e+001
 2.913790012826e-005  3.110074424744e+001
 3.031246887986e-005  3.591035079956e+001
 3.114065839327e-005  4.149502182007e+001
 3.152825593133e-005  4.797483062744e+001
 3.137056410196e-005  5.545518493652e+001
 3.051069870708e-005  6.406500244141e+001
 2.884235254896e-005  7.374500274658e+001
 2.624082117109e-005  8.435362243652e+001
 2.257039159304e-005  9.558364105225e+001
 1.769344817149e-005  1.068809204102e+002
 1.139191772381e-005  1.172638092041e+002
 3.571593651941e-006  1.253679580688e+002
-5.887035513297e-006  1.295354003906e+002
-1.710522337817e-005  1.278159255981e+002
-3.019310133823e-005  1.181374816895e+002
-4.534402978607e-005  9.799308776855e+001
-6.255366315600e-005  6.641023254395e+001
-8.182959572878e-005  2.363932800293e+001
-1.031808351399e-004 -2.823150253296e+001
-1.265735481866e-004 -8.430429077148e+001
-1.520827499917e-004 -1.352773437500e+002
-1.796226424631e-004 -1.669510650635e+002
-2.092091599479e-004 -1.613855133057e+002
-2.410219894955e-004 -9.677495574951e+001
-2.754168526735e-004  5.099637603760e+001
-3.132063138764e-004  3.117532348633e+002
-3.554083523341e-004  7.014757080078e+002
-4.034140438307e-004  1.223157714844e+003
-4.591248871293e-004  1.861114379883e+003
-5.248508532532e-004  2.570708984375e+003
-6.038304418325e-004  3.262200195313e+003
-6.984710344113e-004  3.798621337891e+003
-8.106020395644e-004  4.054637207031e+003
-9.414387168363e-004  3.978461914063e+003
-1.091162790544e-003  3.635971923828e+003
-1.259796204977e-003  3.191407470703e+003
-1.445637433790e-003  2.837352294922e+003
-1.647307653911e-003  2.701386474609e+003
-1.864425954409e-003  2.845094238281e+003
-2.097229938954e-003  3.261170410156e+003
-2.347861882299e-003  3.872802734375e+003
-2.617692109197e-003  4.518630859375e+003
-2.908587455750e-003  5.036408691406e+003
-3.222169354558e-003  5.329740234375e+003
-3.559546312317e-003  5.416353515625e+003
-3.922325558960e-003  5.424057128906e+003
-4.310191143304e-003  5.528891601563e+003
-4.723333287984e-003  5.839747558594e+003
-5.162954796106e-003  6.377692871094e+003
-5.630902014673e-003  7.076195800781e+003
-6.131060421467e-003  7.808080078125e+003
-6.665623746812e-003  8.450760742188e+003
-7.236614357680e-003  8.968404296875e+003
-7.846156135201e-003  9.409000976563e+003
-8.496608585119e-003  9.863895507813e+003
-9.191634133458e-003  1.040978222656e+004
-9.933073073626e-003  1.103494042969e+004
-1.072236057371e-002  1.164132421875e+004
-1.156183145940e-002  1.210654492188e+004
-1.245314162225e-002  1.234577734375e+004
-1.339923404157e-002  1.235625683594e+004
-1.439937204123e-002  1.225667187500e+004
-1.545196305960e-002  1.220380664063e+004
-1.655686087906e-002  1.231357617188e+004
-1.771420240402e-002  1.261690722656e+004
-1.892755366862e-002  1.304947656250e+004
-2.019747532904e-002  1.347881445313e+004
-2.152454108000e-002  1.380791992188e+004
-2.290962822735e-002  1.401832128906e+004
-2.435428276658e-002  1.417125292969e+004
-2.586098015308e-002  1.437574804688e+004
-2.743099443614e-002  1.471775976563e+004
-2.906347997487e-002  1.519878027344e+004
-3.076067753136e-002  1.575320800781e+004
-3.252474218607e-002  1.628618457031e+004
-3.436017408967e-002  1.672126171875e+004
-3.626855090261e-002  1.705169726563e+004
-3.824983164668e-002  1.733319140625e+004
-4.030542820692e-002  1.762898828125e+004
-4.243633896112e-002  1.796786328125e+004
-4.464711621404e-002  1.831743164063e+004
-4.693875834346e-002  1.859254101563e+004
-4.930999875069e-002  1.872395312500e+004
-5.176182463765e-002  1.869909179688e+004
-5.429311096668e-002  1.857519335938e+004
-5.690763518214e-002  1.846017773438e+004
-5.960344895720e-002  1.845753906250e+004
-6.237837299705e-002  1.859471484375e+004
-6.523406505585e-002  1.883047265625e+004
-6.817146390676e-002  1.908300585938e+004
-7.119332998991e-002  1.927408789063e+004
-7.430114597082e-002  1.938190429688e+004
-7.749357074499e-002  1.945020312500e+004
-8.077019453049e-002  1.954434179688e+004
-8.413243293762e-002  1.971278320313e+004
-8.758433908224e-002  1.995697070313e+004
-9.112643450499e-002  2.022260546875e+004
-9.475682675838e-002  2.044451757813e+004
-9.847786277533e-002  2.058711914063e+004
-1.022893786430e-001  2.065986914063e+004
-1.061957478523e-001  2.070697851563e+004
-1.101972535253e-001  2.077274609375e+004
-1.142922714353e-001  2.086004687500e+004
-1.184807345271e-001  2.092935937500e+004
-1.227621510625e-001  2.092203710938e+004
-1.271413862705e-001  2.079585937500e+004
-1.316169053316e-001  2.056242382813e+004
-1.361856758595e-001  2.028804492188e+004
-1.408479660749e-001  2.005167187500e+004
-1.456020176411e-001  1.991010546875e+004
-1.504484713078e-001  1.987283007813e+004
-1.553911119699e-001  1.989158593750e+004
-1.604267358780e-001  1.989631445313e+004
-1.655536592007e-001  1.984428125000e+004
-1.707714647055e-001  1.973445507813e+004
-1.760855764151e-001  1.960223632813e+004
-1.814951896667e-001  1.949876562500e+004
-1.869974881411e-001  1.944452734375e+004
-1.925919800997e-001  1.941924218750e+004
-1.982792615891e-001  1.937745312500e+004
-2.040632814169e-001  1.927392773438e+004
-2.099419385195e-001  1.909394531250e+004
-2.159154266119e-001  1.886758789063e+004
-2.219820767641e-001  1.863633984375e+004
-2.281407117844e-001  1.842673632813e+004
-2.343925386667e-001  1.823306445313e+004
-2.407390624285e-001  1.801491796875e+004
-2.471778243780e-001  1.773053320313e+004
-2.537055909634e-001  1.736687500000e+004
-2.603226006031e-001  1.694772851563e+004
-2.670302987099e-001  1.652551171875e+004
-2.738264799118e-001  1.615863867188e+004
-2.807077467442e-001  1.586885156250e+004
-2.876745760441e-001  1.563984277344e+004
-2.947247326374e-001  1.543038378906e+004
-3.018611669540e-001  1.519453906250e+004
-3.090851306915e-001  1.490750683594e+004
-3.163911998272e-001  1.458331250000e+004
-3.237787485123e-001  1.425191113281e+004
-3.312471807003e-001  1.393938281250e+004
-3.387975394726e-001  1.365206933594e+004
-3.464310467243e-001  1.336579101563e+004
-3.541448414326e-001  1.304425878906e+004
-3.619352579117e-001  1.266343261719e+004
-3.698026835918e-001  1.222336621094e+004
-3.777461946011e-001  1.174962988281e+004
-3.857704997063e-001  1.127980664063e+004
-3.938645422459e-001  1.083704589844e+004
-4.020316600800e-001  1.041623339844e+004
-4.102693200111e-001  9.991361328125e+003
-4.185765385628e-001  9.529608398438e+003
-4.269550442696e-001  9.014166992188e+003
-4.353995621204e-001  8.463908203125e+003
-4.439056515694e-001  7.916390625000e+003
-4.524755477905e-001  7.410539550781e+003
-4.611079990864e-001  6.967728515625e+003
-4.698001444340e-001  6.578537109375e+003
-4.785511493683e-001  6.203059082031e+003
-4.873582124710e-001  5.800375976563e+003
-4.962193071842e-001  5.343192871094e+003
-5.051349997520e-001  4.826063964844e+003
-5.141025185585e-001  4.265305175781e+003
-5.231206417084e-001  3.691062255859e+003
-5.321847200394e-001  3.129362060547e+003
-5.412962436676e-001  2.598932861328e+003
-5.504517555237e-001  2.109533203125e+003
-5.596542358398e-001  1.666179443359e+003
-5.688987970352e-001  1.268601928711e+003
-5.781829953194e-001  9.215773315430e+002
-5.875082612038e-001  6.325842895508e+002
-5.968728065491e-001  4.087644653320e+002
-6.062759757042e-001  2.528774414063e+002
-6.157166957855e-001  1.539206542969e+002
-6.251961588860e-001  1.007371902466e+002
-6.347076892853e-001  8.121276855469e+001
-6.442588567734e-001  8.405003356934e+001
-6.538463830948e-001  9.937460327148e+001
-6.634685993195e-001  1.187895355225e+002
-6.731262207031e-001  1.373181610107e+002
-6.828176975250e-001  1.518697967529e+002
-6.925467252731e-001  1.608998107910e+002
-7.023133635521e-001  1.637220306396e+002
-7.121148109436e-001  1.608179626465e+002
-7.219494581223e-001  1.526265411377e+002
-7.318196892738e-001  1.397755126953e+002
-7.417213916779e-001  1.230043029785e+002
-7.516612410545e-001  1.031483840942e+002
-7.616286277771e-001  8.143473815918e+001
-7.716293931007e-001  5.868655395508e+001
-7.816586494446e-001  3.547179031372e+001
-7.917196154594e-001  1.195336151123e+001
-8.018140196800e-001 -1.207669258118e+001
-8.119359612465e-001 -3.690570068359e+001
-8.220869302750e-001 -6.276794433594e+001
-8.322646021843e-001 -8.974699401855e+001
-8.424697518349e-001 -1.175431594849e+002
-8.527038693428e-001 -1.451660156250e+002
-8.629659414291e-001 -1.707351226807e+002
-8.732540011406e-001 -1.913984680176e+002
-8.835670948029e-001 -2.033292999268e+002
-8.939071893692e-001 -2.019962615967e+002
-9.042726755142e-001 -1.815233459473e+002
-9.146611094475e-001 -1.393679656982e+002
-9.250741600990e-001 -7.442665100098e+001
-9.355089068413e-001  1.096569156647e+001
-9.459680318832e-001  1.097165374756e+002
-9.564500451088e-001  2.071310424805e+002
-9.669528603554e-001  2.798198547363e+002
-9.774729609489e-001  2.971888427734e+002
-9.880113005638e-001  2.207881011963e+002
-9.985624551773e-001  6.266376018524e+000
-1.009123802185e+000 -4.071192626953e+002
-1.019694089890e+000 -1.050740234375e+003
-1.030269980431e+000 -1.947061157227e+003
-1.040852189064e+000 -3.089465087891e+003
-1.051443219185e+000 -4.429385742188e+003
-1.062036633492e+000 -5.848369140625e+003
-1.072639226913e+000 -7.155497558594e+003
-1.083247542381e+000 -8.161042480469e+003
-1.093855142593e+000 -8.736965820313e+003
-1.104466080666e+000 -8.876793945313e+003
-1.115077257156e+000 -8.708719726563e+003
-1.125686049461e+000 -8.488827148438e+003
-1.136285662651e+000 -8.442495117188e+003
-1.146877408028e+000 -8.733146484375e+003
-1.157460808754e+000 -9.426756835938e+003
-1.168026089668e+000 -1.048775195313e+004
-1.178569197655e+000 -1.173497070313e+004
-1.189086914063e+000 -1.297140039063e+004
-1.199568510056e+000 -1.403226953125e+004
-1.210011959076e+000 -1.485117285156e+004
-1.220412135124e+000 -1.549387011719e+004
-1.230772137642e+000 -1.614628906250e+004
-1.241089940071e+000 -1.696968359375e+004
-1.251371145248e+000 -1.804127734375e+004
-1.261605262756e+000 -1.932727343750e+004
-1.271796584129e+000 -2.070001367188e+004
-1.281936645508e+000 -2.200129492188e+004
-1.292022705078e+000 -2.314038281250e+004
-1.302048683167e+000 -2.410773828125e+004
-1.312015414238e+000 -2.496190625000e+004
-1.321909070015e+000 -2.578089062500e+004
-1.331737160683e+000 -2.659972656250e+004
-1.341488599777e+000 -2.738783593750e+004
-1.351165771484e+000 -2.809011132813e+004
-1.360760807991e+000 -2.867348437500e+004
-1.370265841484e+000 -2.916104882813e+004
-1.379688143730e+000 -2.964822265625e+004
-1.389025449753e+000 -3.023297265625e+004
-1.398274421692e+000 -3.097141406250e+004
-1.407438755035e+000 -3.185926757813e+004
-1.416511297226e+000 -3.284955859375e+004
-1.425491809845e+000 -3.388151562500e+004
-1.434378147125e+000 -3.492592578125e+004
-1.443170189857e+000 -3.598213281250e+004
-1.451858639717e+000 -3.705485156250e+004
-1.460440635681e+000 -3.812965625000e+004
-1.468912124634e+000 -3.914925000000e+004
-1.477273702621e+000 -4.004137890625e+004
-1.485522866249e+000 -4.074270312500e+004
-1.493654489517e+000 -4.123504296875e+004
-1.501663446426e+000 -4.156592578125e+004
-1.509553313255e+000 -4.185772656250e+004
-1.517324686050e+000 -4.221756640625e+004
-1.524977207184e+000 -4.269443359375e+004
-1.532511115074e+000 -4.326869531250e+004
-1.539918899536e+000 -4.388005468750e+004
-1.547206282616e+000 -4.447830468750e+004
-1.554372191429e+000 -4.505942187500e+004
-1.561415553093e+000 -4.564793359375e+004
-1.568336248398e+000 -4.626591796875e+004
-1.575127124786e+000 -4.690400781250e+004
-1.581788063049e+000 -4.751577343750e+004
-1.588320136070e+000 -4.805380468750e+004
-1.594721198082e+000 -4.848996093750e+004
-1.600992083549e+000 -4.882174609375e+004
-1.607125401497e+000 -4.906281250000e+004
-1.613123893738e+000 -4.923843750000e+004
-1.618991971016e+000 -4.936537109375e+004
-1.624728083611e+000 -4.945646875000e+004
-1.630335092545e+000 -4.952982421875e+004
-1.635805130005e+000 -4.961380468750e+004
-1.641146063805e+000 -4.973642187500e+004
-1.646358847618e+000 -4.990476562500e+004
-1.651443004608e+000 -5.010217578125e+004
-1.656398892403e+000 -5.029644140625e+004
-1.661221623421e+000 -5.045556250000e+004
-1.665914893150e+000 -5.056557812500e+004
-1.670480608940e+000 -5.062916796875e+004
-1.674920678139e+000 -5.065167187500e+004
-1.679235458374e+000 -5.063215234375e+004
-1.683420896530e+000 -5.055903125000e+004
-1.687480807304e+000 -5.042092968750e+004
-1.691419363022e+000 -5.021316015625e+004
-1.695238471031e+000 -4.993898828125e+004
-1.698938965797e+000 -4.961264843750e+004
-1.702520251274e+000 -4.925701171875e+004
-1.705984592438e+000 -4.890177343750e+004
-1.709336519241e+000 -4.856913671875e+004
-1.712577342987e+000 -4.826939843750e+004
-1.715708971024e+000 -4.799977734375e+004
-1.718728065491e+000 -4.774667187500e+004
-1.721638441086e+000 -4.748785937500e+004
-1.724444627762e+000 -4.720103906250e+004
-1.727148294449e+000 -4.686793359375e+004
-1.729751348495e+000 -4.647748437500e+004
-1.732253313065e+000 -4.602380468750e+004
-1.734658360481e+000 -4.550884765625e+004
-1.736971020699e+000 -4.493767578125e+004
-1.739195346832e+000 -4.431676953125e+004
-1.741332650185e+000 -4.365692187500e+004
-1.743383049965e+000 -4.297397265625e+004
-1.745348930359e+000 -4.229008984375e+004
-1.747236371040e+000 -4.162506640625e+004
-1.749046802521e+000 -4.099184765625e+004
-1.750782489777e+000 -4.039369921875e+004
-1.752442955971e+000 -3.982655859375e+004
-1.754032254219e+000 -3.928062109375e+004
-1.755556106567e+000 -3.874045703125e+004
-1.757018446922e+000 -3.818358203125e+004
-1.758420825005e+000 -3.758474218750e+004
-1.759763240814e+000 -3.692304687500e+004
-1.761048436165e+000 -3.619623046875e+004
-1.762283921242e+000 -3.541884375000e+004
-1.763475298882e+000 -3.461772265625e+004
-1.764627575874e+000 -3.382144140625e+004
-1.765742778778e+000 -3.305075000000e+004
-1.766819953918e+000 -3.231498242188e+004
-1.767856001854e+000 -3.160879101563e+004
-1.768846273422e+000 -3.092600585938e+004
-1.769786477089e+000 -3.026264453125e+004
-1.770674347878e+000 -2.961959375000e+004
-1.771514892578e+000 -2.899908007813e+004
-1.772316932678e+000 -2.839673046875e+004
-1.773089766502e+000 -2.780047851563e+004
-1.773842930794e+000 -2.719324218750e+004
-1.774583935738e+000 -2.655765625000e+004
-1.775319576263e+000 -2.588592578125e+004
-1.776055335999e+000 -2.518504882813e+004
-1.776793241501e+000 -2.446939843750e+004
-1.777534961700e+000 -2.375585156250e+004
-1.778280973434e+000 -2.305995898438e+004
-1.779030561447e+000 -2.239182812500e+004
-1.779782056808e+000 -2.175309765625e+004
-1.780533909798e+000 -2.114241210938e+004
-1.781284093857e+000 -2.055707226563e+004
-1.782030940056e+000 -1.999285937500e+004
-1.782772541046e+000 -1.944364648438e+004
-1.783508777618e+000 -1.890385546875e+004
-1.784239411354e+000 -1.837166406250e+004
-1.784965276718e+000 -1.784723242188e+004
-1.785687446594e+000 -1.733319140625e+004
-1.786409974098e+000 -1.683362695313e+004
-1.787137866020e+000 -1.635095800781e+004
-1.787877798080e+000 -1.588644042969e+004
-1.788637042046e+000 -1.543936621094e+004
-1.789423942566e+000 -1.500658789063e+004
-1.790247440338e+000 -1.458470214844e+004
-1.791112899780e+000 -1.417261328125e+004
-1.792024254799e+000 -1.377376074219e+004
-1.792980313301e+000 -1.339750292969e+004
-1.793976902962e+000 -1.305559765625e+004
-1.795006513596e+000 -1.275862597656e+004
-1.796058297157e+000 -1.250677734375e+004
-1.797125101089e+000 -1.229119140625e+004
-1.798201322556e+000 -1.209516699219e+004
-1.799285173416e+000 -1.189861621094e+004
-1.800377130508e+000 -1.168629101563e+004
-1.801481842995e+000 -1.145411425781e+004
-1.802605986595e+000 -1.120790527344e+004
-1.803757190704e+000 -1.096185839844e+004
-1.804945230484e+000 -1.073445703125e+004
-1.806177496910e+000 -1.054339257813e+004
-1.807456016541e+000 -1.039480566406e+004
-1.808779120445e+000 -1.028612792969e+004
-1.810142159462e+000 -1.020796875000e+004
-1.811536908150e+000 -1.014819433594e+004
-1.812954545021e+000 -1.009588769531e+004
-1.814386129379e+000 -1.004491992188e+004
-1.815824866295e+000 -9.993031250000e+003
-1.817267537117e+000 -9.940080078125e+003
-1.818713307381e+000 -9.888334960938e+003
-1.820164918900e+000 -9.842407226563e+003
-1.821627497673e+000 -9.806395507813e+003
-1.823107600212e+000 -9.783294921875e+003
-1.824612617493e+000 -9.774290039063e+003
-1.826149702072e+000 -9.779400390625e+003
-1.827723860741e+000 -9.799503906250e+003
-1.829334735870e+000 -9.834726562500e+003
-1.830982208252e+000 -9.885911132813e+003
-1.832664966583e+000 -9.953405273438e+003
-1.834380507469e+000 -1.003609277344e+004
-1.836124062538e+000 -1.013236718750e+004
-1.837887883186e+000 -1.023835937500e+004
-1.839666843414e+000 -1.035165332031e+004
-1.841454386711e+000 -1.046943945313e+004
-1.843244910240e+000 -1.058834277344e+004
-1.845036387444e+000 -1.070505859375e+004
-1.846825242043e+000 -1.081607519531e+004
-1.848611950874e+000 -1.091958007813e+004
-1.850394964218e+000 -1.101544433594e+004
-1.852174758911e+000 -1.110748730469e+004
-1.853953599930e+000 -1.120265722656e+004
-1.855730295181e+000 -1.130790332031e+004
-1.857507705688e+000 -1.142937011719e+004
-1.859285712242e+000 -1.156897851563e+004
-1.861065506935e+000 -1.172355371094e+004
-1.862847924232e+000 -1.188496386719e+004
-1.864632844925e+000 -1.204494531250e+004
-1.866420388222e+000 -1.219954296875e+004
-1.868210554123e+000 -1.234819433594e+004
-1.870002388954e+000 -1.249377636719e+004
-1.871793389320e+000 -1.264046289063e+004
-1.873579502106e+000 -1.278959375000e+004
-1.875357389450e+000 -1.293883691406e+004
-1.877120256424e+000 -1.308451953125e+004
-1.878862738609e+000 -1.322580371094e+004
-1.880575418472e+000 -1.336785546875e+004
-1.882256388664e+000 -1.351926171875e+004
-1.883903026581e+000 -1.368668847656e+004
-1.885513544083e+000 -1.387134667969e+004
-1.887088656425e+000 -1.406796777344e+004
-1.888628840446e+000 -1.426710742188e+004
-1.890138864517e+000 -1.445888769531e+004
-1.891623854637e+000 -1.463761035156e+004
-1.893088579178e+000 -1.480380957031e+004
-1.894536495209e+000 -1.496220800781e+004
-1.895968556404e+000 -1.511968652344e+004
-1.897386550903e+000 -1.528181347656e+004
-1.898787617683e+000 -1.544984765625e+004
-1.900167346001e+000 -1.562276855469e+004
-1.901519536972e+000 -1.579907421875e+004
-1.902834653854e+000 -1.597831250000e+004
-1.904109597206e+000 -1.616119921875e+004
-1.905341744423e+000 -1.634742578125e+004
-1.906532287598e+000 -1.653644140625e+004
-1.907684326172e+000 -1.672649414063e+004
-1.908798694611e+000 -1.691463281250e+004
-1.909880280495e+000 -1.709993554688e+004
-1.910928249359e+000 -1.728077343750e+004
-1.911939978600e+000 -1.745585156250e+004
-1.912911891937e+000 -1.762518945313e+004
-1.913836836815e+000 -1.779033203125e+004
-1.914714694023e+000 -1.795414453125e+004
-1.915545225143e+000 -1.811866015625e+004
-1.916330575943e+000 -1.828615625000e+004
-1.917074441910e+000 -1.845830859375e+004
-1.917776584625e+000 -1.863572070313e+004
-1.918438792229e+000 -1.881693164063e+004
-1.919058680534e+000 -1.899845898438e+004
-1.919632196426e+000 -1.917652148438e+004
-1.920156955719e+000 -1.934927148438e+004
-1.920630097389e+000 -1.951612109375e+004
-1.921057224274e+000 -1.967923242188e+004
-1.921440243721e+000 -1.984076757813e+004
-1.921779632568e+000 -2.000194726563e+004
-1.922073960304e+000 -2.016321679688e+004
-1.922316431999e+000 -2.032254492188e+004
-1.922506093979e+000 -2.047735351563e+004
-1.922641992569e+000 -2.062629101563e+004
-1.922725439072e+000 -2.076910156250e+004
-1.922758579254e+000 -2.090717773438e+004
-1.922739863396e+000 -2.104283203125e+004
-1.922670960426e+000 -2.117797851563e+004
-1.922549962997e+000 -2.131324609375e+004
-1.922375082970e+000 -2.144820703125e+004
-1.922146081924e+000 -2.158175195313e+004
-1.921863198280e+000 -2.171204687500e+004
-1.921532273293e+000 -2.183875195313e+004
-1.921155571938e+000 -2.196096679688e+004
-1.920732975006e+000 -2.207759570313e+004
-1.920262575150e+000 -2.218841406250e+004
-1.919739723206e+000 -2.229373828125e+004
-1.919166564941e+000 -2.239545312500e+004
-1.918545842171e+000 -2.249494921875e+004
-1.917880535126e+000 -2.259299414063e+004
-1.917172789574e+000 -2.268946484375e+004
-1.916419744492e+000 -2.278330273438e+004
-1.915620088577e+000 -2.287297070313e+004
-1.914770126343e+000 -2.295797265625e+004
-1.913867831230e+000 -2.303905664063e+004
-1.912914514542e+000 -2.311805078125e+004
-1.911911487579e+000 -2.319688476563e+004
-1.910865902901e+000 -2.327613476563e+004
-1.909780740738e+000 -2.335489843750e+004
-1.908656835556e+000 -2.343150390625e+004
-1.907492756844e+000 -2.350431054688e+004
-1.906283974648e+000 -2.357212304688e+004
-1.905029296875e+000 -2.363534179688e+004
-1.903730034828e+000 -2.369489453125e+004
-1.902389645576e+000 -2.375160156250e+004
-1.901012420654e+000 -2.380576757813e+004
-1.899600744247e+000 -2.385757617188e+004
-1.898156046867e+000 -2.390750585938e+004
-1.896677970886e+000 -2.395566210938e+004
-1.895163536072e+000 -2.400195898438e+004
-1.893610358238e+000 -2.404680078125e+004
-1.892014980316e+000 -2.409119140625e+004
-1.890377640724e+000 -2.413661718750e+004
-1.888701796532e+000 -2.418450195313e+004
-1.886991620064e+000 -2.423547070313e+004
-1.885253071785e+000 -2.428916796875e+004
-1.883489847183e+000 -2.434418359375e+004
-1.881705284119e+000 -2.439805273438e+004
-1.879900217056e+000 -2.444933007813e+004
-1.878072023392e+000 -2.449823046875e+004
-1.876218676567e+000 -2.454594140625e+004
-1.874334216118e+000 -2.459405468750e+004
-1.872414946556e+000 -2.464444921875e+004
-1.870460629463e+000 -2.469895703125e+004
-1.868470907211e+000 -2.475952734375e+004
-1.866447091103e+000 -2.482769335938e+004
-1.864389896393e+000 -2.490415820313e+004
-1.862305164337e+000 -2.498723242188e+004
-1.860199093819e+000 -2.507443359375e+004
-1.858076691628e+000 -2.516324023438e+004
-1.855943322182e+000 -2.525183984375e+004
-1.853802084923e+000 -2.534003515625e+004
-1.851655006409e+000 -2.542940820313e+004
-1.849502801895e+000 -2.552155664063e+004
-1.847341895103e+000 -2.561706054688e+004
-1.845170259476e+000 -2.571532421875e+004
-1.842983007431e+000 -2.581498046875e+004
-1.840776681900e+000 -2.591474414063e+004
-1.838548779488e+000 -2.601507812500e+004
-1.836298465729e+000 -2.611847460938e+004
-1.834026575089e+000 -2.622883007813e+004
-1.831733584404e+000 -2.635079296875e+004
-1.829420208931e+000 -2.648665039063e+004
-1.827086806297e+000 -2.663528515625e+004
-1.824732303619e+000 -2.679301757813e+004
-1.822354912758e+000 -2.695470703125e+004
-1.819952011108e+000 -2.711586523438e+004
-1.817523241043e+000 -2.727471875000e+004
-1.815072059631e+000 -2.743273828125e+004
-1.812602281570e+000 -2.759298632813e+004
-1.810119986534e+000 -2.775896875000e+004
-1.807628154755e+000 -2.793415429688e+004
-1.805130004883e+000 -2.812040820313e+004
-1.802627086639e+000 -2.831737695313e+004
-1.800119042397e+000 -2.852300195313e+004
-1.797603964806e+000 -2.873412304688e+004
-1.795080423355e+000 -2.894732226563e+004
-1.792539954185e+000 -2.915973046875e+004
-1.789978027344e+000 -2.937096093750e+004
-1.787394762039e+000 -2.958283203125e+004
-1.784787893295e+000 -2.979872265625e+004
-1.782153844833e+000 -3.002299023438e+004
-1.779497027397e+000 -3.025732031250e+004
-1.776817560196e+000 -3.049899023438e+004
-1.774114847183e+000 -3.074330664063e+004
-1.771386861801e+000 -3.098554296875e+004
-1.768631100655e+000 -3.122250976563e+004
-1.765847086906e+000 -3.145491406250e+004
-1.763036847115e+000 -3.168827148438e+004
-1.760202169418e+000 -3.193017187500e+004
-1.757343530655e+000 -3.218672656250e+004
-1.754459142685e+000 -3.245928125000e+004
-1.751547455788e+000 -3.274096875000e+004
-1.748606443405e+000 -3.302003125000e+004
-1.745634555817e+000 -3.328526953125e+004
-1.742630720139e+000 -3.353008593750e+004
-1.739591956139e+000 -3.375545312500e+004
-1.736515998840e+000 -3.397138281250e+004
-1.733401775360e+000 -3.419022656250e+004
-1.730246782303e+000 -3.442037890625e+004
-1.727049708366e+000 -3.466391406250e+004
-1.723807811737e+000 -3.491558984375e+004
-1.720519661903e+000 -3.516299218750e+004
-1.717186212540e+000 -3.539439843750e+004
-1.713806986809e+000 -3.560283593750e+004
-1.710379362106e+000 -3.578721093750e+004
-1.706906795502e+000 -3.595194531250e+004
-1.703379273415e+000 -3.610623046875e+004
-1.699801921844e+000 -3.625767578125e+004
-1.696173548698e+000 -3.640843359375e+004
-1.692487835884e+000 -3.655622656250e+004
-1.688748359680e+000 -3.669657812500e+004
-1.684952735901e+000 -3.682568750000e+004
-1.681098580360e+000 -3.694254687500e+004
-1.677182197571e+000 -3.704725000000e+004
-1.673209071159e+000 -3.714087109375e+004
-1.669170975685e+000 -3.722491015625e+004
-1.665067315102e+000 -3.729971875000e+004
-1.660897612572e+000 -3.736271484375e+004
-1.656664133072e+000 -3.740903125000e+004
-1.652358651161e+000 -3.743390234375e+004
-1.647983193398e+000 -3.743353125000e+004
-1.643535256386e+000 -3.740742187500e+004
-1.639016389847e+000 -3.735969921875e+004
-1.634425640106e+000 -3.729481640625e+004
-1.629762053490e+000 -3.721673046875e+004
-1.625023365021e+000 -3.712716406250e+004
-1.620208144188e+000 -3.702454296875e+004
-1.615319013596e+000 -3.690563281250e+004
-1.610354423523e+000 -3.676720312500e+004
-1.605313420296e+000 -3.660798046875e+004
-1.600193977356e+000 -3.642826171875e+004
-1.594993948936e+000 -3.622946484375e+004
-1.589716196060e+000 -3.601418750000e+004
-1.584359169006e+000 -3.578425781250e+004
-1.578922152519e+000 -3.554077734375e+004
-1.573404550552e+000 -3.528252343750e+004
-1.567804217339e+000 -3.500614062500e+004
-1.562124490738e+000 -3.470977343750e+004
-1.556365013123e+000 -3.439192968750e+004
-1.550525665283e+000 -3.405211328125e+004
-1.544605851173e+000 -3.369122265625e+004
-1.538600802422e+000 -3.331241796875e+004
-1.532522797585e+000 -3.292063671875e+004
-1.526362419128e+000 -3.251927539063e+004
-1.520120620728e+000 -3.211015429688e+004
-1.513801336288e+000 -3.169206835938e+004
-1.507401943207e+000 -3.126050976563e+004
-1.500917315483e+000 -3.081216796875e+004
-1.494356155396e+000 -3.034628125000e+004
-1.487717866898e+000 -2.986566406250e+004
-1.481003880501e+000 -2.937569140625e+004
-1.474205017090e+000 -2.888180078125e+004
-1.467330217361e+000 -2.838561718750e+004
-1.460379242897e+000 -2.788441601563e+004
-1.453357338905e+000 -2.737328710938e+004
-1.446260571480e+000 -2.684786523438e+004
-1.439087510109e+000 -2.630733593750e+004
-1.431843161583e+000 -2.575597265625e+004
-1.424529552460e+000 -2.519886523438e+004
-1.417147636414e+000 -2.464061523438e+004
-1.409697532654e+000 -2.408324414063e+004
-1.402177810669e+000 -2.352514648438e+004
-1.394592523575e+000 -2.296207617188e+004
-1.386944532394e+000 -2.238886718750e+004
-1.379235744476e+000 -2.180062890625e+004
-1.371466040611e+000 -2.119300976563e+004
-1.363633513451e+000 -2.056304101563e+004
-1.355741858482e+000 -1.991275390625e+004
-1.347792744637e+000 -1.924570703125e+004
-1.339789032936e+000 -1.856796093750e+004
-1.331731915474e+000 -1.788860351563e+004
-1.323620796204e+000 -1.721871679688e+004
-1.315459966660e+000 -1.656523242188e+004
-1.307250380516e+000 -1.593028515625e+004
-1.298993349075e+000 -1.531158984375e+004
-1.290693759918e+000 -1.470397851563e+004
-1.282350420952e+000 -1.410177636719e+004
-1.273966908455e+000 -1.350120410156e+004
-1.265547871590e+000 -1.290200683594e+004
-1.257096409798e+000 -1.230587597656e+004
-1.248609781265e+000 -1.171426757813e+004
-1.240087389946e+000 -1.112643359375e+004
-1.231531620026e+000 -1.053855273438e+004
-1.222950458527e+000 -9.945666015625e+003
-1.214336395264e+000 -9.343160156250e+003
-1.205701351166e+000 -8.728057617188e+003
-1.197049498558e+000 -8.100107421875e+003
-1.188369870186e+000 -7.464291015625e+003
-1.179671764374e+000 -6.827723632813e+003
-1.170957446098e+000 -6.199246582031e+003
-1.162225723267e+000 -5.588298339844e+003
-1.153480291367e+000 -5.005127929688e+003
-1.144726395607e+000 -4.455346679688e+003
-1.135971665382e+000 -3.943920654297e+003
-1.127204537392e+000 -3.474786132813e+003
-1.118441343307e+000 -3.051604736328e+003
-1.109677433968e+000 -2.680093994141e+003
-1.100913286209e+000 -2.358967773438e+003
-1.092149257660e+000 -2.087993408203e+003
-1.083386063576e+000 -1.865353637695e+003
-1.074626088142e+000 -1.688027832031e+003
-1.065871357918e+000 -1.553392456055e+003
-1.057125568390e+000 -1.452543823242e+003
-1.048392534256e+000 -1.378465698242e+003
-1.039675235748e+000 -1.324183837891e+003
-1.030976176262e+000 -1.283526245117e+003
-1.022296309471e+000 -1.251904052734e+003
-1.013632297516e+000 -1.225367187500e+003
-1.004982948303e+000 -1.201896362305e+003
-9.963470101357e-001 -1.180073608398e+003
-9.877256155014e-001 -1.158726684570e+003
-9.791188240051e-001 -1.136801147461e+003
-9.705265760422e-001 -1.113568847656e+003
-9.619480967522e-001 -1.088532836914e+003
-9.533810019493e-001 -1.061404907227e+003
-9.448243379593e-001 -1.032104248047e+003
-9.362829327583e-001 -1.000589782715e+003
-9.277474284172e-001 -9.671640014648e+002
-9.192257523537e-001 -9.320451660156e+002
-9.107204079628e-001 -8.955347900391e+002
-9.022352099419e-001 -8.579058837891e+002
-8.937743902206e-001 -8.193280029297e+002
-8.853378295898e-001 -7.801204223633e+002
-8.769284486771e-001 -7.405357055664e+002
-8.685408234596e-001 -7.007509765625e+002
-8.601744174957e-001 -6.609605712891e+002
-8.518329262733e-001 -6.214740600586e+002
-8.435168862343e-001 -5.825881958008e+002
-8.352279067039e-001 -5.445249633789e+002
-8.269661664963e-001 -5.073790283203e+002
-8.187320232391e-001 -4.711985168457e+002
-8.105273842812e-001 -4.361235961914e+002
-8.023521304131e-001 -4.021162414551e+002
-7.942026257515e-001 -3.691183471680e+002
-7.860839366913e-001 -3.370054321289e+002
-7.779929637909e-001 -3.056111755371e+002
-7.699341177940e-001 -2.746818847656e+002
-7.619042396545e-001 -2.438477630615e+002
-7.539037466049e-001 -2.127206115723e+002
-7.459336519241e-001 -1.809019317627e+002
-7.379974722862e-001 -1.479938354492e+002
-7.300858497620e-001 -1.136453018188e+002
-7.222120761871e-001 -7.782429504395e+001
-7.143645286560e-001 -4.072651672363e+001
-7.065500617027e-001 -2.874311447144e+000
-6.987642645836e-001  3.477412796021e+001
-6.910102963448e-001  7.042826843262e+001
-6.832873821259e-001  1.017718658447e+002
-6.755956411362e-001  1.259794082642e+002
-6.679349541664e-001  1.397735137939e+002
-6.603025197983e-001  1.396387481689e+002
-6.527031660080e-001  1.213148117065e+002
-6.451359987259e-001  8.353195953369e+001
-6.375955939293e-001  2.724369812012e+001
-6.300878524780e-001 -4.299887847900e+001
-6.226062774658e-001 -1.175496673584e+002
-6.151542067528e-001 -1.782745513916e+002
-6.077302098274e-001 -1.989620056152e+002
-6.003338694572e-001 -1.469912872314e+002
-5.929655432701e-001  1.638649177551e+001
-5.856231451035e-001  3.329386596680e+002
-5.783152580261e-001  8.535040283203e+002
-5.710349678993e-001  1.600129760742e+003
-5.637865662575e-001  2.571176757813e+003
-5.565729141235e-001  3.729000244141e+003
-5.493984222412e-001  4.982518066406e+003
-5.422701239586e-001  6.155191406250e+003
-5.351896882057e-001  6.989829589844e+003
-5.281622409821e-001  7.259314941406e+003
-5.211824774742e-001  6.881939453125e+003
-5.142557024956e-001  5.969094726563e+003
-5.073825120926e-001  4.752040039063e+003
-5.005491375923e-001  3.481570312500e+003
-4.937537908554e-001  2.314196777344e+003
-4.869921207428e-001  1.341732666016e+003
-4.802587330341e-001  6.103688964844e+002
-4.735508561134e-001  1.479358673096e+002
-4.668672978878e-001 -5.490177536011e+001
-4.601976871490e-001 -1.213739395142e+001
-4.535498023033e-001  2.657297973633e+002
-4.469219148159e-001  7.665120239258e+002
-4.403108656406e-001  1.479955932617e+003
-4.337207674980e-001  2.366494384766e+003
-4.271538555622e-001  3.363688232422e+003
-4.206124842167e-001  4.376574707031e+003
-4.141000211239e-001  5.276137207031e+003
-4.076208174229e-001  5.918189453125e+003
-4.011784791946e-001  6.255451660156e+003
-3.947679102421e-001  6.365217773438e+003
-3.883975446224e-001  6.387644531250e+003
-3.820672035217e-001  6.453322265625e+003
-3.757743239403e-001  6.624175292969e+003
-3.695215582848e-001  6.845133789063e+003
-3.633085489273e-001  6.980557617188e+003
-3.571343123913e-001  6.867837890625e+003
-3.509979844093e-001  6.396601562500e+003
-3.449014127254e-001  5.558412109375e+003
-3.388302922249e-001  4.504120117188e+003
-3.327909708023e-001  3.425510009766e+003
-3.267682194710e-001  2.486554443359e+003
-3.207606077194e-001  1.802880981445e+003
-3.147645890713e-001  1.455115600586e+003
-3.087759315968e-001  1.457263427734e+003
-3.027942478657e-001  1.781860351563e+003
-2.968242168427e-001  2.373247314453e+003
-2.908582985401e-001  3.139015136719e+003
-2.849108278751e-001  3.951398437500e+003
-2.789841890335e-001  4.664663574219e+003
-2.730818092823e-001  5.180653808594e+003
-2.672032415867e-001  5.470142578125e+003
-2.613518536091e-001  5.568580078125e+003
-2.555296421051e-001  5.545340332031e+003
-2.497360855341e-001  5.466908691406e+003
-2.439695894718e-001  5.347575683594e+003
-2.382302284241e-001  5.154610351563e+003
-2.325140982866e-001  4.834196289063e+003
-2.268225550652e-001  4.344573242188e+003
-2.211548537016e-001  3.706264160156e+003
-2.155022621155e-001  2.988927490234e+003
-2.098646461964e-001  2.271656738281e+003
-2.042395770550e-001  1.620545288086e+003
-1.986247152090e-001  1.082300781250e+003
-1.930199712515e-001  6.720062255859e+002
-1.874166876078e-001  3.818503112793e+002
-1.818197816610e-001  1.968678436279e+002
-1.762297600508e-001  9.733676910400e+001
-1.706399023533e-001  6.400959014893e+001
-1.650539934635e-001  7.624618530273e+001
-1.594731211662e-001  1.187600479126e+002
-1.538979858160e-001  1.827332916260e+002
-1.483302563429e-001  2.637875061035e+002
-1.427720189095e-001  3.616664733887e+002
-1.372245550156e-001  4.774733276367e+002
-1.316874921322e-001  6.114865722656e+002
-1.261627525091e-001  7.615549316406e+002
-1.206481903791e-001  9.196040039063e+002
-1.151466146111e-001  1.067238037109e+003
-1.096573248506e-001  1.172563110352e+003
-1.041806340218e-001  1.203888793945e+003
-9.871697425842e-002  1.143787719727e+003
-9.326574951410e-002  9.987822875977e+002
-8.782727271318e-002  7.965307006836e+002
-8.240125328302e-002  5.758292236328e+002
-7.698827981949e-002  3.645895385742e+002
-7.158633321524e-002  1.786277923584e+002
-6.619344651699e-002  2.543953895569e+001
-6.081125885248e-002 -9.235972595215e+001
-5.543985217810e-002 -1.772189025879e+002
-5.007883533835e-002 -2.349321899414e+002
-4.472853988409e-002 -2.711301879883e+002
-3.938883170485e-002 -2.918445434570e+002
-3.406060859561e-002 -3.031451721191e+002
-2.874745801091e-002 -3.112720336914e+002
-2.344297617674e-002 -3.210586242676e+002
-1.815073564649e-002 -3.357156982422e+002
-1.287056598812e-002 -3.569517211914e+002
-7.603194564581e-003 -3.851391296387e+002
-2.349058166146e-003 -4.191510314941e+002
 2.893067430705e-003 -4.565646972656e+002
 8.121987804770e-003 -4.946702880859e+002
 1.333747338504e-002 -5.309705810547e+002
 1.854202523828e-002 -5.634715576172e+002
 2.373337373137e-002 -5.911717529297e+002
 2.891199849546e-002 -6.145039062500e+002
 3.407786041498e-002 -6.344515380859e+002
 3.923028707504e-002 -6.523452148438e+002
 4.436808079481e-002 -6.695516967773e+002
 4.949153214693e-002 -6.870806884766e+002
 5.459878966212e-002 -7.052156372070e+002
 5.969220399857e-002 -7.237802124023e+002
 6.477259844542e-002 -7.423052368164e+002
 6.983552128077e-002 -7.602197875977e+002
 7.487933337688e-002 -7.769662475586e+002
 7.991032302380e-002 -7.922788085938e+002
 8.492496609688e-002 -8.063252563477e+002
 8.992350846529e-002 -8.197658081055e+002
 9.490513056517e-002 -8.336235351563e+002
 9.986707568169e-002 -8.491357421875e+002
 1.048163324594e-001 -8.670980224609e+002
 1.097462028265e-001 -8.876839599609e+002
 1.146562770009e-001 -9.103939208984e+002
 1.195516586304e-001 -9.340538330078e+002
 1.244292035699e-001 -9.575711059570e+002
 1.292897611856e-001 -9.792338867188e+002
 1.341332048178e-001 -9.984304199219e+002
 1.389599293470e-001 -1.014912231445e+003
 1.437693536282e-001 -1.028923583984e+003
 1.485589891672e-001 -1.041422973633e+003
 1.533354967833e-001 -1.053736938477e+003
 1.580902487040e-001 -1.067084228516e+003
 1.628306508064e-001 -1.082319946289e+003
 1.675534695387e-001 -1.099705810547e+003
 1.722580492496e-001 -1.118827270508e+003
 1.769459992647e-001 -1.138738403320e+003
 1.816171705723e-001 -1.158529785156e+003
 1.862714886665e-001 -1.177519287109e+003
 1.909095346928e-001 -1.195275390625e+003
 1.955291479826e-001 -1.211654663086e+003
 2.001337707043e-001 -1.226945556641e+003
 2.047239989042e-001 -1.241536254883e+003
 2.092992067337e-001 -1.255848022461e+003
 2.138591408730e-001 -1.270191894531e+003
 2.184046655893e-001 -1.284531494141e+003
 2.229364812374e-001 -1.298379882813e+003
 2.274537831545e-001 -1.310941162109e+003
 2.319597750902e-001 -1.321291625977e+003
 2.364501953125e-001 -1.328605102539e+003
 2.409300506115e-001 -1.332398925781e+003
 2.453977316618e-001 -1.332973144531e+003
 2.498530298471e-001 -1.330903564453e+003
 2.542962133884e-001 -1.327081420898e+003
 2.587267160416e-001 -1.322538574219e+003
 2.631438076496e-001 -1.318350952148e+003
 2.675473093987e-001 -1.315236694336e+003
 2.719407975674e-001 -1.313441284180e+003
 2.763205170631e-001 -1.312760375977e+003
 2.806922495365e-001 -1.312646118164e+003
 2.850553691387e-001 -1.312316894531e+003
 2.894086837769e-001 -1.311128417969e+003
 2.937536239624e-001 -1.308773071289e+003
 2.980892360210e-001 -1.305343994141e+003
 3.024140894413e-001 -1.301255859375e+003
 3.067266941071e-001 -1.297100585938e+003
 3.110271096230e-001 -1.293382934570e+003
 3.153169453144e-001 -1.290396362305e+003
 3.195992112160e-001 -1.288168945313e+003
 3.238745033741e-001 -1.286485839844e+003
 3.281446099281e-001 -1.284931152344e+003
 3.324124515057e-001 -1.283016967773e+003
 3.366791903973e-001 -1.280370117188e+003
 3.409456610680e-001 -1.276843383789e+003
 3.452131152153e-001 -1.272566772461e+003
 3.494812250137e-001 -1.268013427734e+003
 3.537505269051e-001 -1.263891235352e+003
 3.580198287964e-001 -1.260854125977e+003
 3.622929751873e-001 -1.259370971680e+003
 3.665623068810e-001 -1.259621826172e+003
 3.708334863186e-001 -1.261463012695e+003
 3.751039505005e-001 -1.264296020508e+003
 3.793731033802e-001 -1.267443115234e+003
 3.836411535740e-001 -1.270156860352e+003
 3.879054486752e-001 -1.271750122070e+003
 3.921735286713e-001 -1.271675415039e+003
 3.964387178421e-001 -1.269888427734e+003
 4.007035493851e-001 -1.266531982422e+003
 4.049699008465e-001 -1.261869750977e+003
 4.092418253422e-001 -1.256135986328e+003
 4.135203659534e-001 -1.249425659180e+003
 4.178075194359e-001 -1.241802246094e+003
 4.221049249172e-001 -1.233168457031e+003
 4.264121055603e-001 -1.223399780273e+003
 4.307332634926e-001 -1.212416503906e+003
 4.350691437721e-001 -1.200204711914e+003
 4.394142329693e-001 -1.187055053711e+003
 4.437700808048e-001 -1.173349731445e+003
 4.481388330460e-001 -1.159545654297e+003
 4.525200426579e-001 -1.146074340820e+003
 4.569151103497e-001 -1.133350463867e+003
 4.613249897957e-001 -1.121497314453e+003
 4.657488465309e-001 -1.110427124023e+003
 4.701876044273e-001 -1.099914550781e+003
 4.746440947056e-001 -1.089712280273e+003
 4.791180789471e-001 -1.079577148438e+003
 4.836102426052e-001 -1.069269287109e+003
 4.881208240986e-001 -1.058640014648e+003
 4.926498234272e-001 -1.047680786133e+003
 4.971980452538e-001 -1.036490722656e+003
 5.017665028572e-001 -1.025296875000e+003
 5.063537955284e-001 -1.014367309570e+003
 5.109588503838e-001 -1.003907165527e+003
 5.155836939812e-001 -9.940626220703e+002
 5.202232003212e-001 -9.849349365234e+002
 5.248827934265e-001 -9.766588134766e+002
 5.295571088791e-001 -9.692576904297e+002
 5.342488288879e-001 -9.629083251953e+002
 5.389594435692e-001 -9.578099365234e+002
 5.436936616898e-001 -9.542024536133e+002
 5.484585762024e-001 -9.523966064453e+002
 5.532682538033e-001 -9.523413085938e+002
 5.581328868866e-001 -9.538217773438e+002
 5.630655288696e-001 -9.563733520508e+002
 5.680848956108e-001 -9.593800048828e+002
 5.732135176659e-001 -9.621588745117e+002
 5.784564614296e-001 -9.641338500977e+002
 5.838155150414e-001 -9.649091796875e+002
 5.892783403397e-001 -9.643665771484e+002
 5.948115587234e-001 -9.626273803711e+002
 6.003497838974e-001 -9.599052124023e+002
 6.057905554771e-001 -9.565626220703e+002
 6.110071539879e-001 -9.529624633789e+002
 6.158334016800e-001 -9.494713134766e+002
 6.200964450836e-001 -9.463447875977e+002
 6.235564351082e-001 -9.438314208984e+002
 6.261044144630e-001 -9.420490722656e+002
 6.276901960373e-001 -9.410175170898e+002
 6.284044384956e-001 -9.405910644531e+002
 6.285440921783e-001 -9.405123901367e+002
endcurve
