Curveplot
LS-DYNA keyword deck by LS-PrePost
Abscissa
Ordinate
XY data
NBDLHeadzCoo-1 #pts=2000
* Minval=     4.1206298828e+01 at time=       151.6000061035
* Maxval=     1.5358110046e+02 at time=         0.0000000000
    0.0000000000e+00    1.5358110046e+02
    9.9944598973e-02    1.5358110046e+02
    1.9996425509e-01    1.5358110046e+02
    2.9999533296e-01    1.5358110046e+02
    3.9997607470e-01    1.5358110046e+02
    4.9999448657e-01    1.5358110046e+02
    5.9994393587e-01    1.5358110046e+02
    6.9996356964e-01    1.5358110046e+02
    7.9998320341e-01    1.5358110046e+02
    8.9994591475e-01    1.5358110046e+02
    9.9996554852e-01    1.5358110046e+02
    1.0999852419e+00    1.5358110046e+02
    1.1999479532e+00    1.5358110046e+02
    1.2999674082e+00    1.5358110046e+02
    1.3999912739e+00    1.5358110046e+02
    1.4999824762e+00    1.5358110046e+02
    1.5999728441e+00    1.5358110046e+02
    1.6999641657e+00    1.5358110046e+02
    1.7999557257e+00    1.5358110046e+02
    1.8999993801e+00    1.5358110046e+02
    1.9999600649e+00    1.5358110046e+02
    2.0999886990e+00    1.5358110046e+02
    2.1999990940e+00    1.5358110046e+02
    2.2999684811e+00    1.5358110046e+02
    2.3999474049e+00    1.5358110046e+02
    2.4999949932e+00    1.5358110046e+02
    2.5999643803e+00    1.5358110046e+02
    2.6999690533e+00    1.5358110046e+02
    2.7999846935e+00    1.5358110046e+02
    2.8999958038e+00    1.5358110046e+02
    2.9999637604e+00    1.5358110046e+02
    3.0999591351e+00    1.5358110046e+02
    3.1999502182e+00    1.5358110046e+02
    3.2999463081e+00    1.5358110046e+02
    3.3999750614e+00    1.5358110046e+02
    3.4999859333e+00    1.5358110046e+02
    3.5999767780e+00    1.5358110046e+02
    3.6999676228e+00    1.5358110046e+02
    3.7999918461e+00    1.5358110046e+02
    3.8999633789e+00    1.5358110046e+02
    3.9999721050e+00    1.5358110046e+02
    4.0999627113e+00    1.5358110046e+02
    4.1999535561e+00    1.5358110046e+02
    4.2999978065e+00    1.5358110046e+02
    4.3999686241e+00    1.5358110046e+02
    4.4999489784e+00    1.5358110046e+02
    4.5999608040e+00    1.5358110046e+02
    4.6999511719e+00    1.5358110046e+02
    4.7999525070e+00    1.5358110046e+02
    4.8999967575e+00    1.5358110046e+02
    4.9999876022e+00    1.5358110046e+02
    5.0999779701e+00    1.5358110046e+02
    5.1999683380e+00    1.5358110046e+02
    5.2999591827e+00    1.5358110046e+02
    5.3999495506e+00    1.5358110046e+02
    5.4999938011e+00    1.5358110046e+02
    5.5999841690e+00    1.5358110046e+02
    5.6999745369e+00    1.5358110046e+02
    5.7999649048e+00    1.5358110046e+02
    5.8999552727e+00    1.5358110046e+02
    5.9999780655e+00    1.5358110046e+02
    6.0999684334e+00    1.5358110046e+02
    6.1999588013e+00    1.5358110046e+02
    6.2999491692e+00    1.5358110046e+02
    6.3999929428e+00    1.5358110046e+02
    6.4999833107e+00    1.5358110046e+02
    6.5999736786e+00    1.5358110046e+02
    6.6999635696e+00    1.5358110046e+02
    6.7999539375e+00    1.5358110046e+02
    6.8999438286e+00    1.5358110046e+02
    6.9999704361e+00    1.5358110046e+02
    7.0999603271e+00    1.5358110046e+02
    7.1999711990e+00    1.5358110046e+02
    7.2999610901e+00    1.5358110046e+02
    7.3999509811e+00    1.5358110046e+02
    7.4999947548e+00    1.5358110046e+02
    7.5999894142e+00    1.5358110046e+02
    7.6999793053e+00    1.5358110046e+02
    7.7999706268e+00    1.5358110046e+02
    7.8999605179e+00    1.5358110046e+02
    7.9999504089e+00    1.5358110046e+02
    8.0999412537e+00    1.5358110046e+02
    8.1999473572e+00    1.5358110046e+02
    8.2999553680e+00    1.5358110046e+02
    8.3999452591e+00    1.5358110046e+02
    8.4999885559e+00    1.5358110046e+02
    8.5999851227e+00    1.5358110046e+02
    8.6999931335e+00    1.5358110046e+02
    8.7999963760e+00    1.5358110046e+02
    8.8999862671e+00    1.5358110046e+02
    8.9999837875e+00    1.5358110046e+02
    9.0999450684e+00    1.5358110046e+02
    9.1999454498e+00    1.5358110046e+02
    9.2999687195e+00    1.5358110046e+02
    9.3999614716e+00    1.5358110046e+02
    9.4999790192e+00    1.5358110046e+02
    9.5999679565e+00    1.5358110046e+02
    9.6999616623e+00    1.5358110046e+02
    9.7999525070e+00    1.5358110046e+02
    9.8999986649e+00    1.5358110046e+02
    9.9999589920e+00    1.5358110046e+02
    1.0099974632e+01    1.5358110046e+02
    1.0199993134e+01    1.5358110046e+02
    1.0299958229e+01    1.5358110046e+02
    1.0399975777e+01    1.5358110046e+02
    1.0499998093e+01    1.5358110046e+02
    1.0599979401e+01    1.5358110046e+02
    1.0699996948e+01    1.5358110046e+02
    1.0799956322e+01    1.5358110046e+02
    1.0899974823e+01    1.5358110046e+02
    1.0999995232e+01    1.5358110046e+02
    1.1099957466e+01    1.5358110046e+02
    1.1199976921e+01    1.5358110046e+02
    1.1299972534e+01    1.5358110046e+02
    1.1399987221e+01    1.5358110046e+02
    1.1500006676e+01    1.5358110046e+02
    1.1599991798e+01    1.5358110046e+02
    1.1699994087e+01    1.5358110046e+02
    1.1799964905e+01    1.5358110046e+02
    1.1899985313e+01    1.5358110046e+02
    1.1999995232e+01    1.5358110046e+02
    1.2099961281e+01    1.5358110046e+02
    1.2199981689e+01    1.5358110046e+02
    1.2300006866e+01    1.5358110046e+02
    1.2399971962e+01    1.5358110046e+02
    1.2499966621e+01    1.5358110046e+02
    1.2599990845e+01    1.5358110046e+02
    1.2699966431e+01    1.5358110046e+02
    1.2800002098e+01    1.5358110046e+02
    1.2900010109e+01    1.5358110046e+02
    1.2999999046e+01    1.5358110046e+02
    1.3099964142e+01    1.5358110046e+02
    1.3199986458e+01    1.5358110046e+02
    1.3300000191e+01    1.5358110046e+02
    1.3400010109e+01    1.5358110046e+02
    1.3500013351e+01    1.5358110046e+02
    1.3599993706e+01    1.5358110046e+02
    1.3699990273e+01    1.5358110046e+02
    1.3800011635e+01    1.5358110046e+02
    1.3899984360e+01    1.5358110046e+02
    1.3999992371e+01    1.5358110046e+02
    1.4099980354e+01    1.5358110046e+02
    1.4199975967e+01    1.5358110046e+02
    1.4299979210e+01    1.5358110046e+02
    1.4399997711e+01    1.5358110046e+02
    1.4500013351e+01    1.5358110046e+02
    1.4600005150e+01    1.5358110046e+02
    1.4699995041e+01    1.5358110046e+02
    1.4800007820e+01    1.5358110046e+02
    1.4899974823e+01    1.5358110046e+02
    1.4999975204e+01    1.5358110046e+02
    1.5099987984e+01    1.5358110046e+02
    1.5200018883e+01    1.5358110046e+02
    1.5300013542e+01    1.5358110046e+02
    1.5400007248e+01    1.5358110046e+02
    1.5499974251e+01    1.5358110046e+02
    1.5599998474e+01    1.5358110046e+02
    1.5699972153e+01    1.5358110046e+02
    1.5799974442e+01    1.5358110046e+02
    1.5899971008e+01    1.5358110046e+02
    1.5999975204e+01    1.5358110046e+02
    1.6099973679e+01    1.5358110046e+02
    1.6200006485e+01    1.5358110046e+02
    1.6300010681e+01    1.5358110046e+02
    1.6400014877e+01    1.5358110046e+02
    1.6500000000e+01    1.5358110046e+02
    1.6600023270e+01    1.5358110046e+02
    1.6699985504e+01    1.5358110046e+02
    1.6799982071e+01    1.5358110046e+02
    1.6900016785e+01    1.5358110046e+02
    1.7000009537e+01    1.5358110046e+02
    1.7100009918e+01    1.5358110046e+02
    1.7199981689e+01    1.5358110046e+02
    1.7300006866e+01    1.5358110046e+02
    1.7399982452e+01    1.5358110046e+02
    1.7500015259e+01    1.5358110046e+02
    1.7600019455e+01    1.5358110046e+02
    1.7700025558e+01    1.5358110046e+02
    1.7800016403e+01    1.5358110046e+02
    1.7900003433e+01    1.5358110046e+02
    1.7999990463e+01    1.5358110046e+02
    1.8099992752e+01    1.5358110046e+02
    1.8199981689e+01    1.5358110046e+02
    1.8300031662e+01    1.5358110046e+02
    1.8399997711e+01    1.5358110046e+02
    1.8500011444e+01    1.5358110046e+02
    1.8599992752e+01    1.5358110046e+02
    1.8700002670e+01    1.5358110046e+02
    1.8800020218e+01    1.5358110046e+02
    1.8899986267e+01    1.5358110046e+02
    1.9000026703e+01    1.5358110046e+02
    1.9100011826e+01    1.5358110046e+02
    1.9200017929e+01    1.5358110046e+02
    1.9300018311e+01    1.5358110046e+02
    1.9400028229e+01    1.5358110046e+02
    1.9500015259e+01    1.5358110046e+02
    1.9600013733e+01    1.5358110046e+02
    1.9699987411e+01    1.5358110046e+02
    1.9800020218e+01    1.5358110046e+02
    1.9900037766e+01    1.5358110046e+02
    2.0000005722e+01    1.5358110046e+02
    2.0100034714e+01    1.5358110046e+02
    2.0200014114e+01    1.5358110046e+02
    2.0299999237e+01    1.5358110046e+02
    2.0400007248e+01    1.5358110046e+02
    2.0500019073e+01    1.5358110046e+02
    2.0599998474e+01    1.5358110046e+02
    2.0700006485e+01    1.5358110046e+02
    2.0799995422e+01    1.5358110046e+02
    2.0899990082e+01    1.5358110046e+02
    2.1000034332e+01    1.5358110046e+02
    2.1100015640e+01    1.5358110046e+02
    2.1200038910e+01    1.5358110046e+02
    2.1300004959e+01    1.5358110046e+02
    2.1400022507e+01    1.5358110046e+02
    2.1499994278e+01    1.5358110046e+02
    2.1599990845e+01    1.5358110046e+02
    2.1700023651e+01    1.5358110046e+02
    2.1799999237e+01    1.5358110046e+02
    2.1900041580e+01    1.5358110046e+02
    2.1999994278e+01    1.5358110046e+02
    2.2100027084e+01    1.5358110046e+02
    2.2200004578e+01    1.5358110046e+02
    2.2300018311e+01    1.5358110046e+02
    2.2400022507e+01    1.5358110046e+02
    2.2499998093e+01    1.5358110046e+02
    2.2600006104e+01    1.5358110046e+02
    2.2700002670e+01    1.5358110046e+02
    2.2800024033e+01    1.5358110046e+02
    2.2900039673e+01    1.5358110046e+02
    2.3000043869e+01    1.5358110046e+02
    2.3100019455e+01    1.5358110046e+02
    2.3199998856e+01    1.5358110046e+02
    2.3299999237e+01    1.5358110046e+02
    2.3400014877e+01    1.5358110046e+02
    2.3500032425e+01    1.5358110046e+02
    2.3600002289e+01    1.5358110046e+02
    2.3700012207e+01    1.5358110046e+02
    2.3800052643e+01    1.5358110046e+02
    2.3900043488e+01    1.5358110046e+02
    2.4000041962e+01    1.5358110046e+02
    2.4100042343e+01    1.5358110046e+02
    2.4200017929e+01    1.5358110046e+02
    2.4300045013e+01    1.5358110046e+02
    2.4400018692e+01    1.5358110046e+02
    2.4500036240e+01    1.5358110046e+02
    2.4600017548e+01    1.5358110046e+02
    2.4700019836e+01    1.5358110046e+02
    2.4800006866e+01    1.5358110046e+02
    2.4900009155e+01    1.5358110046e+02
    2.5000051498e+01    1.5358110046e+02
    2.5100006104e+01    1.5358110046e+02
    2.5200023651e+01    1.5358110046e+02
    2.5300012589e+01    1.5358110046e+02
    2.5400016785e+01    1.5358110046e+02
    2.5500057220e+01    1.5358110046e+02
    2.5600027084e+01    1.5358110046e+02
    2.5700035095e+01    1.5358110046e+02
    2.5800041199e+01    1.5358110046e+02
    2.5900043488e+01    1.5358110046e+02
    2.6000030518e+01    1.5358110046e+02
    2.6100057602e+01    1.5358110046e+02
    2.6200042725e+01    1.5358110046e+02
    2.6300006866e+01    1.5358110046e+02
    2.6400060654e+01    1.5358110046e+02
    2.6500038147e+01    1.5358110046e+02
    2.6600036621e+01    1.5358110046e+02
    2.6700027466e+01    1.5358110046e+02
    2.6800064087e+01    1.5358110046e+02
    2.6900037766e+01    1.5358110046e+02
    2.7000019073e+01    1.5358110046e+02
    2.7100023270e+01    1.5358110046e+02
    2.7200037003e+01    1.5358110046e+02
    2.7300058365e+01    1.5358110046e+02
    2.7400056839e+01    1.5358110046e+02
    2.7500038147e+01    1.5358110046e+02
    2.7600061417e+01    1.5358110046e+02
    2.7700059891e+01    1.5358110046e+02
    2.7800041199e+01    1.5358110046e+02
    2.7900033951e+01    1.5358110046e+02
    2.8000045776e+01    1.5358110046e+02
    2.8100055695e+01    1.5358110046e+02
    2.8200017929e+01    1.5358110046e+02
    2.8300058365e+01    1.5358110046e+02
    2.8400060654e+01    1.5358110046e+02
    2.8500051498e+01    1.5358110046e+02
    2.8600057602e+01    1.5358110046e+02
    2.8700029373e+01    1.5358110046e+02
    2.8800016403e+01    1.5358110046e+02
    2.8900026321e+01    1.5358110046e+02
    2.9000022888e+01    1.5358110046e+02
    2.9100055695e+01    1.5358110046e+02
    2.9200065613e+01    1.5358110046e+02
    2.9300071716e+01    1.5358110046e+02
    2.9400056839e+01    1.5358110046e+02
    2.9500066757e+01    1.5358110046e+02
    2.9600055695e+01    1.5358110046e+02
    2.9700067520e+01    1.5358110046e+02
    2.9800060272e+01    1.5358110046e+02
    2.9900045395e+01    1.5358110046e+02
    3.0000043869e+01    1.5358110046e+02
    3.0100057602e+01    1.5358110046e+02
    3.0200044632e+01    1.5358110046e+02
    3.0300058365e+01    1.5358110046e+02
    3.0400037766e+01    1.5358110046e+02
    3.0500059128e+01    1.5358110046e+02
    3.0600036621e+01    1.5358110046e+02
    3.0700078964e+01    1.5358110046e+02
    3.0800029755e+01    1.5358110046e+02
    3.0900072098e+01    1.5358110046e+02
    3.1000074387e+01    1.5358110046e+02
    3.1100078583e+01    1.5358110046e+02
    3.1200065613e+01    1.5358110046e+02
    3.1300065994e+01    1.5358110046e+02
    3.1400072098e+01    1.5358110046e+02
    3.1500032425e+01    1.5358110046e+02
    3.1600046158e+01    1.5358110046e+02
    3.1700067520e+01    1.5358110046e+02
    3.1800041199e+01    1.5358110046e+02
    3.1900066376e+01    1.5358110046e+02
    3.2000034332e+01    1.5358110046e+02
    3.2100028992e+01    1.5358110046e+02
    3.2200054169e+01    1.5358110046e+02
    3.2300022125e+01    1.5358110046e+02
    3.2400024414e+01    1.5358110046e+02
    3.2500053406e+01    1.5358110046e+02
    3.2600044250e+01    1.5358110046e+02
    3.2700027466e+01    1.5358110046e+02
    3.2800041199e+01    1.5358110046e+02
    3.2900028229e+01    1.5358110046e+02
    3.3000053406e+01    1.5358110046e+02
    3.3100013733e+01    1.5358110046e+02
    3.3200042725e+01    1.5358110046e+02
    3.3300029755e+01    1.5358110046e+02
    3.3400005341e+01    1.5358110046e+02
    3.3500019073e+01    1.5358110046e+02
    3.3600021362e+01    1.5358110046e+02
    3.3700050354e+01    1.5358110046e+02
    3.3800022125e+01    1.5358110046e+02
    3.3899997711e+01    1.5358110046e+02
    3.4000007629e+01    1.5358110046e+02
    3.4100006104e+01    1.5358110046e+02
    3.4200016022e+01    1.5358110046e+02
    3.4300003052e+01    1.5358110046e+02
    3.4400009155e+01    1.5358110046e+02
    3.4499988556e+01    1.5358110046e+02
    3.4600025177e+01    1.5358110046e+02
    3.4700008392e+01    1.5358110046e+02
    3.4800018311e+01    1.5358110046e+02
    3.4899982452e+01    1.5358110046e+02
    3.5000019073e+01    1.5358110046e+02
    3.5099998474e+01    1.5358110046e+02
    3.5199977875e+01    1.5358110046e+02
    3.5300014496e+01    1.5358110046e+02
    3.5399997711e+01    1.5358110046e+02
    3.5499977112e+01    1.5358110046e+02
    3.5600017548e+01    1.5358110046e+02
    3.5700000763e+01    1.5358110046e+02
    3.5799983978e+01    1.5358110046e+02
    3.5899967194e+01    1.5358110046e+02
    3.6000011444e+01    1.5358110046e+02
    3.6099994659e+01    1.5358110046e+02
    3.6199981689e+01    1.5358110046e+02
    3.6299968719e+01    1.5358110046e+02
    3.6400012970e+01    1.5358110046e+02
    3.6500000000e+01    1.5358110046e+02
    3.6599990845e+01    1.5358110046e+02
    3.6699977875e+01    1.5358110046e+02
    3.6800006866e+01    1.5358110046e+02
    3.6899997711e+01    1.5358110046e+02
    3.6999988556e+01    1.5358110046e+02
    3.7099979401e+01    1.5358110046e+02
    3.7199974060e+01    1.5358110046e+02
    3.7299968719e+01    1.5358110046e+02
    3.7399959564e+01    1.5358110046e+02
    3.7499954224e+01    1.5358110046e+02
    3.7599952698e+01    1.5358110046e+02
    3.7699947357e+01    1.5358110046e+02
    3.7799945831e+01    1.5358110046e+02
    3.7899944305e+01    1.5358110046e+02
    3.7999942780e+01    1.5358110046e+02
    3.8099941254e+01    1.5358110046e+02
    3.8199954987e+01    1.5358110046e+02
    3.8299980164e+01    1.5358110046e+02
    3.8399944305e+01    1.5358110046e+02
    3.8499946594e+01    1.5358110046e+02
    3.8599952698e+01    1.5358110046e+02
    3.8699954987e+01    1.5358110046e+02
    3.8799961090e+01    1.5358110046e+02
    3.8899944305e+01    1.5358110046e+02
    3.8999954224e+01    1.5358110046e+02
    3.9099960327e+01    1.5358110046e+02
    3.9199970245e+01    1.5358110046e+02
    3.9299919128e+01    1.5358110046e+02
    3.9399929047e+01    1.5358110046e+02
    3.9499942780e+01    1.5358110046e+02
    3.9599952698e+01    1.5358110046e+02
    3.9699909210e+01    1.5358110046e+02
    3.9799919128e+01    1.5358110046e+02
    3.9899936676e+01    1.5358110046e+02
    3.9999950409e+01    1.5358110046e+02
    4.0099906921e+01    1.5358110046e+02
    4.0199924469e+01    1.5358110046e+02
    4.0299942017e+01    1.5358110046e+02
    4.0399902344e+01    1.5358110046e+02
    4.0499923706e+01    1.5358110046e+02
    4.0599945068e+01    1.5358110046e+02
    4.0699909210e+01    1.5358110046e+02
    4.0799930573e+01    1.5358110046e+02
    4.0899898529e+01    1.5358110046e+02
    4.0999919891e+01    1.5358110046e+02
    4.1099891663e+01    1.5358110046e+02
    4.1199916840e+01    1.5358110046e+02
    4.1299938202e+01    1.5358110046e+02
    4.1399906158e+01    1.5358110046e+02
    4.1499912262e+01    1.5358110046e+02
    4.1599910736e+01    1.5358110046e+02
    4.1699916840e+01    1.5358110046e+02
    4.1799892426e+01    1.5358110046e+02
    4.1899925232e+01    1.5358110046e+02
    4.1999927521e+01    1.5358110046e+02
    4.2099880219e+01    1.5358110046e+02
    4.2199874878e+01    1.5358110046e+02
    4.2299911499e+01    1.5358110046e+02
    4.2399887085e+01    1.5358110046e+02
    4.2499881744e+01    1.5358110046e+02
    4.2599872589e+01    1.5358110046e+02
    4.2699913025e+01    1.5358110046e+02
    4.2799892426e+01    1.5358110046e+02
    4.2899906158e+01    1.5358110046e+02
    4.2999866486e+01    1.5358110046e+02
    4.3099864960e+01    1.5358110046e+02
    4.3199905396e+01    1.5358110046e+02
    4.3299896240e+01    1.5358110046e+02
    4.3399906158e+01    1.5358110046e+02
    4.3499904633e+01    1.5358110046e+02
    4.3599903107e+01    1.5358110046e+02
    4.3699871063e+01    1.5358110046e+02
    4.3799854279e+01    1.5358110046e+02
    4.3899856567e+01    1.5358110046e+02
    4.3999881744e+01    1.5358110046e+02
    4.4099880219e+01    1.5358110046e+02
    4.4199855804e+01    1.5358110046e+02
    4.4299884796e+01    1.5358110046e+02
    4.4399879456e+01    1.5358110046e+02
    4.4499874115e+01    1.5358110046e+02
    4.4599887848e+01    1.5358110046e+02
    4.4699867249e+01    1.5358110046e+02
    4.4799854279e+01    1.5358110046e+02
    4.4899856567e+01    1.5358009338e+02
    4.4999862671e+01    1.5358009338e+02
    4.5099861145e+01    1.5358009338e+02
    4.5199829102e+01    1.5358009338e+02
    4.5299839020e+01    1.5358009338e+02
    4.5399833679e+01    1.5358009338e+02
    4.5499862671e+01    1.5358009338e+02
    4.5599861145e+01    1.5358009338e+02
    4.5699825287e+01    1.5358009338e+02
    4.5799861908e+01    1.5358009338e+02
    4.5899852753e+01    1.5358009338e+02
    4.5999828339e+01    1.5358009338e+02
    4.6099845886e+01    1.5357910156e+02
    4.6199813843e+01    1.5357910156e+02
    4.6299831390e+01    1.5357910156e+02
    4.6399841309e+01    1.5357910156e+02
    4.6499816895e+01    1.5357910156e+02
    4.6599845886e+01    1.5357910156e+02
    4.6699817657e+01    1.5357910156e+02
    4.6799839020e+01    1.5357809448e+02
    4.6899833679e+01    1.5357809448e+02
    4.6999851227e+01    1.5357809448e+02
    4.7099819183e+01    1.5357809448e+02
    4.7199829102e+01    1.5357809448e+02
    4.7299823761e+01    1.5357809448e+02
    4.7399799347e+01    1.5357710266e+02
    4.7499832153e+01    1.5357710266e+02
    4.7599822998e+01    1.5357710266e+02
    4.7699790955e+01    1.5357710266e+02
    4.7799808502e+01    1.5357710266e+02
    4.7899818420e+01    1.5357609558e+02
    4.7999816895e+01    1.5357609558e+02
    4.8099826813e+01    1.5357609558e+02
    4.8199798584e+01    1.5357609558e+02
    4.8299812317e+01    1.5357510376e+02
    4.8399833679e+01    1.5357510376e+02
    4.8499801636e+01    1.5357510376e+02
    4.8599807739e+01    1.5357409668e+02
    4.8699787140e+01    1.5357409668e+02
    4.8799808502e+01    1.5357409668e+02
    4.8899772644e+01    1.5357409668e+02
    4.8999816895e+01    1.5357310486e+02
    4.9099796295e+01    1.5357310486e+02
    4.9199798584e+01    1.5357310486e+02
    4.9299785614e+01    1.5357209778e+02
    4.9399795532e+01    1.5357209778e+02
    4.9499809265e+01    1.5357209778e+02
    4.9599769592e+01    1.5357110596e+02
    4.9699779510e+01    1.5357110596e+02
    4.9799777985e+01    1.5357009888e+02
    4.9899795532e+01    1.5357009888e+02
    4.9999755859e+01    1.5357009888e+02
    5.0099773407e+01    1.5356910706e+02
    5.0199802399e+01    1.5356910706e+02
    5.0299770355e+01    1.5356809998e+02
    5.0399787903e+01    1.5356809998e+02
    5.0499778748e+01    1.5356709290e+02
    5.0599777222e+01    1.5356709290e+02
    5.0699756622e+01    1.5356709290e+02
    5.0799793243e+01    1.5356610107e+02
    5.0899768829e+01    1.5356610107e+02
    5.0999755859e+01    1.5356509399e+02
    5.1099761963e+01    1.5356509399e+02
    5.1199775696e+01    1.5356410217e+02
    5.1299762726e+01    1.5356410217e+02
    5.1399753571e+01    1.5356309509e+02
    5.1499767303e+01    1.5356210327e+02
    5.1599781036e+01    1.5356210327e+02
    5.1699752808e+01    1.5356109619e+02
    5.1799747467e+01    1.5356109619e+02
    5.1899772644e+01    1.5356010437e+02
    5.1999767303e+01    1.5356010437e+02
    5.2099773407e+01    1.5355909729e+02
    5.2199741364e+01    1.5355810547e+02
    5.2299732208e+01    1.5355810547e+02
    5.2399734497e+01    1.5355709839e+02
    5.2499744415e+01    1.5355610657e+02
    5.2599720001e+01    1.5355610657e+02
    5.2699741364e+01    1.5355509949e+02
    5.2799755096e+01    1.5355410767e+02
    5.2899726868e+01    1.5355410767e+02
    5.2999748230e+01    1.5355310059e+02
    5.3099720001e+01    1.5355209351e+02
    5.3199737549e+01    1.5355110168e+02
    5.3299716949e+01    1.5355110168e+02
    5.3399730682e+01    1.5355009460e+02
    5.3499729156e+01    1.5354910278e+02
    5.3599716187e+01    1.5354809570e+02
    5.3699737549e+01    1.5354809570e+02
    5.3799747467e+01    1.5354710388e+02
    5.3899715424e+01    1.5354609680e+02
    5.3999702454e+01    1.5354510498e+02
    5.4099727631e+01    1.5354409790e+02
    5.4199737549e+01    1.5354310608e+02
    5.4299690247e+01    1.5354209900e+02
    5.4399738312e+01    1.5354209900e+02
    5.4499713898e+01    1.5354110718e+02
    5.4599712372e+01    1.5354010010e+02
    5.4699718475e+01    1.5353909302e+02
    5.4799732208e+01    1.5353810120e+02
    5.4899726868e+01    1.5353709412e+02
    5.4999710083e+01    1.5353610229e+02
    5.5099720001e+01    1.5353509521e+02
    5.5199687958e+01    1.5353410339e+02
    5.5299724579e+01    1.5353309631e+02
    5.5399719238e+01    1.5353210449e+02
    5.5499713898e+01    1.5353109741e+02
    5.5599720001e+01    1.5353010559e+02
    5.5699714661e+01    1.5352909851e+02
    5.5799701691e+01    1.5352810669e+02
    5.5899688721e+01    1.5352709961e+02
    5.5999675751e+01    1.5352510071e+02
    5.6099685669e+01    1.5352409363e+02
    5.6199699402e+01    1.5352310181e+02
    5.6299701691e+01    1.5352209473e+02
    5.6399692535e+01    1.5352110291e+02
    5.6499679565e+01    1.5352009583e+02
    5.6599666595e+01    1.5351809692e+02
    5.6699699402e+01    1.5351710510e+02
    5.6799682617e+01    1.5351609802e+02
    5.6899658203e+01    1.5351510620e+02
    5.6999691010e+01    1.5351310730e+02
    5.7099689484e+01    1.5351210022e+02
    5.7199672699e+01    1.5351109314e+02
    5.7299678802e+01    1.5351010132e+02
    5.7399669647e+01    1.5350810242e+02
    5.7499683380e+01    1.5350709534e+02
    5.7599636078e+01    1.5350509644e+02
    5.7699680328e+01    1.5350410461e+02
    5.7799652100e+01    1.5350309753e+02
    5.7899650574e+01    1.5350109863e+02
    5.7999675751e+01    1.5350010681e+02
    5.8099666595e+01    1.5349810791e+02
    5.8199680328e+01    1.5349710083e+02
    5.8299674988e+01    1.5349510193e+02
    5.8399658203e+01    1.5349409485e+02
    5.8499664307e+01    1.5349209595e+02
    5.8599628448e+01    1.5349110413e+02
    5.8699661255e+01    1.5348910522e+02
    5.8799648285e+01    1.5348809814e+02
    5.8899635315e+01    1.5348609924e+02
    5.8999656677e+01    1.5348410034e+02
    5.9099666595e+01    1.5348309326e+02
    5.9199638367e+01    1.5348109436e+02
    5.9299659729e+01    1.5347909546e+02
    5.9399612427e+01    1.5347810364e+02
    5.9499660492e+01    1.5347610474e+02
    5.9599655151e+01    1.5347410583e+02
    5.9699638367e+01    1.5347210693e+02
    5.9799640656e+01    1.5347109985e+02
    5.9899620056e+01    1.5346910095e+02
    5.9999607086e+01    1.5346710205e+02
    6.0099605560e+01    1.5346510315e+02
    6.0199642181e+01    1.5346310425e+02
    6.0299617767e+01    1.5346110535e+02
    6.0399608612e+01    1.5345910645e+02
    6.0499595642e+01    1.5345710754e+02
    6.0599624634e+01    1.5345509338e+02
    6.0699592590e+01    1.5345309448e+02
    6.0799587250e+01    1.5345109558e+02
    6.0899589539e+01    1.5344909668e+02
    6.0999614716e+01    1.5344709778e+02
    6.1099609375e+01    1.5344509888e+02
    6.1199615479e+01    1.5344309998e+02
    6.1299617767e+01    1.5344110107e+02
    6.1399612427e+01    1.5343809509e+02
    6.1499626160e+01    1.5343609619e+02
    6.1599624634e+01    1.5343409729e+02
    6.1699623108e+01    1.5343209839e+02
    6.1799625397e+01    1.5342910767e+02
    6.1899574280e+01    1.5342709351e+02
    6.1999584198e+01    1.5342509460e+02
    6.2099597931e+01    1.5342210388e+02
    6.2199581146e+01    1.5342010498e+02
    6.2299617767e+01    1.5341709900e+02
    6.2399608612e+01    1.5341510010e+02
    6.2499588013e+01    1.5341209412e+02
    6.2599590302e+01    1.5341009521e+02
    6.2699581146e+01    1.5340710449e+02
    6.2799606323e+01    1.5340510559e+02
    6.2899585724e+01    1.5340209961e+02
    6.2999565125e+01    1.5339909363e+02
    6.3099601746e+01    1.5339709473e+02
    6.3199550629e+01    1.5339410400e+02
    6.3299560547e+01    1.5339109802e+02
    6.3399555206e+01    1.5338810730e+02
    6.3499595642e+01    1.5338510132e+02
    6.3599552155e+01    1.5338209534e+02
    6.3699581146e+01    1.5337910461e+02
    6.3799549103e+01    1.5337609863e+02
    6.3899566650e+01    1.5337310791e+02
    6.3999565125e+01    1.5337010193e+02
    6.4099548340e+01    1.5336709595e+02
    6.4199577332e+01    1.5336410522e+02
    6.4299545288e+01    1.5336109924e+02
    6.4399551392e+01    1.5335809326e+02
    6.4499565125e+01    1.5335510254e+02
    6.4599571228e+01    1.5335110474e+02
    6.4699569702e+01    1.5334809875e+02
    6.4799552917e+01    1.5334510803e+02
    6.4899566650e+01    1.5334109497e+02
    6.4999542236e+01    1.5333810425e+02
    6.5099548340e+01    1.5333410645e+02
    6.5199569702e+01    1.5333110046e+02
    6.5299552917e+01    1.5332710266e+02
    6.5399536133e+01    1.5332409668e+02
    6.5499542236e+01    1.5332009888e+02
    6.5599533081e+01    1.5331610107e+02
    6.5699546814e+01    1.5331210327e+02
    6.5799537659e+01    1.5330909729e+02
    6.5899528503e+01    1.5330509949e+02
    6.5999526978e+01    1.5330110168e+02
    6.6099540710e+01    1.5329710388e+02
    6.6199523926e+01    1.5329310608e+02
    6.6299514771e+01    1.5328909302e+02
    6.6399528503e+01    1.5328509521e+02
    6.6499511719e+01    1.5328109741e+02
    6.6599548340e+01    1.5327610779e+02
    6.6699531555e+01    1.5327209473e+02
    6.6799507141e+01    1.5326809692e+02
    6.6899543762e+01    1.5326409912e+02
    6.6999542236e+01    1.5325909424e+02
    6.7099502563e+01    1.5325509644e+02
    6.7199508667e+01    1.5325010681e+02
    6.7299507141e+01    1.5324609375e+02
    6.7399528503e+01    1.5324110413e+02
    6.7499511719e+01    1.5323609924e+02
    6.7599540710e+01    1.5323210144e+02
    6.7699516296e+01    1.5322709656e+02
    6.7799522400e+01    1.5322210693e+02
    6.7899482727e+01    1.5321710205e+02
    6.7999526978e+01    1.5321209717e+02
    6.8099517822e+01    1.5320710754e+02
    6.8199493408e+01    1.5320210266e+02
    6.8299499512e+01    1.5319709778e+02
    6.8399497986e+01    1.5319209290e+02
    6.8499511719e+01    1.5318609619e+02
    6.8599502563e+01    1.5318110657e+02
    6.8699478149e+01    1.5317610168e+02
    6.8799468994e+01    1.5317010498e+02
    6.8899482727e+01    1.5316510010e+02
    6.8999496460e+01    1.5315910339e+02
    6.9099494934e+01    1.5315310669e+02
    6.9199493408e+01    1.5314810181e+02
    6.9299507141e+01    1.5314210510e+02
    6.9399490356e+01    1.5313609314e+02
    6.9499496460e+01    1.5313009644e+02
    6.9599472046e+01    1.5312409973e+02
    6.9699455261e+01    1.5311810303e+02
    6.9799484253e+01    1.5311210632e+02
    6.9899452209e+01    1.5310609436e+02
    6.9999458313e+01    1.5309910583e+02
    7.0099472046e+01    1.5309309387e+02
    7.0199493408e+01    1.5308709717e+02
    7.0299461365e+01    1.5308009338e+02
    7.0399452209e+01    1.5307310486e+02
    7.0499488831e+01    1.5306709290e+02
    7.0599441528e+01    1.5306010437e+02
    7.0699493408e+01    1.5305310059e+02
    7.0799484253e+01    1.5304609680e+02
    7.0899475098e+01    1.5303909302e+02
    7.0999473572e+01    1.5303210449e+02
    7.1099449158e+01    1.5302510071e+02
    7.1199455261e+01    1.5301809692e+02
    7.1299438477e+01    1.5301010132e+02
    7.1399459839e+01    1.5300309753e+02
    7.1499435425e+01    1.5299609375e+02
    7.1599449158e+01    1.5298809814e+02
    7.1699440002e+01    1.5298010254e+02
    7.1799438477e+01    1.5297210693e+02
    7.1899452209e+01    1.5296510315e+02
    7.1999435425e+01    1.5295710754e+02
    7.2099433899e+01    1.5294810486e+02
    7.2199470520e+01    1.5294009399e+02
    7.2299430847e+01    1.5293209839e+02
    7.2399459839e+01    1.5292410278e+02
    7.2499450684e+01    1.5291510010e+02
    7.2599456787e+01    1.5290710449e+02
    7.2699455261e+01    1.5289810181e+02
    7.2799446106e+01    1.5288909912e+02
    7.2899436951e+01    1.5288009644e+02
    7.2999427795e+01    1.5287109375e+02
    7.3099441528e+01    1.5286210632e+02
    7.3199394226e+01    1.5285310364e+02
    7.3299446106e+01    1.5284309387e+02
    7.3399414062e+01    1.5283410645e+02
    7.3499397278e+01    1.5282409668e+02
    7.3599403381e+01    1.5281509399e+02
    7.3699417114e+01    1.5280509949e+02
    7.3799407959e+01    1.5279510498e+02
    7.3899444580e+01    1.5278509521e+02
    7.3999412537e+01    1.5277510071e+02
    7.4099395752e+01    1.5276409912e+02
    7.4199424744e+01    1.5275410461e+02
    7.4299438477e+01    1.5274310303e+02
    7.4399414062e+01    1.5273309326e+02
    7.4499404907e+01    1.5272210693e+02
    7.4599380493e+01    1.5271110535e+02
    7.4699424744e+01    1.5270010376e+02
    7.4799415588e+01    1.5268809509e+02
    7.4899406433e+01    1.5267709351e+02
    7.4999389648e+01    1.5266610718e+02
    7.5099380493e+01    1.5265409851e+02
    7.5199417114e+01    1.5264210510e+02
    7.5299407959e+01    1.5263009644e+02
    7.5399391174e+01    1.5261810303e+02
    7.5499382019e+01    1.5260510254e+02
    7.5599403381e+01    1.5259309387e+02
    7.5699401855e+01    1.5258009338e+02
    7.5799362183e+01    1.5256709290e+02
    7.5899398804e+01    1.5255410767e+02
    7.5999359131e+01    1.5254110718e+02
    7.6099372864e+01    1.5252810669e+02
    7.6199356079e+01    1.5251409912e+02
    7.6299354553e+01    1.5250010681e+02
    7.6399353027e+01    1.5248609924e+02
    7.6499366760e+01    1.5247210693e+02
    7.6599388123e+01    1.5245809937e+02
    7.6699394226e+01    1.5244309998e+02
    7.6799362183e+01    1.5242910767e+02
    7.6899375916e+01    1.5241409302e+02
    7.6999359131e+01    1.5239810181e+02
    7.7099349976e+01    1.5238310242e+02
    7.7199348450e+01    1.5236709595e+02
    7.7299369812e+01    1.5235209656e+02
    7.7399345398e+01    1.5233610535e+02
    7.7499374390e+01    1.5231910706e+02
    7.7599349976e+01    1.5230310059e+02
    7.7699356079e+01    1.5228610229e+02
    7.7799362183e+01    1.5226910400e+02
    7.7899330139e+01    1.5225210571e+02
    7.7999366760e+01    1.5223410034e+02
    7.8099365234e+01    1.5221609497e+02
    7.8199363708e+01    1.5219810486e+02
    7.8299346924e+01    1.5218009949e+02
    7.8399337769e+01    1.5216110229e+02
    7.8499320984e+01    1.5214210510e+02
    7.8599349976e+01    1.5212310791e+02
    7.8699348450e+01    1.5210310364e+02
    7.8799331665e+01    1.5208410645e+02
    7.8899360657e+01    1.5206309509e+02
    7.8999351501e+01    1.5204310608e+02
    7.9099342346e+01    1.5202209473e+02
    7.9199356079e+01    1.5200109863e+02
    7.9299339294e+01    1.5198010254e+02
    7.9399322510e+01    1.5195809937e+02
    7.9499305725e+01    1.5193609619e+02
    7.9599304199e+01    1.5191409302e+02
    7.9699317932e+01    1.5189109802e+02
    7.9799324036e+01    1.5186810303e+02
    7.9899330139e+01    1.5184410095e+02
    7.9999298096e+01    1.5182009888e+02
    8.0099319458e+01    1.5179609680e+02
    8.0199302673e+01    1.5177110291e+02
    8.0299331665e+01    1.5174609375e+02
    8.0399291992e+01    1.5172109985e+02
    8.0499320984e+01    1.5169509888e+02
    8.0599288940e+01    1.5166909790e+02
    8.0699310303e+01    1.5164210510e+02
    8.0799331665e+01    1.5161509705e+02
    8.0899322510e+01    1.5158810425e+02
    8.0999298096e+01    1.5156010437e+02
    8.1099281311e+01    1.5153210449e+02
    8.1199295044e+01    1.5150309753e+02
    8.1299278259e+01    1.5147410583e+02
    8.1399299622e+01    1.5144410706e+02
    8.1499328613e+01    1.5141409302e+02
    8.1599281311e+01    1.5138310242e+02
    8.1699317932e+01    1.5135209656e+02
    8.1799270630e+01    1.5132009888e+02
    8.1899307251e+01    1.5128810120e+02
    8.1999290466e+01    1.5125610352e+02
    8.2099319458e+01    1.5122210693e+02
    8.2199272156e+01    1.5118910217e+02
    8.2299293518e+01    1.5115510559e+02
    8.2399307251e+01    1.5112010193e+02
    8.2499275208e+01    1.5108509827e+02
    8.2599281311e+01    1.5104910278e+02
    8.2699264526e+01    1.5101210022e+02
    8.2799285889e+01    1.5097509766e+02
    8.2899276733e+01    1.5093809509e+02
    8.2999275208e+01    1.5090010071e+02
    8.3099266052e+01    1.5086109924e+02
    8.3199249268e+01    1.5082209778e+02
    8.3299247742e+01    1.5078210449e+02
    8.3399253845e+01    1.5074209595e+02
    8.3499282837e+01    1.5070010376e+02
    8.3599250793e+01    1.5065910339e+02
    8.3699287415e+01    1.5061610413e+02
    8.3799247742e+01    1.5057310486e+02
    8.3899269104e+01    1.5053010559e+02
    8.3999259949e+01    1.5048510742e+02
    8.4099281311e+01    1.5044009399e+02
    8.4199249268e+01    1.5039509583e+02
    8.4299263000e+01    1.5034809875e+02
    8.4399238586e+01    1.5030110168e+02
    8.4499259949e+01    1.5025309753e+02
    8.4599243164e+01    1.5020509338e+02
    8.4699241638e+01    1.5015609741e+02
    8.4799240112e+01    1.5010609436e+02
    8.4899261475e+01    1.5005509949e+02
    8.4999259949e+01    1.5000410461e+02
    8.5099243164e+01    1.4995109558e+02
    8.5199234009e+01    1.4989909363e+02
    8.5299224854e+01    1.4984510803e+02
    8.5399215698e+01    1.4979110718e+02
    8.5499214172e+01    1.4973510742e+02
    8.5599243164e+01    1.4968009949e+02
    8.5699249268e+01    1.4962310791e+02
    8.5799247742e+01    1.4956610107e+02
    8.5899253845e+01    1.4950810242e+02
    8.5999206543e+01    1.4944909668e+02
    8.6099235535e+01    1.4939010620e+02
    8.6199241638e+01    1.4933009338e+02
    8.6299201965e+01    1.4926910400e+02
    8.6399215698e+01    1.4920809937e+02
    8.6499206543e+01    1.4914509583e+02
    8.6599235535e+01    1.4908210754e+02
    8.6699218750e+01    1.4901809692e+02
    8.6799232483e+01    1.4895309448e+02
    8.6899200439e+01    1.4888710022e+02
    8.6999229431e+01    1.4882110596e+02
    8.7099205017e+01    1.4875309753e+02
    8.7199195862e+01    1.4868510437e+02
    8.7299194336e+01    1.4861509705e+02
    8.7399208069e+01    1.4854510498e+02
    8.7499221802e+01    1.4847410583e+02
    8.7599197388e+01    1.4840209961e+02
    8.7699218750e+01    1.4832910156e+02
    8.7799194336e+01    1.4825610352e+02
    8.7899177551e+01    1.4818110657e+02
    8.7999198914e+01    1.4810609436e+02
    8.8099174500e+01    1.4803010559e+02
    8.8199172974e+01    1.4795410156e+02
    8.8299209595e+01    1.4787710571e+02
    8.8399177551e+01    1.4779910278e+02
    8.8499198914e+01    1.4772010803e+02
    8.8599174500e+01    1.4764109802e+02
    8.8699165344e+01    1.4756010437e+02
    8.8799217224e+01    1.4747909546e+02
    8.8899192810e+01    1.4739709473e+02
    8.8999160767e+01    1.4731410217e+02
    8.9099166870e+01    1.4723109436e+02
    8.9199203491e+01    1.4714610291e+02
    8.9299201965e+01    1.4706010437e+02
    8.9399185181e+01    1.4697309875e+02
    8.9499168396e+01    1.4688510132e+02
    8.9599174500e+01    1.4679710388e+02
    8.9699142456e+01    1.4670709229e+02
    8.9799163818e+01    1.4661610413e+02
    8.9899169922e+01    1.4652510071e+02
    8.9999168396e+01    1.4643310547e+02
    9.0099143982e+01    1.4634010315e+02
    9.0199150085e+01    1.4624609375e+02
    9.0299148560e+01    1.4615109253e+02
    9.0399177551e+01    1.4605609131e+02
    9.0499176025e+01    1.4595910645e+02
    9.0599166870e+01    1.4586209106e+02
    9.0699157715e+01    1.4576409912e+02
    9.0799133301e+01    1.4566610718e+02
    9.0899154663e+01    1.4556610107e+02
    9.0999130249e+01    1.4546510315e+02
    9.1099136353e+01    1.4536410522e+02
    9.1199150085e+01    1.4526110840e+02
    9.1299171448e+01    1.4515811157e+02
    9.1399177551e+01    1.4505310059e+02
    9.1499122620e+01    1.4494808960e+02
    9.1599121094e+01    1.4484109497e+02
    9.1699150085e+01    1.4473410034e+02
    9.1799148560e+01    1.4462509155e+02
    9.1899116516e+01    1.4451609802e+02
    9.1999153137e+01    1.4440509033e+02
    9.2099159241e+01    1.4429409790e+02
    9.2199127197e+01    1.4418209839e+02
    9.2299118042e+01    1.4406909180e+02
    9.2399116516e+01    1.4395510864e+02
    9.2499107361e+01    1.4384010315e+02
    9.2599121094e+01    1.4372509766e+02
    9.2699119568e+01    1.4360809326e+02
    9.2799148560e+01    1.4349110413e+02
    9.2899108887e+01    1.4337310791e+02
    9.2999130249e+01    1.4325309753e+02
    9.3099136353e+01    1.4313310242e+02
    9.3199142456e+01    1.4301210022e+02
    9.3299140930e+01    1.4289010620e+02
    9.3399108887e+01    1.4276708984e+02
    9.3499137878e+01    1.4264208984e+02
    9.3599128723e+01    1.4251708984e+02
    9.3699134827e+01    1.4239109802e+02
    9.3799102783e+01    1.4226309204e+02
    9.3899124146e+01    1.4213510132e+02
    9.3999122620e+01    1.4200610352e+02
    9.4099113464e+01    1.4187509155e+02
    9.4199089050e+01    1.4174411011e+02
    9.4299095154e+01    1.4161209106e+02
    9.4399093628e+01    1.4147810364e+02
    9.4499084473e+01    1.4134410095e+02
    9.4599105835e+01    1.4120910645e+02
    9.4699104309e+01    1.4107308960e+02
    9.4799125671e+01    1.4093609619e+02
    9.4899108887e+01    1.4079809570e+02
    9.4999069214e+01    1.4065910339e+02
    9.5099067688e+01    1.4051910400e+02
    9.5199104309e+01    1.4037809753e+02
    9.5299095154e+01    1.4023609924e+02
    9.5399085999e+01    1.4009410095e+02
    9.5499099731e+01    1.3995010376e+02
    9.5599067688e+01    1.3980509949e+02
    9.5699096680e+01    1.3965811157e+02
    9.5799102783e+01    1.3951110840e+02
    9.5899093628e+01    1.3936309814e+02
    9.5999061584e+01    1.3921411133e+02
    9.6099052429e+01    1.3906311035e+02
    9.6199050903e+01    1.3891210938e+02
    9.6299087524e+01    1.3876010132e+02
    9.6399078369e+01    1.3860610962e+02
    9.6499076843e+01    1.3845210266e+02
    9.6599067688e+01    1.3829609680e+02
    9.6699081421e+01    1.3814010620e+02
    9.6799064636e+01    1.3798309326e+02
    9.6899085999e+01    1.3782510376e+02
    9.6999076843e+01    1.3766610718e+02
    9.7099029541e+01    1.3750509644e+02
    9.7199081421e+01    1.3734410095e+02
    9.7299064636e+01    1.3718209839e+02
    9.7399078369e+01    1.3701910400e+02
    9.7499031067e+01    1.3685510254e+02
    9.7599044800e+01    1.3668910217e+02
    9.7699028015e+01    1.3652310181e+02
    9.7799034119e+01    1.3635610962e+02
    9.7899032593e+01    1.3618710327e+02
    9.7999053955e+01    1.3601809692e+02
    9.8099014282e+01    1.3584710693e+02
    9.8199066162e+01    1.3567510986e+02
    9.8299064636e+01    1.3550309753e+02
    9.8399032593e+01    1.3532910156e+02
    9.8499038696e+01    1.3515409851e+02
    9.8599021912e+01    1.3497810364e+02
    9.8699058533e+01    1.3480209351e+02
    9.8799049377e+01    1.3462409973e+02
    9.8899009705e+01    1.3444610596e+02
    9.8999046326e+01    1.3426609802e+02
    9.9099029541e+01    1.3408609009e+02
    9.9199050903e+01    1.3390409851e+02
    9.9299041748e+01    1.3372210693e+02
    9.9399047852e+01    1.3353810120e+02
    9.9499038696e+01    1.3335409546e+02
    9.9599029541e+01    1.3316909790e+02
    9.9699028015e+01    1.3298210144e+02
    9.9798988342e+01    1.3279510498e+02
    9.9899002075e+01    1.3260710144e+02
    9.9999015808e+01    1.3241709900e+02
    1.0009902954e+02    1.3222711182e+02
    1.0019902802e+02    1.3203610229e+02
    1.0029900360e+02    1.3184310913e+02
    1.0039898682e+02    1.3165010071e+02
    1.0049903107e+02    1.3145610046e+02
    1.0059900665e+02    1.3126010132e+02
    1.0069898987e+02    1.3106410217e+02
    1.0079898834e+02    1.3086709595e+02
    1.0089898682e+02    1.3066909790e+02
    1.0099900055e+02    1.3047009277e+02
    1.0109902191e+02    1.3027011108e+02
    1.0119898224e+02    1.3006909180e+02
    1.0129900360e+02    1.2986810303e+02
    1.0139897919e+02    1.2966510010e+02
    1.0149896240e+02    1.2946209717e+02
    1.0159900665e+02    1.2925810242e+02
    1.0169896698e+02    1.2905310059e+02
    1.0179898071e+02    1.2884710693e+02
    1.0189898682e+02    1.2864010620e+02
    1.0199897766e+02    1.2843209839e+02
    1.0209896088e+02    1.2822309875e+02
    1.0219898987e+02    1.2801309204e+02
    1.0229897308e+02    1.2780310059e+02
    1.0239900208e+02    1.2759110260e+02
    1.0249899292e+02    1.2737909698e+02
    1.0259899139e+02    1.2716510010e+02
    1.0269899750e+02    1.2695110321e+02
    1.0279898071e+02    1.2673609924e+02
    1.0289897919e+02    1.2652010345e+02
    1.0299896240e+02    1.2630410004e+02
    1.0309899139e+02    1.2608609772e+02
    1.0319895172e+02    1.2586810303e+02
    1.0329894257e+02    1.2564910126e+02
    1.0339894867e+02    1.2542910004e+02
    1.0349899292e+02    1.2520809937e+02
    1.0359896088e+02    1.2498609924e+02
    1.0369895935e+02    1.2476409912e+02
    1.0379898071e+02    1.2454109955e+02
    1.0389894104e+02    1.2431809998e+02
    1.0399897003e+02    1.2409310150e+02
    1.0409893036e+02    1.2386810303e+02
    1.0419896698e+02    1.2364209747e+02
    1.0429894257e+02    1.2341510010e+02
    1.0439894104e+02    1.2318710327e+02
    1.0449897003e+02    1.2295909882e+02
    1.0459893799e+02    1.2273010254e+02
    1.0469891357e+02    1.2250009918e+02
    1.0479895020e+02    1.2226910400e+02
    1.0489891815e+02    1.2203810120e+02
    1.0499894714e+02    1.2180509949e+02
    1.0509892273e+02    1.2157209778e+02
    1.0519893646e+02    1.2133910370e+02
    1.0529895020e+02    1.2110410309e+02
    1.0539894104e+02    1.2086910248e+02
    1.0549893951e+02    1.2063310242e+02
    1.0559892273e+02    1.2039710236e+02
    1.0569892120e+02    1.2015910339e+02
    1.0579895020e+02    1.1992109680e+02
    1.0589891052e+02    1.1968309784e+02
    1.0599893188e+02    1.1944409943e+02
    1.0609889984e+02    1.1920410156e+02
    1.0619892883e+02    1.1896410370e+02
    1.0629889679e+02    1.1872260284e+02
    1.0639891052e+02    1.1848090363e+02
    1.0649890137e+02    1.1823860168e+02
    1.0659893036e+02    1.1799559784e+02
    1.0669891357e+02    1.1775209808e+02
    1.0679891968e+02    1.1750800323e+02
    1.0689890289e+02    1.1726329803e+02
    1.0699891663e+02    1.1701799774e+02
    1.0709889984e+02    1.1677220154e+02
    1.0719888306e+02    1.1652590179e+02
    1.0729891205e+02    1.1627890015e+02
    1.0739891815e+02    1.1603150177e+02
    1.0749887848e+02    1.1578369904e+02
    1.0759889221e+02    1.1553520203e+02
    1.0769891357e+02    1.1528630066e+02
    1.0779891968e+02    1.1503690338e+02
    1.0789887238e+02    1.1478730011e+02
    1.0799890900e+02    1.1453700256e+02
    1.0809889221e+02    1.1428639984e+02
    1.0819889069e+02    1.1403540039e+02
    1.0829891968e+02    1.1378389740e+02
    1.0839888763e+02    1.1353220367e+02
    1.0849890137e+02    1.1328009796e+02
    1.0859887695e+02    1.1302760315e+02
    1.0869886780e+02    1.1277480316e+02
    1.0879888153e+02    1.1252159882e+02
    1.0889888763e+02    1.1226820374e+02
    1.0899887085e+02    1.1201450348e+02
    1.0909886169e+02    1.1176049805e+02
    1.0919886780e+02    1.1150620270e+02
    1.0929888916e+02    1.1125160217e+02
    1.0939884949e+02    1.1099700165e+02
    1.0949889374e+02    1.1074189758e+02
    1.0959886169e+02    1.1048690033e+02
    1.0969886017e+02    1.1023159790e+02
    1.0979886627e+02    1.0997609711e+02
    1.0989884186e+02    1.0972049713e+02
    1.0999884796e+02    1.0946479797e+02
    1.1009884644e+02    1.0920890045e+02
    1.1019886017e+02    1.0895290375e+02
    1.1029888153e+02    1.0869680023e+02
    1.1039884949e+02    1.0844080353e+02
    1.1049884796e+02    1.0818460083e+02
    1.1059887695e+02    1.0792829895e+02
    1.1069886780e+02    1.0767199707e+02
    1.1079885101e+02    1.0741580200e+02
    1.1089885712e+02    1.0715940094e+02
    1.1099886322e+02    1.0690299988e+02
    1.1109883118e+02    1.0664679718e+02
    1.1119882202e+02    1.0639040375e+02
    1.1129884338e+02    1.0613410187e+02
    1.1139885712e+02    1.0587779999e+02
    1.1149887085e+02    1.0562149811e+02
    1.1159886169e+02    1.0536540222e+02
    1.1169886017e+02    1.0510929871e+02
    1.1179884338e+02    1.0485340118e+02
    1.1189884949e+02    1.0459739685e+02
    1.1199881744e+02    1.0434169769e+02
    1.1209880066e+02    1.0408609772e+02
    1.1219883728e+02    1.0383049774e+02
    1.1229882812e+02    1.0357510376e+02
    1.1239882660e+02    1.0331990051e+02
    1.1249880981e+02    1.0306490326e+02
    1.1259883118e+02    1.0280989838e+02
    1.1269883728e+02    1.0255509949e+02
    1.1279884338e+02    1.0230059814e+02
    1.1289882660e+02    1.0204630280e+02
    1.1299884033e+02    1.0179209900e+02
    1.1309880829e+02    1.0153820038e+02
    1.1319882965e+02    1.0128450012e+02
    1.1329881287e+02    1.0103109741e+02
    1.1339881897e+02    1.0077780151e+02
    1.1349878693e+02    1.0052490234e+02
    1.1359879303e+02    1.0027210236e+02
    1.1369882965e+02    1.0001950073e+02
    1.1379882050e+02    9.9767196655e+01
    1.1389881134e+02    9.9515296936e+01
    1.1399877930e+02    9.9263603210e+01
    1.1409877777e+02    9.9012199402e+01
    1.1419879913e+02    9.8761299133e+01
    1.1429875946e+02    9.8510704041e+01
    1.1439880371e+02    9.8260398865e+01
    1.1449880981e+02    9.8010597229e+01
    1.1459879303e+02    9.7761100769e+01
    1.1469876099e+02    9.7512100220e+01
    1.1479876709e+02    9.7263298035e+01
    1.1489878845e+02    9.7014900208e+01
    1.1499877167e+02    9.6767097473e+01
    1.1509879303e+02    9.6519500732e+01
    1.1519877625e+02    9.6272499084e+01
    1.1529879761e+02    9.6025703430e+01
    1.1539875793e+02    9.5779502869e+01
    1.1549874878e+02    9.5533699036e+01
    1.1559879303e+02    9.5288101196e+01
    1.1569876099e+02    9.5043197632e+01
    1.1579879761e+02    9.4798500061e+01
    1.1589875793e+02    9.4554397583e+01
    1.1599874878e+02    9.4310798645e+01
    1.1609880066e+02    9.4067398071e+01
    1.1619876862e+02    9.3824699402e+01
    1.1629875946e+02    9.3582397461e+01
    1.1639875793e+02    9.3340599060e+01
    1.1649874115e+02    9.3099304199e+01
    1.1659876251e+02    9.2858398438e+01
    1.1669876099e+02    9.2618003845e+01
    1.1679876709e+02    9.2378196716e+01
    1.1689877319e+02    9.2138900757e+01
    1.1699877167e+02    9.1900199890e+01
    1.1709873199e+02    9.1661903381e+01
    1.1719876862e+02    9.1423202515e+01
    1.1729876709e+02    9.1184204102e+01
    1.1739874268e+02    9.0944801331e+01
    1.1749875641e+02    9.0704696655e+01
    1.1759873962e+02    9.0464302063e+01
    1.1769872284e+02    9.0223999023e+01
    1.1779872894e+02    8.9984100342e+01
    1.1789874268e+02    8.9744598389e+01
    1.1799871826e+02    8.9505500793e+01
    1.1809873962e+02    8.9266799927e+01
    1.1819875336e+02    8.9028503418e+01
    1.1829869843e+02    8.8791397095e+01
    1.1839875793e+02    8.8554702759e+01
    1.1849871063e+02    8.8318801880e+01
    1.1859873962e+02    8.8083396912e+01
    1.1869873810e+02    8.7848800659e+01
    1.1879872131e+02    8.7615203857e+01
    1.1889871216e+02    8.7382499695e+01
    1.1899873352e+02    8.7150398254e+01
    1.1909870911e+02    8.6919197083e+01
    1.1919872284e+02    8.6688201904e+01
    1.1929873657e+02    8.6457702637e+01
    1.1939869690e+02    8.6227401733e+01
    1.1949874115e+02    8.5996597290e+01
    1.1959868622e+02    8.5765602112e+01
    1.1969869232e+02    8.5534004211e+01
    1.1979872131e+02    8.5302001953e+01
    1.1989871216e+02    8.5069801331e+01
    1.1999873352e+02    8.4837600708e+01
    1.2009870911e+02    8.4605598450e+01
    1.2019869995e+02    8.4374000549e+01
    1.2029869843e+02    8.4142501831e+01
    1.2039871216e+02    8.3911399841e+01
    1.2049868774e+02    8.3680702209e+01
    1.2059867859e+02    8.3450202942e+01
    1.2069870758e+02    8.3219596863e+01
    1.2079869080e+02    8.2988998413e+01
    1.2089868164e+02    8.2758399963e+01
    1.2099870300e+02    8.2527404785e+01
    1.2109867859e+02    8.2296501160e+01
    1.2119869232e+02    8.2065505981e+01
    1.2129866791e+02    8.1834602356e+01
    1.2139869690e+02    8.1603897095e+01
    1.2149871063e+02    8.1373802185e+01
    1.2159867096e+02    8.1144401550e+01
    1.2169866180e+02    8.0915496826e+01
    1.2179866028e+02    8.0687301636e+01
    1.2189865875e+02    8.0459304810e+01
    1.2199870300e+02    8.0231399536e+01
    1.2209867096e+02    8.0003501892e+01
    1.2219867706e+02    7.9774795532e+01
    1.2229869843e+02    7.9545303345e+01
    1.2239865112e+02    7.9315101624e+01
    1.2249865723e+02    7.9083801270e+01
    1.2259870148e+02    7.8851600647e+01
    1.2269866943e+02    7.8619003296e+01
    1.2279865265e+02    7.8386001587e+01
    1.2289865875e+02    7.8152702332e+01
    1.2299867249e+02    7.7919601440e+01
    1.2309867096e+02    7.7686599731e+01
    1.2319866180e+02    7.7453903198e+01
    1.2329865265e+02    7.7221298218e+01
    1.2339866638e+02    7.6988700867e+01
    1.2349867249e+02    7.6755996704e+01
    1.2359867859e+02    7.6522994995e+01
    1.2369863892e+02    7.6289505005e+01
    1.2379868317e+02    7.6055297852e+01
    1.2389865875e+02    7.5820701599e+01
    1.2399862671e+02    7.5585494995e+01
    1.2409867096e+02    7.5349800110e+01
    1.2419863129e+02    7.5113899231e+01
    1.2429862213e+02    7.4877799988e+01
    1.2439862061e+02    7.4641601562e+01
    1.2449867249e+02    7.4405197144e+01
    1.2459866333e+02    7.4168701172e+01
    1.2469863892e+02    7.3931999207e+01
    1.2479866028e+02    7.3694702148e+01
    1.2489859772e+02    7.3456901550e+01
    1.2499861145e+02    7.3218101501e+01
    1.2509863281e+02    7.2978401184e+01
    1.2519863892e+02    7.2737701416e+01
    1.2529863739e+02    7.2496002197e+01
    1.2539865112e+02    7.2253402710e+01
    1.2549859619e+02    7.2010299683e+01
    1.2559861755e+02    7.1766494751e+01
    1.2569860077e+02    7.1522499084e+01
    1.2579860687e+02    7.1278396606e+01
    1.2589862823e+02    7.1034194946e+01
    1.2599859619e+02    7.0790100098e+01
    1.2609860229e+02    7.0545898438e+01
    1.2619863129e+02    7.0301498413e+01
    1.2629860687e+02    7.0056999207e+01
    1.2639858246e+02    6.9811904907e+01
    1.2649861908e+02    6.9566101074e+01
    1.2659860229e+02    6.9319702148e+01
    1.2669863129e+02    6.9072502136e+01
    1.2679859161e+02    6.8824699402e+01
    1.2689862061e+02    6.8576095581e+01
    1.2699858856e+02    6.8327102661e+01
    1.2709857941e+02    6.8077598572e+01
    1.2719859314e+02    6.7827697754e+01
    1.2729859924e+02    6.7577499390e+01
    1.2739859009e+02    6.7326995850e+01
    1.2749858093e+02    6.7076095581e+01
    1.2759857941e+02    6.6824699402e+01
    1.2769857025e+02    6.6572700500e+01
    1.2779857635e+02    6.6319900513e+01
    1.2789862061e+02    6.6066299438e+01
    1.2799861145e+02    6.5812194824e+01
    1.2809860229e+02    6.5557296753e+01
    1.2819860840e+02    6.5301895142e+01
    1.2829858398e+02    6.5046096802e+01
    1.2839859009e+02    6.4790100098e+01
    1.2849862671e+02    6.4533798218e+01
    1.2859858704e+02    6.4277801514e+01
    1.2869862366e+02    6.4021598816e+01
    1.2879864502e+02    6.3765399933e+01
    1.2889862061e+02    6.3509300232e+01
    1.2899862671e+02    6.3252799988e+01
    1.2909863281e+02    6.2996002197e+01
    1.2919866943e+02    6.2738601685e+01
    1.2929864502e+02    6.2480800629e+01
    1.2939866638e+02    6.2222099304e+01
    1.2949867249e+02    6.1962902069e+01
    1.2959867859e+02    6.1703102112e+01
    1.2969868469e+02    6.1443000793e+01
    1.2979864502e+02    6.1182601929e+01
    1.2989869690e+02    6.0921901703e+01
    1.2999867249e+02    6.0661300659e+01
    1.3009869385e+02    6.0400402069e+01
    1.3019869995e+02    6.0139400482e+01
    1.3029869080e+02    5.9878299713e+01
    1.3039872742e+02    5.9616802216e+01
    1.3049874878e+02    5.9354999542e+01
    1.3059872437e+02    5.9093002319e+01
    1.3069874573e+02    5.8830501556e+01
    1.3079872131e+02    5.8567699432e+01
    1.3089874268e+02    5.8304698944e+01
    1.3099873352e+02    5.8041801453e+01
    1.3109877014e+02    5.7778800964e+01
    1.3119876099e+02    5.7516101837e+01
    1.3129876709e+02    5.7253601074e+01
    1.3139877319e+02    5.6991500854e+01
    1.3149879456e+02    5.6729701996e+01
    1.3159875488e+02    5.6468200684e+01
    1.3169882202e+02    5.6206699371e+01
    1.3179878235e+02    5.5945400238e+01
    1.3189880371e+02    5.5683898926e+01
    1.3199882507e+02    5.5422199249e+01
    1.3209884644e+02    5.5160598755e+01
    1.3219883728e+02    5.4899002075e+01
    1.3229882812e+02    5.4637401581e+01
    1.3239881897e+02    5.4376201630e+01
    1.3249884033e+02    5.4115100861e+01
    1.3259884644e+02    5.3854701996e+01
    1.3269885254e+02    5.3594902039e+01
    1.3279884338e+02    5.3335700989e+01
    1.3289884949e+02    5.3077201843e+01
    1.3299887085e+02    5.2819198608e+01
    1.3309887695e+02    5.2562000275e+01
    1.3319885254e+02    5.2305400848e+01
    1.3329887390e+02    5.2049400330e+01
    1.3339888000e+02    5.1793998718e+01
    1.3349891663e+02    5.1539199829e+01
    1.3359890747e+02    5.1285301208e+01
    1.3369891357e+02    5.1032001495e+01
    1.3379890442e+02    5.0779602051e+01
    1.3389891052e+02    5.0528301239e+01
    1.3399896240e+02    5.0277900696e+01
    1.3409892273e+02    5.0028900146e+01
    1.3419895935e+02    4.9780799866e+01
    1.3429895020e+02    4.9534099579e+01
    1.3439898682e+02    4.9288497925e+01
    1.3449896240e+02    4.9044097900e+01
    1.3459895325e+02    4.8800598145e+01
    1.3469897461e+02    4.8558097839e+01
    1.3479899597e+02    4.8316600800e+01
    1.3489897156e+02    4.8076202393e+01
    1.3499896240e+02    4.7836898804e+01
    1.3509901428e+02    4.7598800659e+01
    1.3519902039e+02    4.7362197876e+01
    1.3529902649e+02    4.7127201080e+01
    1.3539903259e+02    4.6894001007e+01
    1.3549900818e+02    4.6662597656e+01
    1.3559901428e+02    4.6432998657e+01
    1.3569903564e+02    4.6205299377e+01
    1.3579905701e+02    4.5980697632e+01
    1.3589906311e+02    4.5791999817e+01
    1.3599903870e+02    4.5686599731e+01
    1.3609904480e+02    4.5649803162e+01
    1.3619906616e+02    4.5632301331e+01
    1.3629907227e+02    4.5616699219e+01
    1.3639907837e+02    4.5600898743e+01
    1.3649906921e+02    4.5585098267e+01
    1.3659909058e+02    4.5569801331e+01
    1.3669909668e+02    4.5555198669e+01
    1.3679911804e+02    4.5541603088e+01
    1.3689913940e+02    4.5529197693e+01
    1.3699913025e+02    4.5518199921e+01
    1.3709913635e+02    4.5508499146e+01
    1.3719914246e+02    4.5500099182e+01
    1.3729911804e+02    4.5492401123e+01
    1.3739915466e+02    4.5485198975e+01
    1.3749916077e+02    4.5478202820e+01
    1.3759915161e+02    4.5470901489e+01
    1.3769914246e+02    4.5463401794e+01
    1.3779919434e+02    4.5455398560e+01
    1.3789918518e+02    4.5447097778e+01
    1.3799919128e+02    4.5439002991e+01
    1.3809921265e+02    4.5431198120e+01
    1.3819918823e+02    4.5423999786e+01
    1.3829917908e+02    4.5417602539e+01
    1.3839918518e+02    4.5411899567e+01
    1.3849922180e+02    4.5406700134e+01
    1.3859922791e+02    4.5401802063e+01
    1.3869920349e+02    4.5396800995e+01
    1.3879924011e+02    4.5391300201e+01
    1.3889926147e+02    4.5384902954e+01
    1.3899925232e+02    4.5377403259e+01
    1.3909924316e+02    4.5368598938e+01
    1.3919923401e+02    4.5358497620e+01
    1.3929928589e+02    4.5347499847e+01
    1.3939929199e+02    4.5335800171e+01
    1.3949925232e+02    4.5323898315e+01
    1.3959930420e+02    4.5312000275e+01
    1.3969926453e+02    4.5300399780e+01
    1.3979928589e+02    4.5289001465e+01
    1.3989930725e+02    4.5277702332e+01
    1.3999931335e+02    4.5266403198e+01
    1.4009927368e+02    4.5254798889e+01
    1.4019932556e+02    4.5242500305e+01
    1.4029931641e+02    4.5229202271e+01
    1.4039932251e+02    4.5214698792e+01
    1.4049932861e+02    4.5199001312e+01
    1.4059931946e+02    4.5182201385e+01
    1.4069934082e+02    4.5164699554e+01
    1.4079933167e+02    4.5146598816e+01
    1.4089932251e+02    4.5128299713e+01
    1.4099937439e+02    4.5109901428e+01
    1.4109936523e+02    4.5091598511e+01
    1.4119935608e+02    4.5073200226e+01
    1.4129939270e+02    4.5054500580e+01
    1.4139938354e+02    4.5035499573e+01
    1.4149940491e+02    4.5015602112e+01
    1.4159941101e+02    4.4994598389e+01
    1.4169941711e+02    4.4972099304e+01
    1.4179939270e+02    4.4948200226e+01
    1.4189942932e+02    4.4922798157e+01
    1.4199943542e+02    4.4896301270e+01
    1.4209941101e+02    4.4868801117e+01
    1.4219944763e+02    4.4840900421e+01
    1.4229945374e+02    4.4812698364e+01
    1.4239944458e+02    4.4784400940e+01
    1.4249946594e+02    4.4756099701e+01
    1.4259944153e+02    4.4727897644e+01
    1.4269947815e+02    4.4699501038e+01
    1.4279945374e+02    4.4670700073e+01
    1.4289949036e+02    4.4641201019e+01
    1.4299951172e+02    4.4610702515e+01
    1.4309950256e+02    4.4579002380e+01
    1.4319946289e+02    4.4545997620e+01
    1.4329949951e+02    4.4511699677e+01
    1.4339953613e+02    4.4476200104e+01
    1.4349952698e+02    4.4439903259e+01
    1.4359950256e+02    4.4402900696e+01
    1.4369949341e+02    4.4365402222e+01
    1.4379953003e+02    4.4327697754e+01
    1.4389955139e+02    4.4289699554e+01
    1.4399954224e+02    4.4251502991e+01
    1.4409954834e+02    4.4212898254e+01
    1.4419956970e+02    4.4173500061e+01
    1.4429954529e+02    4.4133399963e+01
    1.4439958191e+02    4.4092300415e+01
    1.4449957275e+02    4.4050003052e+01
    1.4459962463e+02    4.4006698608e+01
    1.4469958496e+02    4.3962501526e+01
    1.4479957581e+02    4.3917499542e+01
    1.4489961243e+02    4.3872001648e+01
    1.4499960327e+02    4.3826301575e+01
    1.4509960938e+02    4.3780700684e+01
    1.4519964600e+02    4.3735000610e+01
    1.4529960632e+02    4.3689399719e+01
    1.4539962769e+02    4.3643600464e+01
    1.4549963379e+02    4.3597499847e+01
    1.4559968567e+02    4.3550800323e+01
    1.4569967651e+02    4.3503402710e+01
    1.4579966736e+02    4.3455001831e+01
    1.4589967346e+02    4.3405601501e+01
    1.4599966431e+02    4.3354999542e+01
    1.4609968567e+02    4.3303600311e+01
    1.4619969177e+02    4.3251602173e+01
    1.4629971313e+02    4.3199199677e+01
    1.4639967346e+02    4.3146697998e+01
    1.4649972534e+02    4.3094200134e+01
    1.4659971619e+02    4.3041900635e+01
    1.4669970703e+02    4.2989799500e+01
    1.4679974365e+02    4.2937900543e+01
    1.4689973450e+02    4.2886001587e+01
    1.4699975586e+02    4.2833999634e+01
    1.4709976196e+02    4.2781700134e+01
    1.4719976807e+02    4.2729000092e+01
    1.4729977417e+02    4.2675903320e+01
    1.4739976501e+02    4.2622501373e+01
    1.4749975586e+02    4.2568801880e+01
    1.4759977722e+02    4.2515197754e+01
    1.4769978333e+02    4.2461601257e+01
    1.4779977417e+02    4.2408500671e+01
    1.4789978027e+02    4.2355899811e+01
    1.4799978638e+02    4.2304000854e+01
    1.4809982300e+02    4.2252899170e+01
    1.4819981384e+02    4.2202697754e+01
    1.4829983521e+02    4.2153198242e+01
    1.4839981079e+02    4.2104202271e+01
    1.4849980164e+02    4.2055603027e+01
    1.4859982300e+02    4.2007301331e+01
    1.4869985962e+02    4.1959503174e+01
    1.4879981995e+02    4.1912101746e+01
    1.4889982605e+02    4.1865402222e+01
    1.4899984741e+02    4.1819499969e+01
    1.4909986877e+02    4.1774600983e+01
    1.4919984436e+02    4.1731002808e+01
    1.4929985046e+02    4.1689002991e+01
    1.4939990234e+02    4.1648700714e+01
    1.4949986267e+02    4.1610298157e+01
    1.4959988403e+02    4.1573600769e+01
    1.4969990540e+02    4.1538700104e+01
    1.4979992676e+02    4.1505599976e+01
    1.4989991760e+02    4.1474201202e+01
    1.4999990845e+02    4.1444198608e+01
    1.5009991455e+02    4.1415802002e+01
    1.5019996643e+02    4.1388702393e+01
    1.5029994202e+02    4.1363098145e+01
    1.5039991760e+02    4.1339202881e+01
    1.5049993896e+02    4.1316902161e+01
    1.5059996033e+02    4.1296501160e+01
    1.5069996643e+02    4.1278099060e+01
    1.5079995728e+02    4.1261802673e+01
    1.5089993286e+02    4.1247699738e+01
    1.5099996948e+02    4.1235702515e+01
    1.5109999084e+02    4.1225601196e+01
    1.5119999695e+02    4.1218002319e+01
    1.5130001831e+02    4.1212600708e+01
    1.5139999390e+02    4.1208999634e+01
    1.5149998474e+02    4.1206802368e+01
    1.5160000610e+02    4.1206298828e+01
    1.5170004272e+02    4.1208702087e+01
    1.5180003357e+02    4.1213500977e+01
    1.5190002441e+02    4.1220100403e+01
    1.5200003052e+02    4.1228698730e+01
    1.5210005188e+02    4.1239700317e+01
    1.5220004272e+02    4.1252998352e+01
    1.5230003357e+02    4.1269203186e+01
    1.5240003967e+02    4.1288299561e+01
    1.5250007629e+02    4.1309600830e+01
    1.5260006714e+02    4.1333198547e+01
    1.5270008850e+02    4.1359100342e+01
    1.5280006409e+02    4.1386901855e+01
    1.5290011597e+02    4.1416801453e+01
    1.5300007629e+02    4.1449798584e+01
    1.5310011292e+02    4.1484901428e+01
    1.5320010376e+02    4.1521900177e+01
    1.5330014038e+02    4.1560501099e+01
    1.5340011597e+02    4.1601303101e+01
    1.5350010681e+02    4.1644500732e+01
    1.5360011292e+02    4.1691200256e+01
    1.5370014954e+02    4.1740402222e+01
    1.5380017090e+02    4.1791999817e+01
    1.5390017700e+02    4.1846000671e+01
    1.5400015259e+02    4.1902702332e+01
    1.5410015869e+02    4.1961700439e+01
    1.5420016479e+02    4.2023300171e+01
    1.5430015564e+02    4.2087898254e+01
    1.5440017700e+02    4.2154502869e+01
    1.5450018311e+02    4.2223701477e+01
    1.5460020447e+02    4.2295299530e+01
    1.5470018005e+02    4.2369201660e+01
    1.5480020142e+02    4.2445701599e+01
    1.5490023804e+02    4.2524497986e+01
    1.5500021362e+02    4.2605899811e+01
    1.5510021973e+02    4.2690399170e+01
    1.5520025635e+02    4.2777702332e+01
    1.5530026245e+02    4.2867401123e+01
    1.5540022278e+02    4.2959400177e+01
    1.5550024414e+02    4.3054100037e+01
    1.5560026550e+02    4.3151500702e+01
    1.5570024109e+02    4.3251098633e+01
    1.5580026245e+02    4.3353202820e+01
    1.5590025330e+02    4.3457901001e+01
    1.5600027466e+02    4.3565002441e+01
    1.5610028076e+02    4.3674301147e+01
    1.5620025635e+02    4.3786102295e+01
    1.5630029297e+02    4.3900100708e+01
    1.5640031433e+02    4.4016700745e+01
    1.5650030518e+02    4.4135498047e+01
    1.5660032654e+02    4.4257301331e+01
    1.5670030212e+02    4.4381401062e+01
    1.5680033875e+02    4.4507900238e+01
    1.5690034485e+02    4.4636901855e+01
    1.5700035095e+02    4.4767799377e+01
    1.5710035706e+02    4.4901298523e+01
    1.5720033264e+02    4.5037002563e+01
    1.5730036926e+02    4.5175102234e+01
    1.5740034485e+02    4.5315200806e+01
    1.5750035095e+02    4.5457199097e+01
    1.5760035706e+02    4.5601303101e+01
    1.5770040894e+02    4.5747299194e+01
    1.5780041504e+02    4.5895401001e+01
    1.5790040588e+02    4.6045501709e+01
    1.5800042725e+02    4.6197799683e+01
    1.5810040283e+02    4.6351898193e+01
    1.5820039368e+02    4.6508102417e+01
    1.5830043030e+02    4.6666297913e+01
    1.5840043640e+02    4.6826202393e+01
    1.5850042725e+02    4.6987800598e+01
    1.5860044861e+02    4.7151500702e+01
    1.5870042419e+02    4.7316699982e+01
    1.5880043030e+02    4.7483802795e+01
    1.5890043640e+02    4.7652603149e+01
    1.5900047302e+02    4.7822898865e+01
    1.5910046387e+02    4.7994701385e+01
    1.5920048523e+02    4.8168197632e+01
    1.5930047607e+02    4.8343498230e+01
    1.5940048218e+02    4.8520401001e+01
    1.5950048828e+02    4.8698799133e+01
    1.5960049438e+02    4.8878799438e+01
    1.5970053101e+02    4.9060302734e+01
    1.5980053711e+02    4.9243202209e+01
    1.5990054321e+02    4.9427497864e+01
    1.6000051880e+02    4.9613201141e+01
    1.6010052490e+02    4.9800102234e+01
    1.6020051575e+02    4.9988098145e+01
    1.6030056763e+02    5.0177497864e+01
    1.6040057373e+02    5.0367900848e+01
    1.6050056458e+02    5.0559402466e+01
    1.6060058594e+02    5.0751998901e+01
    1.6070057678e+02    5.0945701599e+01
    1.6080059814e+02    5.1140800476e+01
    1.6090058899e+02    5.1337001801e+01
    1.6100056458e+02    5.1534301758e+01
    1.6110061646e+02    5.1732898712e+01
    1.6120062256e+02    5.1932601929e+01
    1.6130058289e+02    5.2133300781e+01
    1.6140063477e+02    5.2335201263e+01
    1.6150062561e+02    5.2538002014e+01
    1.6160063171e+02    5.2741802216e+01
    1.6170062256e+02    5.2946601868e+01
    1.6180062866e+02    5.3152198792e+01
    1.6190063477e+02    5.3358798981e+01
    1.6200062561e+02    5.3566200256e+01
    1.6210063171e+02    5.3774600983e+01
    1.6220066833e+02    5.3983901978e+01
    1.6230068970e+02    5.4194099426e+01
    1.6240068054e+02    5.4405200958e+01
    1.6250068665e+02    5.4617301941e+01
    1.6260064697e+02    5.4830001831e+01
    1.6270068359e+02    5.5043701172e+01
    1.6280068970e+02    5.5258201599e+01
    1.6290069580e+02    5.5473400116e+01
    1.6300068665e+02    5.5689300537e+01
    1.6310072327e+02    5.5905899048e+01
    1.6320071411e+02    5.6123199463e+01
    1.6330070496e+02    5.6341098785e+01
    1.6340071106e+02    5.6559799194e+01
    1.6350073242e+02    5.6779102325e+01
    1.6360072327e+02    5.6999301910e+01
    1.6370077515e+02    5.7220298767e+01
    1.6380073547e+02    5.7441799164e+01
    1.6390075684e+02    5.7664299011e+01
    1.6400079346e+02    5.7887500763e+01
    1.6410078430e+02    5.8111301422e+01
    1.6420077515e+02    5.8335800171e+01
    1.6430079651e+02    5.8560901642e+01
    1.6440080261e+02    5.8786602020e+01
    1.6450079346e+02    5.9012802124e+01
    1.6460078430e+02    5.9239601135e+01
    1.6470080566e+02    5.9466999054e+01
    1.6480084229e+02    5.9694900513e+01
    1.6490083313e+02    5.9923400879e+01
    1.6500083923e+02    6.0152500153e+01
    1.6510084534e+02    6.0382099152e+01
    1.6520083618e+02    6.0612300873e+01
    1.6530087280e+02    6.0843101501e+01
    1.6540083313e+02    6.1074298859e+01
    1.6550088501e+02    6.1306301117e+01
    1.6560087585e+02    6.1538501740e+01
    1.6570085144e+02    6.1771202087e+01
    1.6580090332e+02    6.2004501343e+01
    1.6590090942e+02    6.2237998962e+01
    1.6600090027e+02    6.2472000122e+01
    1.6610089111e+02    6.2706401825e+01
    1.6620092773e+02    6.2941299438e+01
    1.6630091858e+02    6.3176502228e+01
    1.6640089417e+02    6.3412200928e+01
    1.6650091553e+02    6.3648502350e+01
    1.6660093689e+02    6.3885200500e+01
    1.6670094299e+02    6.4122299194e+01
    1.6680094910e+02    6.4359802246e+01
    1.6690095520e+02    6.4597702026e+01
    1.6700094604e+02    6.4835899353e+01
    1.6710096741e+02    6.5074501038e+01
    1.6720095825e+02    6.5313301086e+01
    1.6730096436e+02    6.5552398682e+01
    1.6740098572e+02    6.5791801453e+01
    1.6750100708e+02    6.6031402588e+01
    1.6760096741e+02    6.6271202087e+01
    1.6770100403e+02    6.6511398315e+01
    1.6780096436e+02    6.6751800537e+01
    1.6790098572e+02    6.6992599487e+01
    1.6800099182e+02    6.7233596802e+01
    1.6810099792e+02    6.7475006104e+01
    1.6820100403e+02    6.7716598511e+01
    1.6830102539e+02    6.7958496094e+01
    1.6840106201e+02    6.8200599670e+01
    1.6850105286e+02    6.8442794800e+01
    1.6860107422e+02    6.8685302734e+01
    1.6870103455e+02    6.8927795410e+01
    1.6880107117e+02    6.9170600891e+01
    1.6890107727e+02    6.9413604736e+01
    1.6900105286e+02    6.9656700134e+01
    1.6910107422e+02    6.9900001526e+01
    1.6920108032e+02    7.0143402100e+01
    1.6930108643e+02    7.0387100220e+01
    1.6940109253e+02    7.0630996704e+01
    1.6950111389e+02    7.0875000000e+01
    1.6960110474e+02    7.1119094849e+01
    1.6970114136e+02    7.1363403320e+01
    1.6980114746e+02    7.1607696533e+01
    1.6990113831e+02    7.1852096558e+01
    1.7000115967e+02    7.2096694946e+01
    1.7010113525e+02    7.2341094971e+01
    1.7020115662e+02    7.2585700989e+01
    1.7030116272e+02    7.2830299377e+01
    1.7040115356e+02    7.3074996948e+01
    1.7050117493e+02    7.3319801331e+01
    1.7060119629e+02    7.3564697266e+01
    1.7070117188e+02    7.3809501648e+01
    1.7080116272e+02    7.4054397583e+01
    1.7090119934e+02    7.4299598694e+01
    1.7100117493e+02    7.4544700623e+01
    1.7110122681e+02    7.4789901733e+01
    1.7120120239e+02    7.5035003662e+01
    1.7130119324e+02    7.5280197144e+01
    1.7140122986e+02    7.5525405884e+01
    1.7150122070e+02    7.5770500183e+01
    1.7160122681e+02    7.6015602112e+01
    1.7170124817e+02    7.6260803223e+01
    1.7180126953e+02    7.6505905151e+01
    1.7190124512e+02    7.6750900269e+01
    1.7200128174e+02    7.6996002197e+01
    1.7210127258e+02    7.7241104126e+01
    1.7220129395e+02    7.7486206055e+01
    1.7230125427e+02    7.7731201172e+01
    1.7240127563e+02    7.7976196289e+01
    1.7250129700e+02    7.8221298218e+01
    1.7260127258e+02    7.8466201782e+01
    1.7270132446e+02    7.8711105347e+01
    1.7280131531e+02    7.8955795288e+01
    1.7290130615e+02    7.9200500488e+01
    1.7300132751e+02    7.9445098877e+01
    1.7310131836e+02    7.9689605713e+01
    1.7320133972e+02    7.9934097290e+01
    1.7330133057e+02    8.0178497314e+01
    1.7340133667e+02    8.0422805786e+01
    1.7350135803e+02    8.0667205811e+01
    1.7360136414e+02    8.0911499023e+01
    1.7370135498e+02    8.1155700684e+01
    1.7380134583e+02    8.1399902344e+01
    1.7390136719e+02    8.1643997192e+01
    1.7400140381e+02    8.1888099670e+01
    1.7410136414e+02    8.2131896973e+01
    1.7420141602e+02    8.2375801086e+01
    1.7430140686e+02    8.2619400024e+01
    1.7440141296e+02    8.2862998962e+01
    1.7450141907e+02    8.3106399536e+01
    1.7460139465e+02    8.3349700928e+01
    1.7470144653e+02    8.3593101501e+01
    1.7480145264e+02    8.3836303711e+01
    1.7490142822e+02    8.4079399109e+01
    1.7500141907e+02    8.4322402954e+01
    1.7510145569e+02    8.4565399170e+01
    1.7520147705e+02    8.4808403015e+01
    1.7530143738e+02    8.5051002502e+01
    1.7540145874e+02    8.5293701172e+01
    1.7550149536e+02    8.5536399841e+01
    1.7560148621e+02    8.5778800964e+01
    1.7570147705e+02    8.6021102905e+01
    1.7580151367e+02    8.6263397217e+01
    1.7590147400e+02    8.6505500793e+01
    1.7600149536e+02    8.6747703552e+01
    1.7610153198e+02    8.6989799500e+01
    1.7620152283e+02    8.7231697083e+01
    1.7630151367e+02    8.7473602295e+01
    1.7640153503e+02    8.7715400696e+01
    1.7650152588e+02    8.7957099915e+01
    1.7660154724e+02    8.8198699951e+01
    1.7670152283e+02    8.8440200806e+01
    1.7680157471e+02    8.8681602478e+01
    1.7690155029e+02    8.8922897339e+01
    1.7700158691e+02    8.9164100647e+01
    1.7710157776e+02    8.9405197144e+01
    1.7720158386e+02    8.9646202087e+01
    1.7730157471e+02    8.9887100220e+01
    1.7740158081e+02    9.0127899170e+01
    1.7750157166e+02    9.0368797302e+01
    1.7760159302e+02    9.0609603882e+01
    1.7770162964e+02    9.0850502014e+01
    1.7780163574e+02    9.1091201782e+01
    1.7790161133e+02    9.1331802368e+01
    1.7800163269e+02    9.1572402954e+01
    1.7810162354e+02    9.1812896729e+01
    1.7820161438e+02    9.2053398132e+01
    1.7830166626e+02    9.2293899536e+01
    1.7840167236e+02    9.2534202576e+01
    1.7850167847e+02    9.2774497986e+01
    1.7860163879e+02    9.3014701843e+01
    1.7870167542e+02    9.3254997253e+01
    1.7880169678e+02    9.3495201111e+01
    1.7890167236e+02    9.3735298157e+01
    1.7900169373e+02    9.3975502014e+01
    1.7910166931e+02    9.4215698242e+01
    1.7920169067e+02    9.4455802917e+01
    1.7930171204e+02    9.4695999146e+01
    1.7940170288e+02    9.4936103821e+01
    1.7950172424e+02    9.5176300049e+01
    1.7960174561e+02    9.5416397095e+01
    1.7970170593e+02    9.5656402588e+01
    1.7980171204e+02    9.5896400452e+01
    1.7990174866e+02    9.6136596680e+01
    1.8000173950e+02    9.6376701355e+01
    1.8010177612e+02    9.6616996765e+01
    1.8020173645e+02    9.6857200623e+01
    1.8030177307e+02    9.7097503662e+01
    1.8040174866e+02    9.7337799072e+01
    1.8050178528e+02    9.7578300476e+01
    1.8060180664e+02    9.7818801880e+01
    1.8070181274e+02    9.8059303284e+01
    1.8080180359e+02    9.8299797058e+01
    1.8090176392e+02    9.8540298462e+01
    1.8100181580e+02    9.8780899048e+01
    1.8110183716e+02    9.9021598816e+01
    1.8120181274e+02    9.9262298584e+01
    1.8130184937e+02    9.9503097534e+01
    1.8140182495e+02    9.9743904114e+01
    1.8150183105e+02    9.9984901428e+01
    1.8160186768e+02    1.0022609711e+02
    1.8170187378e+02    1.0046730042e+02
    1.8180186462e+02    1.0070870209e+02
    1.8190185547e+02    1.0094999695e+02
    1.8200187683e+02    1.0119170380e+02
    1.8210188293e+02    1.0143340302e+02
    1.8220187378e+02    1.0167510223e+02
    1.8230187988e+02    1.0191699982e+02
    1.8240188599e+02    1.0215900421e+02
    1.8250190735e+02    1.0240119934e+02
    1.8260189819e+02    1.0264340210e+02
    1.8270190430e+02    1.0288580322e+02
    1.8280189514e+02    1.0312830353e+02
    1.8290191650e+02    1.0337110138e+02
    1.8300195312e+02    1.0361399841e+02
    1.8310194397e+02    1.0385710144e+02
    1.8320190430e+02    1.0410019684e+02
    1.8330195618e+02    1.0434359741e+02
    1.8340193176e+02    1.0458709717e+02
    1.8350193787e+02    1.0483080292e+02
    1.8360197449e+02    1.0507469940e+02
    1.8370199585e+02    1.0531870270e+02
    1.8380198669e+02    1.0556289673e+02
    1.8390196228e+02    1.0580709839e+02
    1.8400195312e+02    1.0605149841e+02
    1.8410200500e+02    1.0629630280e+02
    1.8420199585e+02    1.0654109955e+02
    1.8430203247e+02    1.0678620148e+02
    1.8440199280e+02    1.0703140259e+02
    1.8450201416e+02    1.0727690125e+02
    1.8460203552e+02    1.0752269745e+02
    1.8470204163e+02    1.0776850128e+02
    1.8480203247e+02    1.0801460266e+02
    1.8490205383e+02    1.0826090240e+02
    1.8500207520e+02    1.0850740051e+02
    1.8510203552e+02    1.0875389862e+02
    1.8520207214e+02    1.0900090027e+02
    1.8530206299e+02    1.0924790192e+02
    1.8540209961e+02    1.0949510193e+02
    1.8550209045e+02    1.0974250031e+02
    1.8560209656e+02    1.0999009705e+02
    1.8570207214e+02    1.1023789978e+02
    1.8580207825e+02    1.1048590088e+02
    1.8590213013e+02    1.1073419952e+02
    1.8600210571e+02    1.1098259735e+02
    1.8610209656e+02    1.1123120117e+02
    1.8620213318e+02    1.1148010254e+02
    1.8630210876e+02    1.1172910309e+02
    1.8640214539e+02    1.1197840118e+02
    1.8650216675e+02    1.1222779846e+02
    1.8660215759e+02    1.1247730255e+02
    1.8670216370e+02    1.1272710419e+02
    1.8680213928e+02    1.1297699738e+02
    1.8690217590e+02    1.1322710419e+02
    1.8700218201e+02    1.1347750092e+02
    1.8710215759e+02    1.1372789764e+02
    1.8720216370e+02    1.1397869873e+02
    1.8730215454e+02    1.1422949982e+02
    1.8740220642e+02    1.1448059845e+02
    1.8750219727e+02    1.1473180389e+02
    1.8760223389e+02    1.1498329926e+02
    1.8770219421e+02    1.1523470306e+02
    1.8780224609e+02    1.1548650360e+02
    1.8790223694e+02    1.1573819733e+02
    1.8800224304e+02    1.1599009705e+02
    1.8810226440e+02    1.1624220276e+02
    1.8820222473e+02    1.1649420166e+02
    1.8830223083e+02    1.1674649811e+02
    1.8840226746e+02    1.1699900055e+02
    1.8850227356e+02    1.1725150299e+02
    1.8860226440e+02    1.1750409698e+02
    1.8870225525e+02    1.1775689697e+02
    1.8880227661e+02    1.1800980377e+02
    1.8890229797e+02    1.1826280212e+02
    1.8900230408e+02    1.1851580048e+02
    1.8910227966e+02    1.1876889801e+02
    1.8920228577e+02    1.1902210236e+02
    1.8930233765e+02    1.1927510071e+02
    1.8940229797e+02    1.1952809906e+02
    1.8950230408e+02    1.1978209686e+02
    1.8960235596e+02    1.2003510284e+02
    1.8970231628e+02    1.2028910065e+02
    1.8980235291e+02    1.2054209900e+02
    1.8990234375e+02    1.2079609680e+02
    1.9000238037e+02    1.2104910278e+02
    1.9010235596e+02    1.2130210114e+02
    1.9020234680e+02    1.2155609894e+02
    1.9030235291e+02    1.2180909729e+02
    1.9040240479e+02    1.2206310272e+02
    1.9050238037e+02    1.2231610107e+02
    1.9060240173e+02    1.2256909943e+02
    1.9070239258e+02    1.2282209778e+02
    1.9080238342e+02    1.2307610321e+02
    1.9090242004e+02    1.2332910156e+02
    1.9100244141e+02    1.2358209991e+02
    1.9110241699e+02    1.2383409882e+02
    1.9120245361e+02    1.2408709717e+02
    1.9130241394e+02    1.2434010315e+02
    1.9140246582e+02    1.2459210205e+02
    1.9150247192e+02    1.2484510040e+02
    1.9160243225e+02    1.2509709930e+02
    1.9170243835e+02    1.2534809875e+02
    1.9180247498e+02    1.2560009766e+02
    1.9190249634e+02    1.2585210419e+02
    1.9200250244e+02    1.2610310364e+02
    1.9210246277e+02    1.2635410309e+02
    1.9220246887e+02    1.2660510254e+02
    1.9230247498e+02    1.2685610199e+02
    1.9240248108e+02    1.2710610199e+02
    1.9250250244e+02    1.2735710144e+02
    1.9260253906e+02    1.2760710144e+02
    1.9270251465e+02    1.2785610199e+02
    1.9280250549e+02    1.2810510254e+02
    1.9290251160e+02    1.2835409546e+02
    1.9300253296e+02    1.2860310364e+02
    1.9310252380e+02    1.2885110474e+02
    1.9320252991e+02    1.2909909058e+02
    1.9330258179e+02    1.2934710693e+02
    1.9340254211e+02    1.2959410095e+02
    1.9350254822e+02    1.2984109497e+02
    1.9360255432e+02    1.3008709717e+02
    1.9370256042e+02    1.3033309937e+02
    1.9380259705e+02    1.3057809448e+02
    1.9390257263e+02    1.3082308960e+02
    1.9400259399e+02    1.3106710815e+02
    1.9410261536e+02    1.3131109619e+02
    1.9420259094e+02    1.3155410767e+02
    1.9430259705e+02    1.3179710388e+02
    1.9440260315e+02    1.3203909302e+02
    1.9450263977e+02    1.3228109741e+02
    1.9460264587e+02    1.3252110291e+02
    1.9470266724e+02    1.3276210022e+02
    1.9480262756e+02    1.3300109863e+02
    1.9490267944e+02    1.3324009705e+02
    1.9500263977e+02    1.3347810364e+02
    1.9510267639e+02    1.3371609497e+02
    1.9520266724e+02    1.3395309448e+02
    1.9530267334e+02    1.3418910217e+02
    1.9540269470e+02    1.3442410278e+02
    1.9550268555e+02    1.3465910339e+02
    1.9560272217e+02    1.3489309692e+02
    1.9570268250e+02    1.3512509155e+02
    1.9580270386e+02    1.3535809326e+02
    1.9590272522e+02    1.3558911133e+02
    1.9600274658e+02    1.3581909180e+02
    1.9610270691e+02    1.3604910278e+02
    1.9620274353e+02    1.3627709961e+02
    1.9630273438e+02    1.3650509644e+02
    1.9640272522e+02    1.3673110962e+02
    1.9650274658e+02    1.3695709229e+02
    1.9660273743e+02    1.3718209839e+02
    1.9670278931e+02    1.3740509033e+02
    1.9680279541e+02    1.3762809753e+02
    1.9690278625e+02    1.3784909058e+02
    1.9700277710e+02    1.3807009888e+02
    1.9710278320e+02    1.3828909302e+02
    1.9720277405e+02    1.3850711060e+02
    1.9730281067e+02    1.3872509766e+02
    1.9740278625e+02    1.3894009399e+02
    1.9750280762e+02    1.3915509033e+02
    1.9760284424e+02    1.3936911011e+02
    1.9770283508e+02    1.3958110046e+02
    1.9780285645e+02    1.3979309082e+02
    1.9790284729e+02    1.4000309753e+02
    1.9800285339e+02    1.4021109009e+02
    1.9810287476e+02    1.4041909790e+02
    1.9820283508e+02    1.4062509155e+02
    1.9830285645e+02    1.4083010864e+02
    1.9840289307e+02    1.4103410339e+02
    1.9850285339e+02    1.4123609924e+02
    1.9860290527e+02    1.4143811035e+02
    1.9870289612e+02    1.4163710022e+02
    1.9880291748e+02    1.4183609009e+02
    1.9890292358e+02    1.4203311157e+02
    1.9900288391e+02    1.4222909546e+02
    1.9910293579e+02    1.4242309570e+02
    1.9920291138e+02    1.4261610413e+02
    1.9930291748e+02    1.4280810547e+02
    1.9940292358e+02    1.4299810791e+02
    1.9950292969e+02    1.4318609619e+02
    1.9960293579e+02    1.4337409973e+02
    1.9970292664e+02    1.4356008911e+02
    1.9980293274e+02    1.4374411011e+02
    1.9990296936e+02    1.4392709351e+02
endcurve
