Curveplot
LS-DYNA keyword deck by LS-PrePost
Abscissa
Ordinate
XY data
NBDLHeadxCoo-1 #pts=2000
* Minval=     3.8422401428e+01 at time=         0.0000000000
* Maxval=     1.5266000366e+02 at time=       149.8999176025
    0.0000000000e+00    3.8422401428e+01
    9.9944598973e-02    3.8422401428e+01
    1.9996425509e-01    3.8422401428e+01
    2.9999533296e-01    3.8422401428e+01
    3.9997607470e-01    3.8422401428e+01
    4.9999448657e-01    3.8422401428e+01
    5.9994393587e-01    3.8422401428e+01
    6.9996356964e-01    3.8422401428e+01
    7.9998320341e-01    3.8422401428e+01
    8.9994591475e-01    3.8422401428e+01
    9.9996554852e-01    3.8422401428e+01
    1.0999852419e+00    3.8422500610e+01
    1.1999479532e+00    3.8422500610e+01
    1.2999674082e+00    3.8422500610e+01
    1.3999912739e+00    3.8422500610e+01
    1.4999824762e+00    3.8422599792e+01
    1.5999728441e+00    3.8422599792e+01
    1.6999641657e+00    3.8422599792e+01
    1.7999557257e+00    3.8422698975e+01
    1.8999993801e+00    3.8422698975e+01
    1.9999600649e+00    3.8422798157e+01
    2.0999886990e+00    3.8422798157e+01
    2.1999990940e+00    3.8422798157e+01
    2.2999684811e+00    3.8422897339e+01
    2.3999474049e+00    3.8423000336e+01
    2.4999949932e+00    3.8423000336e+01
    2.5999643803e+00    3.8423099518e+01
    2.6999690533e+00    3.8423099518e+01
    2.7999846935e+00    3.8423202515e+01
    2.8999958038e+00    3.8423301697e+01
    2.9999637604e+00    3.8423400879e+01
    3.0999591351e+00    3.8423400879e+01
    3.1999502182e+00    3.8423500061e+01
    3.2999463081e+00    3.8423599243e+01
    3.3999750614e+00    3.8423698425e+01
    3.4999859333e+00    3.8423797607e+01
    3.5999767780e+00    3.8423900604e+01
    3.6999676228e+00    3.8423999786e+01
    3.7999918461e+00    3.8424098969e+01
    3.8999633789e+00    3.8424201965e+01
    3.9999721050e+00    3.8424301147e+01
    4.0999627113e+00    3.8424400330e+01
    4.1999535561e+00    3.8424499512e+01
    4.2999978065e+00    3.8424697876e+01
    4.3999686241e+00    3.8424797058e+01
    4.4999489784e+00    3.8424900055e+01
    4.5999608040e+00    3.8424999237e+01
    4.6999511719e+00    3.8425201416e+01
    4.7999525070e+00    3.8425300598e+01
    4.8999967575e+00    3.8425399780e+01
    4.9999876022e+00    3.8425598145e+01
    5.0999779701e+00    3.8425697327e+01
    5.1999683380e+00    3.8425899506e+01
    5.2999591827e+00    3.8426002502e+01
    5.3999495506e+00    3.8426200867e+01
    5.4999938011e+00    3.8426399231e+01
    5.5999841690e+00    3.8426498413e+01
    5.6999745369e+00    3.8426700592e+01
    5.7999649048e+00    3.8426898956e+01
    5.8999552727e+00    3.8427001953e+01
    5.9999780655e+00    3.8427200317e+01
    6.0999684334e+00    3.8427398682e+01
    6.1999588013e+00    3.8427597046e+01
    6.2999491692e+00    3.8427799225e+01
    6.3999929428e+00    3.8428001404e+01
    6.4999833107e+00    3.8428199768e+01
    6.5999736786e+00    3.8428398132e+01
    6.6999635696e+00    3.8428600311e+01
    6.7999539375e+00    3.8428802490e+01
    6.8999438286e+00    3.8429000854e+01
    6.9999704361e+00    3.8429199219e+01
    7.0999603271e+00    3.8429500580e+01
    7.1999711990e+00    3.8429698944e+01
    7.2999610901e+00    3.8429901123e+01
    7.3999509811e+00    3.8430198669e+01
    7.4999947548e+00    3.8430397034e+01
    7.5999894142e+00    3.8430599213e+01
    7.6999793053e+00    3.8430900574e+01
    7.7999706268e+00    3.8431098938e+01
    7.8999605179e+00    3.8431400299e+01
    7.9999504089e+00    3.8431701660e+01
    8.0999412537e+00    3.8431900024e+01
    8.1999473572e+00    3.8432197571e+01
    8.2999553680e+00    3.8432498932e+01
    8.3999452591e+00    3.8432701111e+01
    8.4999885559e+00    3.8432998657e+01
    8.5999851227e+00    3.8433300018e+01
    8.6999931335e+00    3.8433601379e+01
    8.7999963760e+00    3.8433898926e+01
    8.8999862671e+00    3.8434200287e+01
    8.9999837875e+00    3.8434501648e+01
    9.0999450684e+00    3.8434799194e+01
    9.1999454498e+00    3.8435100555e+01
    9.2999687195e+00    3.8435401917e+01
    9.3999614716e+00    3.8435699463e+01
    9.4999790192e+00    3.8436000824e+01
    9.5999679565e+00    3.8436401367e+01
    9.6999616623e+00    3.8436698914e+01
    9.7999525070e+00    3.8437000275e+01
    9.8999986649e+00    3.8437400818e+01
    9.9999589920e+00    3.8437698364e+01
    1.0099974632e+01    3.8437999725e+01
    1.0199993134e+01    3.8438400269e+01
    1.0299958229e+01    3.8438800812e+01
    1.0399975777e+01    3.8439102173e+01
    1.0499998093e+01    3.8439498901e+01
    1.0599979401e+01    3.8439800262e+01
    1.0699996948e+01    3.8440200806e+01
    1.0799956322e+01    3.8440597534e+01
    1.0899974823e+01    3.8441001892e+01
    1.0999995232e+01    3.8441398621e+01
    1.1099957466e+01    3.8441799164e+01
    1.1199976921e+01    3.8442199707e+01
    1.1299972534e+01    3.8442600250e+01
    1.1399987221e+01    3.8443000793e+01
    1.1500006676e+01    3.8443397522e+01
    1.1599991798e+01    3.8443801880e+01
    1.1699994087e+01    3.8444198608e+01
    1.1799964905e+01    3.8444599152e+01
    1.1899985313e+01    3.8445098877e+01
    1.1999995232e+01    3.8445499420e+01
    1.2099961281e+01    3.8445899963e+01
    1.2199981689e+01    3.8446399689e+01
    1.2300006866e+01    3.8446800232e+01
    1.2399971962e+01    3.8447399139e+01
    1.2499966621e+01    3.8447799683e+01
    1.2599990845e+01    3.8448299408e+01
    1.2699966431e+01    3.8448799133e+01
    1.2800002098e+01    3.8449199677e+01
    1.2900010109e+01    3.8449699402e+01
    1.2999999046e+01    3.8450199127e+01
    1.3099964142e+01    3.8450698853e+01
    1.3199986458e+01    3.8451198578e+01
    1.3300000191e+01    3.8451698303e+01
    1.3400010109e+01    3.8452201843e+01
    1.3500013351e+01    3.8452701569e+01
    1.3599993706e+01    3.8453201294e+01
    1.3699990273e+01    3.8453701019e+01
    1.3800011635e+01    3.8454200745e+01
    1.3899984360e+01    3.8454700470e+01
    1.3999992371e+01    3.8455299377e+01
    1.4099980354e+01    3.8455799103e+01
    1.4199975967e+01    3.8456401825e+01
    1.4299979210e+01    3.8456901550e+01
    1.4399997711e+01    3.8457401276e+01
    1.4500013351e+01    3.8458000183e+01
    1.4600005150e+01    3.8458599091e+01
    1.4699995041e+01    3.8459098816e+01
    1.4800007820e+01    3.8459701538e+01
    1.4899974823e+01    3.8460300446e+01
    1.4999975204e+01    3.8460899353e+01
    1.5099987984e+01    3.8461399078e+01
    1.5200018883e+01    3.8462001801e+01
    1.5300013542e+01    3.8462600708e+01
    1.5400007248e+01    3.8463199615e+01
    1.5499974251e+01    3.8463798523e+01
    1.5599998474e+01    3.8464500427e+01
    1.5699972153e+01    3.8465099335e+01
    1.5799974442e+01    3.8465698242e+01
    1.5899971008e+01    3.8466300964e+01
    1.5999975204e+01    3.8466999054e+01
    1.6099973679e+01    3.8467601776e+01
    1.6200006485e+01    3.8468200684e+01
    1.6300010681e+01    3.8468898773e+01
    1.6400014877e+01    3.8469501495e+01
    1.6500000000e+01    3.8470199585e+01
    1.6600023270e+01    3.8470901489e+01
    1.6699985504e+01    3.8471500397e+01
    1.6799982071e+01    3.8472198486e+01
    1.6900016785e+01    3.8472900391e+01
    1.7000009537e+01    3.8473598480e+01
    1.7100009918e+01    3.8474300385e+01
    1.7199981689e+01    3.8474998474e+01
    1.7300006866e+01    3.8475700378e+01
    1.7399982452e+01    3.8476398468e+01
    1.7500015259e+01    3.8477100372e+01
    1.7600019455e+01    3.8477798462e+01
    1.7700025558e+01    3.8478599548e+01
    1.7800016403e+01    3.8479301453e+01
    1.7900003433e+01    3.8479999542e+01
    1.7999990463e+01    3.8480800629e+01
    1.8099992752e+01    3.8481498718e+01
    1.8199981689e+01    3.8482299805e+01
    1.8300031662e+01    3.8483001709e+01
    1.8399997711e+01    3.8483798981e+01
    1.8500011444e+01    3.8484600067e+01
    1.8599992752e+01    3.8485298157e+01
    1.8700002670e+01    3.8486099243e+01
    1.8800020218e+01    3.8486900330e+01
    1.8899986267e+01    3.8487701416e+01
    1.9000026703e+01    3.8488498688e+01
    1.9100011826e+01    3.8489299774e+01
    1.9200017929e+01    3.8490100861e+01
    1.9300018311e+01    3.8490898132e+01
    1.9400028229e+01    3.8491798401e+01
    1.9500015259e+01    3.8492599487e+01
    1.9600013733e+01    3.8493400574e+01
    1.9699987411e+01    3.8494300842e+01
    1.9800020218e+01    3.8495098114e+01
    1.9900037766e+01    3.8495998383e+01
    2.0000005722e+01    3.8496799469e+01
    2.0100034714e+01    3.8497699738e+01
    2.0200014114e+01    3.8498600006e+01
    2.0299999237e+01    3.8499401093e+01
    2.0400007248e+01    3.8500301361e+01
    2.0500019073e+01    3.8501201630e+01
    2.0599998474e+01    3.8502101898e+01
    2.0700006485e+01    3.8502998352e+01
    2.0799995422e+01    3.8503898621e+01
    2.0899990082e+01    3.8504798889e+01
    2.1000034332e+01    3.8505699158e+01
    2.1100015640e+01    3.8506698608e+01
    2.1200038910e+01    3.8507598877e+01
    2.1300004959e+01    3.8508499146e+01
    2.1400022507e+01    3.8509498596e+01
    2.1499994278e+01    3.8510398865e+01
    2.1599990845e+01    3.8511398315e+01
    2.1700023651e+01    3.8512401581e+01
    2.1799999237e+01    3.8513301849e+01
    2.1900041580e+01    3.8514301300e+01
    2.1999994278e+01    3.8515300751e+01
    2.2100027084e+01    3.8516300201e+01
    2.2200004578e+01    3.8517299652e+01
    2.2300018311e+01    3.8518299103e+01
    2.2400022507e+01    3.8519298553e+01
    2.2499998093e+01    3.8520301819e+01
    2.2600006104e+01    3.8521301270e+01
    2.2700002670e+01    3.8522300720e+01
    2.2800024033e+01    3.8523399353e+01
    2.2900039673e+01    3.8524398804e+01
    2.3000043869e+01    3.8525398254e+01
    2.3100019455e+01    3.8526500702e+01
    2.3199998856e+01    3.8527500153e+01
    2.3299999237e+01    3.8528598785e+01
    2.3400014877e+01    3.8529701233e+01
    2.3500032425e+01    3.8530799866e+01
    2.3600002289e+01    3.8531799316e+01
    2.3700012207e+01    3.8532901764e+01
    2.3800052643e+01    3.8534000397e+01
    2.3900043488e+01    3.8535099030e+01
    2.4000041962e+01    3.8536201477e+01
    2.4100042343e+01    3.8537399292e+01
    2.4200017929e+01    3.8538501740e+01
    2.4300045013e+01    3.8539600372e+01
    2.4400018692e+01    3.8540699005e+01
    2.4500036240e+01    3.8541900635e+01
    2.4600017548e+01    3.8542999268e+01
    2.4700019836e+01    3.8544200897e+01
    2.4800006866e+01    3.8545398712e+01
    2.4900009155e+01    3.8546501160e+01
    2.5000051498e+01    3.8547698975e+01
    2.5100006104e+01    3.8548900604e+01
    2.5200023651e+01    3.8550098419e+01
    2.5300012589e+01    3.8551300049e+01
    2.5400016785e+01    3.8552501678e+01
    2.5500057220e+01    3.8553699493e+01
    2.5600027084e+01    3.8554901123e+01
    2.5700035095e+01    3.8556098938e+01
    2.5800041199e+01    3.8557300568e+01
    2.5900043488e+01    3.8558601379e+01
    2.6000030518e+01    3.8559799194e+01
    2.6100057602e+01    3.8561100006e+01
    2.6200042725e+01    3.8562301636e+01
    2.6300006866e+01    3.8563598633e+01
    2.6400060654e+01    3.8564899445e+01
    2.6500038147e+01    3.8566200256e+01
    2.6600036621e+01    3.8567401886e+01
    2.6700027466e+01    3.8568698883e+01
    2.6800064087e+01    3.8569999695e+01
    2.6900037766e+01    3.8571300507e+01
    2.7000019073e+01    3.8572700500e+01
    2.7100023270e+01    3.8574001312e+01
    2.7200037003e+01    3.8575298309e+01
    2.7300058365e+01    3.8576599121e+01
    2.7400056839e+01    3.8577999115e+01
    2.7500038147e+01    3.8579299927e+01
    2.7600061417e+01    3.8580699921e+01
    2.7700059891e+01    3.8582000732e+01
    2.7800041199e+01    3.8583400726e+01
    2.7900033951e+01    3.8584800720e+01
    2.8000045776e+01    3.8586200714e+01
    2.8100055695e+01    3.8587600708e+01
    2.8200017929e+01    3.8589000702e+01
    2.8300058365e+01    3.8590400696e+01
    2.8400060654e+01    3.8591800690e+01
    2.8500051498e+01    3.8593200684e+01
    2.8600057602e+01    3.8594600677e+01
    2.8700029373e+01    3.8596099854e+01
    2.8800016403e+01    3.8597499847e+01
    2.8900026321e+01    3.8598999023e+01
    2.9000022888e+01    3.8600399017e+01
    2.9100055695e+01    3.8601898193e+01
    2.9200065613e+01    3.8603401184e+01
    2.9300071716e+01    3.8604900360e+01
    2.9400056839e+01    3.8606300354e+01
    2.9500066757e+01    3.8607799530e+01
    2.9600055695e+01    3.8609298706e+01
    2.9700067520e+01    3.8610900879e+01
    2.9800060272e+01    3.8612400055e+01
    2.9900045395e+01    3.8613899231e+01
    3.0000043869e+01    3.8615398407e+01
    3.0100057602e+01    3.8617000580e+01
    3.0200044632e+01    3.8618499756e+01
    3.0300058365e+01    3.8620098114e+01
    3.0400037766e+01    3.8621700287e+01
    3.0500059128e+01    3.8623199463e+01
    3.0600036621e+01    3.8624801636e+01
    3.0700078964e+01    3.8626399994e+01
    3.0800029755e+01    3.8627998352e+01
    3.0900072098e+01    3.8629600525e+01
    3.1000074387e+01    3.8631301880e+01
    3.1100078583e+01    3.8632900238e+01
    3.1200065613e+01    3.8634601593e+01
    3.1300065994e+01    3.8636199951e+01
    3.1400072098e+01    3.8637901306e+01
    3.1500032425e+01    3.8639598846e+01
    3.1600046158e+01    3.8641201019e+01
    3.1700067520e+01    3.8642898560e+01
    3.1800041199e+01    3.8644699097e+01
    3.1900066376e+01    3.8646400452e+01
    3.2000034332e+01    3.8648101807e+01
    3.2100028992e+01    3.8649898529e+01
    3.2200054169e+01    3.8651599884e+01
    3.2300022125e+01    3.8653400421e+01
    3.2400024414e+01    3.8655200958e+01
    3.2500053406e+01    3.8657001495e+01
    3.2600044250e+01    3.8658798218e+01
    3.2700027466e+01    3.8660598755e+01
    3.2800041199e+01    3.8662399292e+01
    3.2900028229e+01    3.8664299011e+01
    3.3000053406e+01    3.8666099548e+01
    3.3100013733e+01    3.8667999268e+01
    3.3200042725e+01    3.8669898987e+01
    3.3300029755e+01    3.8671798706e+01
    3.3400005341e+01    3.8673698425e+01
    3.3500019073e+01    3.8675598145e+01
    3.3600021362e+01    3.8677600861e+01
    3.3700050354e+01    3.8679500580e+01
    3.3800022125e+01    3.8681400299e+01
    3.3899997711e+01    3.8683399200e+01
    3.4000007629e+01    3.8685401917e+01
    3.4100006104e+01    3.8687400818e+01
    3.4200016022e+01    3.8689399719e+01
    3.4300003052e+01    3.8691497803e+01
    3.4400009155e+01    3.8693599701e+01
    3.4499988556e+01    3.8695602417e+01
    3.4600025177e+01    3.8697700500e+01
    3.4700008392e+01    3.8699798584e+01
    3.4800018311e+01    3.8701999664e+01
    3.4899982452e+01    3.8704101562e+01
    3.5000019073e+01    3.8706298828e+01
    3.5099998474e+01    3.8708499908e+01
    3.5199977875e+01    3.8710700989e+01
    3.5300014496e+01    3.8712898254e+01
    3.5399997711e+01    3.8715099335e+01
    3.5499977112e+01    3.8717399597e+01
    3.5600017548e+01    3.8719600677e+01
    3.5700000763e+01    3.8721900940e+01
    3.5799983978e+01    3.8724197388e+01
    3.5899967194e+01    3.8726501465e+01
    3.6000011444e+01    3.8728897095e+01
    3.6099994659e+01    3.8731300354e+01
    3.6199981689e+01    3.8733600616e+01
    3.6299968719e+01    3.8735900879e+01
    3.6400012970e+01    3.8738399506e+01
    3.6500000000e+01    3.8740798950e+01
    3.6599990845e+01    3.8743301392e+01
    3.6699977875e+01    3.8745700836e+01
    3.6800006866e+01    3.8748298645e+01
    3.6899997711e+01    3.8750801086e+01
    3.6999988556e+01    3.8753299713e+01
    3.7099979401e+01    3.8755901337e+01
    3.7199974060e+01    3.8758499146e+01
    3.7299968719e+01    3.8761100769e+01
    3.7399959564e+01    3.8763698578e+01
    3.7499954224e+01    3.8766399384e+01
    3.7599952698e+01    3.8769100189e+01
    3.7699947357e+01    3.8771800995e+01
    3.7799945831e+01    3.8774497986e+01
    3.7899944305e+01    3.8777198792e+01
    3.7999942780e+01    3.8779899597e+01
    3.8099941254e+01    3.8782699585e+01
    3.8199954987e+01    3.8785499573e+01
    3.8299980164e+01    3.8788398743e+01
    3.8399944305e+01    3.8791297913e+01
    3.8499946594e+01    3.8794197083e+01
    3.8599952698e+01    3.8797100067e+01
    3.8699954987e+01    3.8799999237e+01
    3.8799961090e+01    3.8803001404e+01
    3.8899944305e+01    3.8805999756e+01
    3.8999954224e+01    3.8808998108e+01
    3.9099960327e+01    3.8812099457e+01
    3.9199970245e+01    3.8815200806e+01
    3.9299919128e+01    3.8818298340e+01
    3.9399929047e+01    3.8821300507e+01
    3.9499942780e+01    3.8824501038e+01
    3.9599952698e+01    3.8827697754e+01
    3.9699909210e+01    3.8830902100e+01
    3.9799919128e+01    3.8834098816e+01
    3.9899936676e+01    3.8837402344e+01
    3.9999950409e+01    3.8840698242e+01
    4.0099906921e+01    3.8844001770e+01
    4.0199924469e+01    3.8847400665e+01
    4.0299942017e+01    3.8850799561e+01
    4.0399902344e+01    3.8854202271e+01
    4.0499923706e+01    3.8857700348e+01
    4.0599945068e+01    3.8861099243e+01
    4.0699909210e+01    3.8864601135e+01
    4.0799930573e+01    3.8868099213e+01
    4.0899898529e+01    3.8871700287e+01
    4.0999919891e+01    3.8875301361e+01
    4.1099891663e+01    3.8878898621e+01
    4.1199916840e+01    3.8882598877e+01
    4.1299938202e+01    3.8886299133e+01
    4.1399906158e+01    3.8889999390e+01
    4.1499912262e+01    3.8893798828e+01
    4.1599910736e+01    3.8897602081e+01
    4.1699916840e+01    3.8901298523e+01
    4.1799892426e+01    3.8905200958e+01
    4.1899925232e+01    3.8909099579e+01
    4.1999927521e+01    3.8913002014e+01
    4.2099880219e+01    3.8916999817e+01
    4.2199874878e+01    3.8920997620e+01
    4.2299911499e+01    3.8924999237e+01
    4.2399887085e+01    3.8929100037e+01
    4.2499881744e+01    3.8933200836e+01
    4.2599872589e+01    3.8937301636e+01
    4.2699913025e+01    3.8941398621e+01
    4.2799892426e+01    3.8945598602e+01
    4.2899906158e+01    3.8949901581e+01
    4.2999866486e+01    3.8954200745e+01
    4.3099864960e+01    3.8958499908e+01
    4.3199905396e+01    3.8962699890e+01
    4.3299896240e+01    3.8967102051e+01
    4.3399906158e+01    3.8971500397e+01
    4.3499904633e+01    3.8975997925e+01
    4.3599903107e+01    3.8980400085e+01
    4.3699871063e+01    3.8985000610e+01
    4.3799854279e+01    3.8989498138e+01
    4.3899856567e+01    3.8994098663e+01
    4.3999881744e+01    3.8998699188e+01
    4.4099880219e+01    3.9003398895e+01
    4.4199855804e+01    3.9008003235e+01
    4.4299884796e+01    3.9012802124e+01
    4.4399879456e+01    3.9017601013e+01
    4.4499874115e+01    3.9022399902e+01
    4.4599887848e+01    3.9027301788e+01
    4.4699867249e+01    3.9032100677e+01
    4.4799854279e+01    3.9037101746e+01
    4.4899856567e+01    3.9041999817e+01
    4.4999862671e+01    3.9047000885e+01
    4.5099861145e+01    3.9052001953e+01
    4.5199829102e+01    3.9057098389e+01
    4.5299839020e+01    3.9062301636e+01
    4.5399833679e+01    3.9067398071e+01
    4.5499862671e+01    3.9072601318e+01
    4.5599861145e+01    3.9077800751e+01
    4.5699825287e+01    3.9083099365e+01
    4.5799861908e+01    3.9088600159e+01
    4.5899852753e+01    3.9093898773e+01
    4.5999828339e+01    3.9099399567e+01
    4.6099845886e+01    3.9104801178e+01
    4.6199813843e+01    3.9110397339e+01
    4.6299831390e+01    3.9115898132e+01
    4.6399841309e+01    3.9121498108e+01
    4.6499816895e+01    3.9127201080e+01
    4.6599845886e+01    3.9132900238e+01
    4.6699817657e+01    3.9138698578e+01
    4.6799839020e+01    3.9144599915e+01
    4.6899833679e+01    3.9150402069e+01
    4.6999851227e+01    3.9156299591e+01
    4.7099819183e+01    3.9162300110e+01
    4.7199829102e+01    3.9168300629e+01
    4.7299823761e+01    3.9174400330e+01
    4.7399799347e+01    3.9180599213e+01
    4.7499832153e+01    3.9186698914e+01
    4.7599822998e+01    3.9193000793e+01
    4.7699790955e+01    3.9199199677e+01
    4.7799808502e+01    3.9205699921e+01
    4.7899818420e+01    3.9212100983e+01
    4.7999816895e+01    3.9218601227e+01
    4.8099826813e+01    3.9225097656e+01
    4.8199798584e+01    3.9231700897e+01
    4.8299812317e+01    3.9238300323e+01
    4.8399833679e+01    3.9245002747e+01
    4.8499801636e+01    3.9251899719e+01
    4.8599807739e+01    3.9258697510e+01
    4.8699787140e+01    3.9265602112e+01
    4.8799808502e+01    3.9272598267e+01
    4.8899772644e+01    3.9279598236e+01
    4.8999816895e+01    3.9286701202e+01
    4.9099796295e+01    3.9293998718e+01
    4.9199798584e+01    3.9301200867e+01
    4.9299785614e+01    3.9308502197e+01
    4.9399795532e+01    3.9315898895e+01
    4.9499809265e+01    3.9323398590e+01
    4.9599769592e+01    3.9331001282e+01
    4.9699779510e+01    3.9338600159e+01
    4.9799777985e+01    3.9346401215e+01
    4.9899795532e+01    3.9354103088e+01
    4.9999755859e+01    3.9361999512e+01
    5.0099773407e+01    3.9369899750e+01
    5.0199802399e+01    3.9377998352e+01
    5.0299770355e+01    3.9386100769e+01
    5.0399787903e+01    3.9394302368e+01
    5.0499778748e+01    3.9402599335e+01
    5.0599777222e+01    3.9411102295e+01
    5.0699756622e+01    3.9419502258e+01
    5.0799793243e+01    3.9428100586e+01
    5.0899768829e+01    3.9436801910e+01
    5.0999755859e+01    3.9445697784e+01
    5.1099761963e+01    3.9454498291e+01
    5.1199775696e+01    3.9463500977e+01
    5.1299762726e+01    3.9472599030e+01
    5.1399753571e+01    3.9481800079e+01
    5.1499767303e+01    3.9491100311e+01
    5.1599781036e+01    3.9500499725e+01
    5.1699752808e+01    3.9509998322e+01
    5.1799747467e+01    3.9519699097e+01
    5.1899772644e+01    3.9529300690e+01
    5.1999767303e+01    3.9539199829e+01
    5.2099773407e+01    3.9549201965e+01
    5.2199741364e+01    3.9559299469e+01
    5.2299732208e+01    3.9569499969e+01
    5.2399734497e+01    3.9579799652e+01
    5.2499744415e+01    3.9590301514e+01
    5.2599720001e+01    3.9600799561e+01
    5.2699741364e+01    3.9611598969e+01
    5.2799755096e+01    3.9622501373e+01
    5.2899726868e+01    3.9633399963e+01
    5.2999748230e+01    3.9644500732e+01
    5.3099720001e+01    3.9655700684e+01
    5.3199737549e+01    3.9667098999e+01
    5.3299716949e+01    3.9678600311e+01
    5.3399730682e+01    3.9690299988e+01
    5.3499729156e+01    3.9702102661e+01
    5.3599716187e+01    3.9714000702e+01
    5.3699737549e+01    3.9726200104e+01
    5.3799747467e+01    3.9738399506e+01
    5.3899715424e+01    3.9750801086e+01
    5.3999702454e+01    3.9763301849e+01
    5.4099727631e+01    3.9776100159e+01
    5.4199737549e+01    3.9789001465e+01
    5.4299690247e+01    3.9801998138e+01
    5.4399738312e+01    3.9815299988e+01
    5.4499713898e+01    3.9828601837e+01
    5.4599712372e+01    3.9842201233e+01
    5.4699718475e+01    3.9855899811e+01
    5.4799732208e+01    3.9869899750e+01
    5.4899726868e+01    3.9883899689e+01
    5.4999710083e+01    3.9898300171e+01
    5.5099720001e+01    3.9912700653e+01
    5.5199687958e+01    3.9927398682e+01
    5.5299724579e+01    3.9942199707e+01
    5.5399719238e+01    3.9957199097e+01
    5.5499713898e+01    3.9972499847e+01
    5.5599720001e+01    3.9987899780e+01
    5.5699714661e+01    4.0003501892e+01
    5.5799701691e+01    4.0019401550e+01
    5.5899688721e+01    4.0035400391e+01
    5.5999675751e+01    4.0051700592e+01
    5.6099685669e+01    4.0068199158e+01
    5.6199699402e+01    4.0084800720e+01
    5.6299701691e+01    4.0101699829e+01
    5.6399692535e+01    4.0118900299e+01
    5.6499679565e+01    4.0136100769e+01
    5.6599666595e+01    4.0153598785e+01
    5.6699699402e+01    4.0171501160e+01
    5.6799682617e+01    4.0189399719e+01
    5.6899658203e+01    4.0207698822e+01
    5.6999691010e+01    4.0226200104e+01
    5.7099689484e+01    4.0244800568e+01
    5.7199672699e+01    4.0263801575e+01
    5.7299678802e+01    4.0282798767e+01
    5.7399669647e+01    4.0302299500e+01
    5.7499683380e+01    4.0321899414e+01
    5.7599636078e+01    4.0341800690e+01
    5.7699680328e+01    4.0361999512e+01
    5.7799652100e+01    4.0382400513e+01
    5.7899650574e+01    4.0402999878e+01
    5.7999675751e+01    4.0423900604e+01
    5.8099666595e+01    4.0445098877e+01
    5.8199680328e+01    4.0466499329e+01
    5.8299674988e+01    4.0488201141e+01
    5.8399658203e+01    4.0510200500e+01
    5.8499664307e+01    4.0532501221e+01
    5.8599628448e+01    4.0554901123e+01
    5.8699661255e+01    4.0577697754e+01
    5.8799648285e+01    4.0600799561e+01
    5.8899635315e+01    4.0624198914e+01
    5.8999656677e+01    4.0647800446e+01
    5.9099666595e+01    4.0671699524e+01
    5.9199638367e+01    4.0695800781e+01
    5.9299659729e+01    4.0720298767e+01
    5.9399612427e+01    4.0744998932e+01
    5.9499660492e+01    4.0770000458e+01
    5.9599655151e+01    4.0795299530e+01
    5.9699638367e+01    4.0820899963e+01
    5.9799640656e+01    4.0846801758e+01
    5.9899620056e+01    4.0872898102e+01
    5.9999607086e+01    4.0899299622e+01
    6.0099605560e+01    4.0926101685e+01
    6.0199642181e+01    4.0953201294e+01
    6.0299617767e+01    4.0980499268e+01
    6.0399608612e+01    4.1007999420e+01
    6.0499595642e+01    4.1035900116e+01
    6.0599624634e+01    4.1064102173e+01
    6.0699592590e+01    4.1092601776e+01
    6.0799587250e+01    4.1121299744e+01
    6.0899589539e+01    4.1150398254e+01
    6.0999614716e+01    4.1179801941e+01
    6.1099609375e+01    4.1209499359e+01
    6.1199615479e+01    4.1239398956e+01
    6.1299617767e+01    4.1269599915e+01
    6.1399612427e+01    4.1300201416e+01
    6.1499626160e+01    4.1331100464e+01
    6.1599624634e+01    4.1362300873e+01
    6.1699623108e+01    4.1393699646e+01
    6.1799625397e+01    4.1425498962e+01
    6.1899574280e+01    4.1457599640e+01
    6.1999584198e+01    4.1489898682e+01
    6.2099597931e+01    4.1522598267e+01
    6.2199581146e+01    4.1555702209e+01
    6.2299617767e+01    4.1588897705e+01
    6.2399608612e+01    4.1622600555e+01
    6.2499588013e+01    4.1656501770e+01
    6.2599590302e+01    4.1690700531e+01
    6.2699581146e+01    4.1725299835e+01
    6.2799606323e+01    4.1760200500e+01
    6.2899585724e+01    4.1795402527e+01
    6.2999565125e+01    4.1830799103e+01
    6.3099601746e+01    4.1866600037e+01
    6.3199550629e+01    4.1902801514e+01
    6.3299560547e+01    4.1939300537e+01
    6.3399555206e+01    4.1975997925e+01
    6.3499595642e+01    4.2013099670e+01
    6.3599552155e+01    4.2050399780e+01
    6.3699581146e+01    4.2088199615e+01
    6.3799549103e+01    4.2126201630e+01
    6.3899566650e+01    4.2164600372e+01
    6.3999565125e+01    4.2203300476e+01
    6.4099548340e+01    4.2242301941e+01
    6.4199577332e+01    4.2281700134e+01
    6.4299545288e+01    4.2321399689e+01
    6.4399551392e+01    4.2361400604e+01
    6.4499565125e+01    4.2401802063e+01
    6.4599571228e+01    4.2442497253e+01
    6.4699569702e+01    4.2483600616e+01
    6.4799552917e+01    4.2524898529e+01
    6.4899566650e+01    4.2566596985e+01
    6.4999542236e+01    4.2608703613e+01
    6.5099548340e+01    4.2651203156e+01
    6.5199569702e+01    4.2694000244e+01
    6.5299552917e+01    4.2737201691e+01
    6.5399536133e+01    4.2780799866e+01
    6.5499542236e+01    4.2824600220e+01
    6.5599533081e+01    4.2868900299e+01
    6.5699546814e+01    4.2913497925e+01
    6.5799537659e+01    4.2958602905e+01
    6.5899528503e+01    4.3003997803e+01
    6.5999526978e+01    4.3049800873e+01
    6.6099540710e+01    4.3095897675e+01
    6.6199523926e+01    4.3142501831e+01
    6.6299514771e+01    4.3189399719e+01
    6.6399528503e+01    4.3236801147e+01
    6.6499511719e+01    4.3284599304e+01
    6.6599548340e+01    4.3332698822e+01
    6.6699531555e+01    4.3381301880e+01
    6.6799507141e+01    4.3430297852e+01
    6.6899543762e+01    4.3479797363e+01
    6.6999542236e+01    4.3529701233e+01
    6.7099502563e+01    4.3579898834e+01
    6.7199508667e+01    4.3630699158e+01
    6.7299507141e+01    4.3681900024e+01
    6.7399528503e+01    4.3733501434e+01
    6.7499511719e+01    4.3785602570e+01
    6.7599540710e+01    4.3838096619e+01
    6.7699516296e+01    4.3891098022e+01
    6.7799522400e+01    4.3944698334e+01
    6.7899482727e+01    4.3998497009e+01
    6.7999526978e+01    4.4053001404e+01
    6.8099517822e+01    4.4108001709e+01
    6.8199493408e+01    4.4163398743e+01
    6.8299499512e+01    4.4219299316e+01
    6.8399497986e+01    4.4275699615e+01
    6.8499511719e+01    4.4332698822e+01
    6.8599502563e+01    4.4390098572e+01
    6.8699478149e+01    4.4448101044e+01
    6.8799468994e+01    4.4506702423e+01
    6.8899482727e+01    4.4565700531e+01
    6.8999496460e+01    4.4625301361e+01
    6.9099494934e+01    4.4685501099e+01
    6.9199493408e+01    4.4746200562e+01
    6.9299507141e+01    4.4807498932e+01
    6.9399490356e+01    4.4869400024e+01
    6.9499496460e+01    4.4931797028e+01
    6.9599472046e+01    4.4994899750e+01
    6.9699455261e+01    4.5058502197e+01
    6.9799484253e+01    4.5122699738e+01
    6.9899452209e+01    4.5187500000e+01
    6.9999458313e+01    4.5252998352e+01
    7.0099472046e+01    4.5319198608e+01
    7.0199493408e+01    4.5385902405e+01
    7.0299461365e+01    4.5453201294e+01
    7.0399452209e+01    4.5521301270e+01
    7.0499488831e+01    4.5590099335e+01
    7.0599441528e+01    4.5659458160e+01
    7.0699493408e+01    4.5729492188e+01
    7.0799484253e+01    4.5800300598e+01
    7.0899475098e+01    4.5871788025e+01
    7.0999473572e+01    4.5943950653e+01
    7.1099449158e+01    4.6016799927e+01
    7.1199455261e+01    4.6090400696e+01
    7.1299438477e+01    4.6164791107e+01
    7.1399459839e+01    4.6239841461e+01
    7.1499435425e+01    4.6315761566e+01
    7.1599449158e+01    4.6392337799e+01
    7.1699440002e+01    4.6469799042e+01
    7.1799438477e+01    4.6548011780e+01
    7.1899452209e+01    4.6626979828e+01
    7.1999435425e+01    4.6706821442e+01
    7.2099433899e+01    4.6787521362e+01
    7.2199470520e+01    4.6869071960e+01
    7.2299430847e+01    4.6951381683e+01
    7.2399459839e+01    4.7034637451e+01
    7.2499450684e+01    4.7118759155e+01
    7.2599456787e+01    4.7203720093e+01
    7.2699455261e+01    4.7289627075e+01
    7.2799446106e+01    4.7376502991e+01
    7.2899436951e+01    4.7464309692e+01
    7.2999427795e+01    4.7553058624e+01
    7.3099441528e+01    4.7642749786e+01
    7.3199394226e+01    4.7733386993e+01
    7.3299446106e+01    4.7825061798e+01
    7.3399414062e+01    4.7917682648e+01
    7.3499397278e+01    4.8011329651e+01
    7.3599403381e+01    4.8106002808e+01
    7.3699417114e+01    4.8201808929e+01
    7.3799407959e+01    4.8298549652e+01
    7.3899444580e+01    4.8396408081e+01
    7.3999412537e+01    4.8495307922e+01
    7.4099395752e+01    4.8595329285e+01
    7.4199424744e+01    4.8696456909e+01
    7.4299438477e+01    4.8798709869e+01
    7.4399414062e+01    4.8901988983e+01
    7.4499404907e+01    4.9006481171e+01
    7.4599380493e+01    4.9111984253e+01
    7.4699424744e+01    4.9218780518e+01
    7.4799415588e+01    4.9326698303e+01
    7.4899406433e+01    4.9435729980e+01
    7.4999389648e+01    4.9545951843e+01
    7.5099380493e+01    4.9657379150e+01
    7.5199417114e+01    4.9770000458e+01
    7.5299407959e+01    4.9883819580e+01
    7.5399391174e+01    4.9998840332e+01
    7.5499382019e+01    5.0115139008e+01
    7.5599403381e+01    5.0232727051e+01
    7.5699401855e+01    5.0351497650e+01
    7.5799362183e+01    5.0471572876e+01
    7.5899398804e+01    5.0592899323e+01
    7.5999359131e+01    5.0715530396e+01
    7.6099372864e+01    5.0839508057e+01
    7.6199356079e+01    5.0964778900e+01
    7.6299354553e+01    5.1091300964e+01
    7.6399353027e+01    5.1219299316e+01
    7.6499366760e+01    5.1348548889e+01
    7.6599388123e+01    5.1479160309e+01
    7.6699394226e+01    5.1611221313e+01
    7.6799362183e+01    5.1744552612e+01
    7.6899375916e+01    5.1879310608e+01
    7.6999359131e+01    5.2015430450e+01
    7.7099349976e+01    5.2152889252e+01
    7.7199348450e+01    5.2291877747e+01
    7.7299369812e+01    5.2432296753e+01
    7.7399345398e+01    5.2574066162e+01
    7.7499374390e+01    5.2717346191e+01
    7.7599349976e+01    5.2862060547e+01
    7.7699356079e+01    5.3008186340e+01
    7.7799362183e+01    5.3155830383e+01
    7.7899330139e+01    5.3304901123e+01
    7.7999366760e+01    5.3455547333e+01
    7.8099365234e+01    5.3607620239e+01
    7.8199363708e+01    5.3761188507e+01
    7.8299346924e+01    5.3916252136e+01
    7.8399337769e+01    5.4072910309e+01
    7.8499320984e+01    5.4230949402e+01
    7.8599349976e+01    5.4390659332e+01
    7.8699348450e+01    5.4551849365e+01
    7.8799331665e+01    5.4714527130e+01
    7.8899360657e+01    5.4878852844e+01
    7.8999351501e+01    5.5044662476e+01
    7.9099342346e+01    5.5212009430e+01
    7.9199356079e+01    5.5380920410e+01
    7.9299339294e+01    5.5551391602e+01
    7.9399322510e+01    5.5723388672e+01
    7.9499305725e+01    5.5897029877e+01
    7.9599304199e+01    5.6072299957e+01
    7.9699317932e+01    5.6249099731e+01
    7.9799324036e+01    5.6427509308e+01
    7.9899330139e+01    5.6607650757e+01
    7.9999298096e+01    5.6789207458e+01
    8.0099319458e+01    5.6972457886e+01
    8.0199302673e+01    5.7157321930e+01
    8.0299331665e+01    5.7343959808e+01
    8.0399291992e+01    5.7532020569e+01
    8.0499320984e+01    5.7721828461e+01
    8.0599288940e+01    5.7913337708e+01
    8.0699310303e+01    5.8106510162e+01
    8.0799331665e+01    5.8301342010e+01
    8.0899322510e+01    5.8497848511e+01
    8.0999298096e+01    5.8695999146e+01
    8.1099281311e+01    5.8895912170e+01
    8.1199295044e+01    5.9097553253e+01
    8.1299278259e+01    5.9300830841e+01
    8.1399299622e+01    5.9506027222e+01
    8.1499328613e+01    5.9712841034e+01
    8.1599281311e+01    5.9921302795e+01
    8.1699317932e+01    6.0131736755e+01
    8.1799270630e+01    6.0343708038e+01
    8.1899307251e+01    6.0557640076e+01
    8.1999290466e+01    6.0773181915e+01
    8.2099319458e+01    6.0990589142e+01
    8.2199272156e+01    6.1209690094e+01
    8.2299293518e+01    6.1430740356e+01
    8.2399307251e+01    6.1653541565e+01
    8.2499275208e+01    6.1878021240e+01
    8.2599281311e+01    6.2104419708e+01
    8.2699264526e+01    6.2332569122e+01
    8.2799285889e+01    6.2562732697e+01
    8.2899276733e+01    6.2794521332e+01
    8.2999275208e+01    6.3028221130e+01
    8.3099266052e+01    6.3263732910e+01
    8.3199249268e+01    6.3501129150e+01
    8.3299247742e+01    6.3740318298e+01
    8.3399253845e+01    6.3981380463e+01
    8.3499282837e+01    6.4224388123e+01
    8.3599250793e+01    6.4469100952e+01
    8.3699287415e+01    6.4715820312e+01
    8.3799247742e+01    6.4964218140e+01
    8.3899269104e+01    6.5214622498e+01
    8.3999259949e+01    6.5466758728e+01
    8.4099281311e+01    6.5720878601e+01
    8.4199249268e+01    6.5976638794e+01
    8.4299263000e+01    6.6234451294e+01
    8.4399238586e+01    6.6494071960e+01
    8.4499259949e+01    6.6755630493e+01
    8.4599243164e+01    6.7018959045e+01
    8.4699241638e+01    6.7284217834e+01
    8.4799240112e+01    6.7551422119e+01
    8.4899261475e+01    6.7820533752e+01
    8.4999259949e+01    6.8091560364e+01
    8.5099243164e+01    6.8364402771e+01
    8.5199234009e+01    6.8639175415e+01
    8.5299224854e+01    6.8915786743e+01
    8.5399215698e+01    6.9194122314e+01
    8.5499214172e+01    6.9474227905e+01
    8.5599243164e+01    6.9756164551e+01
    8.5699249268e+01    7.0039604187e+01
    8.5799247742e+01    7.0324668884e+01
    8.5899253845e+01    7.0611404419e+01
    8.5999206543e+01    7.0899520874e+01
    8.6099235535e+01    7.1189651489e+01
    8.6199241638e+01    7.1481430054e+01
    8.6299201965e+01    7.1774772644e+01
    8.6399215698e+01    7.2070007324e+01
    8.6499206543e+01    7.2366950989e+01
    8.6599235535e+01    7.2665817261e+01
    8.6699218750e+01    7.2966423035e+01
    8.6799232483e+01    7.3268798828e+01
    8.6899200439e+01    7.3572898865e+01
    8.6999229431e+01    7.3879043579e+01
    8.7099205017e+01    7.4186798096e+01
    8.7199195862e+01    7.4496330261e+01
    8.7299194336e+01    7.4807723999e+01
    8.7399208069e+01    7.5120834351e+01
    8.7499221802e+01    7.5435714722e+01
    8.7599197388e+01    7.5752090454e+01
    8.7699218750e+01    7.6070343018e+01
    8.7799194336e+01    7.6389991760e+01
    8.7899177551e+01    7.6711265564e+01
    8.7999198914e+01    7.7034179688e+01
    8.8099174500e+01    7.7358505249e+01
    8.8199172974e+01    7.7684257507e+01
    8.8299209595e+01    7.8011619568e+01
    8.8399177551e+01    7.8340110779e+01
    8.8499198914e+01    7.8670280457e+01
    8.8599174500e+01    7.9001792908e+01
    8.8699165344e+01    7.9334716797e+01
    8.8799217224e+01    7.9669250488e+01
    8.8899192810e+01    8.0004997253e+01
    8.8999160767e+01    8.0342102051e+01
    8.9099166870e+01    8.0680778503e+01
    8.9199203491e+01    8.1020820618e+01
    8.9299201965e+01    8.1362045288e+01
    8.9399185181e+01    8.1704505920e+01
    8.9499168396e+01    8.2048034668e+01
    8.9599174500e+01    8.2392852783e+01
    8.9699142456e+01    8.2738502502e+01
    8.9799163818e+01    8.3085319519e+01
    8.9899169922e+01    8.3433128357e+01
    8.9999168396e+01    8.3781814575e+01
    9.0099143982e+01    8.4131156921e+01
    9.0199150085e+01    8.4481559753e+01
    9.0299148560e+01    8.4832557678e+01
    9.0399177551e+01    8.5184371948e+01
    9.0499176025e+01    8.5536842346e+01
    9.0599166870e+01    8.5889854431e+01
    9.0699157715e+01    8.6243591309e+01
    9.0799133301e+01    8.6597778320e+01
    9.0899154663e+01    8.6952850342e+01
    9.0999130249e+01    8.7308235168e+01
    9.1099136353e+01    8.7664367676e+01
    9.1199150085e+01    8.8021156311e+01
    9.1299171448e+01    8.8378433228e+01
    9.1399177551e+01    8.8736213684e+01
    9.1499122620e+01    8.9094253540e+01
    9.1599121094e+01    8.9452980042e+01
    9.1699150085e+01    8.9812225342e+01
    9.1799148560e+01    9.0171768188e+01
    9.1899116516e+01    9.0531478882e+01
    9.1999153137e+01    9.0891769409e+01
    9.2099159241e+01    9.1252151489e+01
    9.2199127197e+01    9.1612464905e+01
    9.2299118042e+01    9.1972885132e+01
    9.2399116516e+01    9.2333282471e+01
    9.2499107361e+01    9.2693504333e+01
    9.2599121094e+01    9.3053619385e+01
    9.2699119568e+01    9.3413429260e+01
    9.2799148560e+01    9.3772949219e+01
    9.2899108887e+01    9.4131958008e+01
    9.2999130249e+01    9.4490821838e+01
    9.3099136353e+01    9.4849159241e+01
    9.3199142456e+01    9.5206977844e+01
    9.3299140930e+01    9.5564346313e+01
    9.3399108887e+01    9.5921035767e+01
    9.3499137878e+01    9.6277427673e+01
    9.3599128723e+01    9.6633110046e+01
    9.3699134827e+01    9.6988029480e+01
    9.3799102783e+01    9.7341659546e+01
    9.3899124146e+01    9.7694763184e+01
    9.3999122620e+01    9.8047470093e+01
    9.4099113464e+01    9.8398712158e+01
    9.4199089050e+01    9.8748489380e+01
    9.4299095154e+01    9.9097679138e+01
    9.4399093628e+01    9.9445350647e+01
    9.4499084473e+01    9.9792503357e+01
    9.4599105835e+01    1.0013803101e+02
    9.4699104309e+01    1.0048203278e+02
    9.4799125671e+01    1.0082440948e+02
    9.4899108887e+01    1.0116529846e+02
    9.4999069214e+01    1.0150466156e+02
    9.5099067688e+01    1.0184236145e+02
    9.5199104309e+01    1.0217939758e+02
    9.5299095154e+01    1.0251394653e+02
    9.5399085999e+01    1.0284694672e+02
    9.5499099731e+01    1.0317834473e+02
    9.5599067688e+01    1.0350826263e+02
    9.5699096680e+01    1.0383545685e+02
    9.5799102783e+01    1.0416214752e+02
    9.5899093628e+01    1.0448630524e+02
    9.5999061584e+01    1.0480889130e+02
    9.6099052429e+01    1.0512877655e+02
    9.6199050903e+01    1.0544799042e+02
    9.6299087524e+01    1.0576441193e+02
    9.6399078369e+01    1.0607820129e+02
    9.6499076843e+01    1.0639020538e+02
    9.6599067688e+01    1.0670039368e+02
    9.6699081421e+01    1.0700869751e+02
    9.6799064636e+01    1.0731320190e+02
    9.6899085999e+01    1.0761680603e+02
    9.6999076843e+01    1.0791760254e+02
    9.7099029541e+01    1.0821559906e+02
    9.7199081421e+01    1.0851239777e+02
    9.7299064636e+01    1.0880559540e+02
    9.7399078369e+01    1.0909669495e+02
    9.7499031067e+01    1.0938520050e+02
    9.7599044800e+01    1.0967160034e+02
    9.7699028015e+01    1.0995520020e+02
    9.7799034119e+01    1.1023680115e+02
    9.7899032593e+01    1.1051550293e+02
    9.7999053955e+01    1.1079220581e+02
    9.8099014282e+01    1.1106610107e+02
    9.8199066162e+01    1.1133779907e+02
    9.8299064636e+01    1.1160669708e+02
    9.8399032593e+01    1.1187260437e+02
    9.8499038696e+01    1.1213650513e+02
    9.8599021912e+01    1.1239839935e+02
    9.8699058533e+01    1.1265720367e+02
    9.8799049377e+01    1.1291310120e+02
    9.8899009705e+01    1.1316609192e+02
    9.8999046326e+01    1.1341790009e+02
    9.9099029541e+01    1.1366589355e+02
    9.9199050903e+01    1.1391280365e+02
    9.9299041748e+01    1.1415589142e+02
    9.9399047852e+01    1.1439690399e+02
    9.9499038696e+01    1.1463610840e+02
    9.9599029541e+01    1.1487129974e+02
    9.9699028015e+01    1.1510549927e+02
    9.9798988342e+01    1.1533589935e+02
    9.9899002075e+01    1.1556510162e+02
    9.9999015808e+01    1.1579139709e+02
    1.0009902954e+02    1.1601470184e+02
    1.0019902802e+02    1.1623609924e+02
    1.0029900360e+02    1.1645460510e+02
    1.0039898682e+02    1.1667100525e+02
    1.0049903107e+02    1.1688519287e+02
    1.0059900665e+02    1.1709660339e+02
    1.0069898987e+02    1.1730489349e+02
    1.0079898834e+02    1.1751219940e+02
    1.0089898682e+02    1.1771630859e+02
    1.0099900055e+02    1.1791830444e+02
    1.0109902191e+02    1.1811720276e+02
    1.0119898224e+02    1.1831430817e+02
    1.0129900360e+02    1.1850900269e+02
    1.0139897919e+02    1.1870188904e+02
    1.0149896240e+02    1.1889270020e+02
    1.0159900665e+02    1.1908020020e+02
    1.0169896698e+02    1.1926600647e+02
    1.0179898071e+02    1.1945050049e+02
    1.0189898682e+02    1.1963200378e+02
    1.0199897766e+02    1.1981159973e+02
    1.0209896088e+02    1.1998919678e+02
    1.0219898987e+02    1.2016569519e+02
    1.0229897308e+02    1.2033929443e+02
    1.0239900208e+02    1.2051070404e+02
    1.0249899292e+02    1.2068129730e+02
    1.0259899139e+02    1.2084899902e+02
    1.0269899750e+02    1.2101570129e+02
    1.0279898071e+02    1.2118060303e+02
    1.0289897919e+02    1.2134459686e+02
    1.0299896240e+02    1.2150560760e+02
    1.0309899139e+02    1.2166560364e+02
    1.0319895172e+02    1.2182400513e+02
    1.0329894257e+02    1.2198039246e+02
    1.0339894867e+02    1.2213580322e+02
    1.0349899292e+02    1.2229009247e+02
    1.0359896088e+02    1.2244180298e+02
    1.0369895935e+02    1.2259260559e+02
    1.0379898071e+02    1.2274229431e+02
    1.0389894104e+02    1.2289040375e+02
    1.0399897003e+02    1.2303729248e+02
    1.0409893036e+02    1.2318249512e+02
    1.0419896698e+02    1.2332549286e+02
    1.0429894257e+02    1.2346800232e+02
    1.0439894104e+02    1.2360951233e+02
    1.0449897003e+02    1.2374989319e+02
    1.0459893799e+02    1.2388780212e+02
    1.0469891357e+02    1.2402580261e+02
    1.0479895020e+02    1.2416180420e+02
    1.0489891815e+02    1.2429710388e+02
    1.0499894714e+02    1.2443039703e+02
    1.0509892273e+02    1.2456320190e+02
    1.0519893646e+02    1.2469490051e+02
    1.0529895020e+02    1.2482580566e+02
    1.0539894104e+02    1.2495510101e+02
    1.0549893951e+02    1.2508349609e+02
    1.0559892273e+02    1.2521020508e+02
    1.0569892120e+02    1.2533599854e+02
    1.0579895020e+02    1.2546100616e+02
    1.0589891052e+02    1.2558560181e+02
    1.0599893188e+02    1.2570819855e+02
    1.0609889984e+02    1.2583020020e+02
    1.0619892883e+02    1.2595129395e+02
    1.0629889679e+02    1.2607199860e+02
    1.0639891052e+02    1.2619079590e+02
    1.0649890137e+02    1.2630910492e+02
    1.0659893036e+02    1.2642550659e+02
    1.0669891357e+02    1.2654260254e+02
    1.0679891968e+02    1.2665779877e+02
    1.0689890289e+02    1.2677160645e+02
    1.0699891663e+02    1.2688549805e+02
    1.0709889984e+02    1.2699799347e+02
    1.0719888306e+02    1.2710890198e+02
    1.0729891205e+02    1.2721990967e+02
    1.0739891815e+02    1.2732939911e+02
    1.0749887848e+02    1.2743849182e+02
    1.0759889221e+02    1.2754679871e+02
    1.0769891357e+02    1.2765330505e+02
    1.0779891968e+02    1.2775930023e+02
    1.0789887238e+02    1.2786499023e+02
    1.0799890900e+02    1.2796870422e+02
    1.0809889221e+02    1.2807209778e+02
    1.0819889069e+02    1.2817489624e+02
    1.0829891968e+02    1.2827589417e+02
    1.0839888763e+02    1.2837670898e+02
    1.0849890137e+02    1.2847680664e+02
    1.0859887695e+02    1.2857539368e+02
    1.0869886780e+02    1.2867349243e+02
    1.0879888153e+02    1.2876998901e+02
    1.0889888763e+02    1.2886610413e+02
    1.0899887085e+02    1.2896179199e+02
    1.0909886169e+02    1.2905609131e+02
    1.0919886780e+02    1.2914981079e+02
    1.0929888916e+02    1.2924209595e+02
    1.0939884949e+02    1.2933430481e+02
    1.0949889374e+02    1.2942469788e+02
    1.0959886169e+02    1.2951519775e+02
    1.0969886017e+02    1.2960418701e+02
    1.0979886627e+02    1.2969279480e+02
    1.0989884186e+02    1.2978030396e+02
    1.0999884796e+02    1.2986729431e+02
    1.1009884644e+02    1.2995410156e+02
    1.1019886017e+02    1.3003950500e+02
    1.1029888153e+02    1.3012370300e+02
    1.1039884949e+02    1.3020689392e+02
    1.1049884796e+02    1.3028970337e+02
    1.1059887695e+02    1.3037210083e+02
    1.1069886780e+02    1.3045361328e+02
    1.1079885101e+02    1.3053390503e+02
    1.1089885712e+02    1.3061279297e+02
    1.1099886322e+02    1.3069158936e+02
    1.1109883118e+02    1.3076950073e+02
    1.1119882202e+02    1.3084689331e+02
    1.1129884338e+02    1.3092309570e+02
    1.1139885712e+02    1.3099810791e+02
    1.1149887085e+02    1.3107299805e+02
    1.1159886169e+02    1.3114590454e+02
    1.1169886017e+02    1.3121859741e+02
    1.1179884338e+02    1.3129130554e+02
    1.1189884949e+02    1.3136180115e+02
    1.1199881744e+02    1.3143229675e+02
    1.1209880066e+02    1.3150170898e+02
    1.1219883728e+02    1.3156970215e+02
    1.1229882812e+02    1.3163790894e+02
    1.1239882660e+02    1.3170390320e+02
    1.1249880981e+02    1.3177009583e+02
    1.1259883118e+02    1.3183599854e+02
    1.1269883728e+02    1.3189990234e+02
    1.1279884338e+02    1.3196389771e+02
    1.1289882660e+02    1.3202590942e+02
    1.1299884033e+02    1.3208779907e+02
    1.1309880829e+02    1.3214889526e+02
    1.1319882965e+02    1.3220880127e+02
    1.1329881287e+02    1.3226779175e+02
    1.1339881897e+02    1.3232670593e+02
    1.1349878693e+02    1.3238389587e+02
    1.1359879303e+02    1.3244090271e+02
    1.1369882965e+02    1.3249661255e+02
    1.1379882050e+02    1.3255158997e+02
    1.1389881134e+02    1.3260560608e+02
    1.1399877930e+02    1.3265899658e+02
    1.1409877777e+02    1.3271099854e+02
    1.1419879913e+02    1.3276300049e+02
    1.1429875946e+02    1.3281399536e+02
    1.1439880371e+02    1.3286500549e+02
    1.1449880981e+02    1.3291400146e+02
    1.1459879303e+02    1.3296398926e+02
    1.1469876099e+02    1.3301100159e+02
    1.1479876709e+02    1.3305899048e+02
    1.1489878845e+02    1.3310598755e+02
    1.1499877167e+02    1.3315200806e+02
    1.1509879303e+02    1.3319799805e+02
    1.1519877625e+02    1.3324200439e+02
    1.1529879761e+02    1.3328601074e+02
    1.1539875793e+02    1.3332901001e+02
    1.1549874878e+02    1.3337200928e+02
    1.1559879303e+02    1.3341299438e+02
    1.1569876099e+02    1.3345401001e+02
    1.1579879761e+02    1.3349499512e+02
    1.1589875793e+02    1.3353399658e+02
    1.1599874878e+02    1.3357299805e+02
    1.1609880066e+02    1.3361199951e+02
    1.1619876862e+02    1.3364898682e+02
    1.1629875946e+02    1.3368600464e+02
    1.1639875793e+02    1.3372200012e+02
    1.1649874115e+02    1.3375700378e+02
    1.1659876251e+02    1.3379299927e+02
    1.1669876099e+02    1.3382699585e+02
    1.1679876709e+02    1.3386099243e+02
    1.1689877319e+02    1.3389399719e+02
    1.1699877167e+02    1.3392700195e+02
    1.1709873199e+02    1.3395901489e+02
    1.1719876862e+02    1.3399200439e+02
    1.1729876709e+02    1.3402499390e+02
    1.1739874268e+02    1.3405700684e+02
    1.1749875641e+02    1.3409098816e+02
    1.1759873962e+02    1.3412300110e+02
    1.1769872284e+02    1.3415600586e+02
    1.1779872894e+02    1.3418800354e+02
    1.1789874268e+02    1.3422001648e+02
    1.1799871826e+02    1.3425199890e+02
    1.1809873962e+02    1.3428298950e+02
    1.1819875336e+02    1.3431498718e+02
    1.1829869843e+02    1.3434700012e+02
    1.1839875793e+02    1.3437698364e+02
    1.1849871063e+02    1.3440800476e+02
    1.1859873962e+02    1.3443901062e+02
    1.1869873810e+02    1.3447001648e+02
    1.1879872131e+02    1.3450000000e+02
    1.1889871216e+02    1.3452998352e+02
    1.1899873352e+02    1.3455998230e+02
    1.1909870911e+02    1.3458898926e+02
    1.1919872284e+02    1.3461801147e+02
    1.1929873657e+02    1.3464599609e+02
    1.1939869690e+02    1.3467498779e+02
    1.1949874115e+02    1.3470399475e+02
    1.1959868622e+02    1.3473300171e+02
    1.1969869232e+02    1.3476199341e+02
    1.1979872131e+02    1.3478997803e+02
    1.1989871216e+02    1.3481898499e+02
    1.1999873352e+02    1.3484599304e+02
    1.2009870911e+02    1.3487400818e+02
    1.2019869995e+02    1.3490098572e+02
    1.2029869843e+02    1.3492898560e+02
    1.2039871216e+02    1.3495599365e+02
    1.2049868774e+02    1.3498298645e+02
    1.2059867859e+02    1.3501000977e+02
    1.2069870758e+02    1.3503599548e+02
    1.2079869080e+02    1.3506399536e+02
    1.2089868164e+02    1.3509199524e+02
    1.2099870300e+02    1.3511900330e+02
    1.2109867859e+02    1.3514698792e+02
    1.2119869232e+02    1.3517501831e+02
    1.2129866791e+02    1.3520201111e+02
    1.2139869690e+02    1.3522898865e+02
    1.2149871063e+02    1.3525599670e+02
    1.2159867096e+02    1.3528300476e+02
    1.2169866180e+02    1.3530900574e+02
    1.2179866028e+02    1.3533500671e+02
    1.2189865875e+02    1.3536100769e+02
    1.2199870300e+02    1.3538598633e+02
    1.2209867096e+02    1.3541101074e+02
    1.2219867706e+02    1.3543299866e+02
    1.2229869843e+02    1.3545700073e+02
    1.2239865112e+02    1.3547900391e+02
    1.2249865723e+02    1.3550100708e+02
    1.2259870148e+02    1.3552198792e+02
    1.2269866943e+02    1.3554301453e+02
    1.2279865265e+02    1.3556298828e+02
    1.2289865875e+02    1.3558299255e+02
    1.2299867249e+02    1.3560200500e+02
    1.2309867096e+02    1.3562200928e+02
    1.2319866180e+02    1.3564100647e+02
    1.2329865265e+02    1.3565998840e+02
    1.2339866638e+02    1.3567799377e+02
    1.2349867249e+02    1.3569599915e+02
    1.2359867859e+02    1.3571398926e+02
    1.2369863892e+02    1.3573199463e+02
    1.2379868317e+02    1.3575100708e+02
    1.2389865875e+02    1.3576899719e+02
    1.2399862671e+02    1.3578700256e+02
    1.2409867096e+02    1.3580400085e+02
    1.2419863129e+02    1.3582199097e+02
    1.2429862213e+02    1.3583900452e+02
    1.2439862061e+02    1.3585700989e+02
    1.2449867249e+02    1.3587298584e+02
    1.2459866333e+02    1.3588900757e+02
    1.2469863892e+02    1.3590499878e+02
    1.2479866028e+02    1.3591999817e+02
    1.2489859772e+02    1.3593399048e+02
    1.2499861145e+02    1.3594900513e+02
    1.2509863281e+02    1.3596200562e+02
    1.2519863892e+02    1.3597500610e+02
    1.2529863739e+02    1.3598699951e+02
    1.2539865112e+02    1.3599899292e+02
    1.2549859619e+02    1.3601000977e+02
    1.2559861755e+02    1.3602101135e+02
    1.2569860077e+02    1.3603100586e+02
    1.2579860687e+02    1.3604100037e+02
    1.2589862823e+02    1.3604998779e+02
    1.2599859619e+02    1.3605998230e+02
    1.2609860229e+02    1.3606799316e+02
    1.2619863129e+02    1.3607701111e+02
    1.2629860687e+02    1.3608399963e+02
    1.2639858246e+02    1.3609199524e+02
    1.2649861908e+02    1.3609899902e+02
    1.2659860229e+02    1.3610598755e+02
    1.2669863129e+02    1.3611401367e+02
    1.2679859161e+02    1.3612100220e+02
    1.2689862061e+02    1.3612899780e+02
    1.2699858856e+02    1.3613601685e+02
    1.2709857941e+02    1.3614500427e+02
    1.2719859314e+02    1.3615197754e+02
    1.2729859924e+02    1.3615899658e+02
    1.2739859009e+02    1.3616699219e+02
    1.2749858093e+02    1.3617399597e+02
    1.2759857941e+02    1.3618099976e+02
    1.2769857025e+02    1.3618800354e+02
    1.2779857635e+02    1.3619400024e+02
    1.2789862061e+02    1.3619999695e+02
    1.2799861145e+02    1.3620599365e+02
    1.2809860229e+02    1.3621200562e+02
    1.2819860840e+02    1.3621798706e+02
    1.2829858398e+02    1.3622299194e+02
    1.2839859009e+02    1.3622798157e+02
    1.2849862671e+02    1.3623399353e+02
    1.2859858704e+02    1.3623799133e+02
    1.2869862366e+02    1.3624301147e+02
    1.2879864502e+02    1.3624800110e+02
    1.2889862061e+02    1.3625201416e+02
    1.2899862671e+02    1.3625799561e+02
    1.2909863281e+02    1.3626399231e+02
    1.2919866943e+02    1.3626799011e+02
    1.2929864502e+02    1.3627401733e+02
    1.2939866638e+02    1.3628100586e+02
    1.2949867249e+02    1.3628800964e+02
    1.2959867859e+02    1.3629399109e+02
    1.2969868469e+02    1.3630198669e+02
    1.2979864502e+02    1.3630899048e+02
    1.2989869690e+02    1.3631700134e+02
    1.2999867249e+02    1.3632600403e+02
    1.3009869385e+02    1.3633399963e+02
    1.3019869995e+02    1.3634301758e+02
    1.3029869080e+02    1.3635200500e+02
    1.3039872742e+02    1.3636100769e+02
    1.3049874878e+02    1.3636999512e+02
    1.3059872437e+02    1.3637998962e+02
    1.3069874573e+02    1.3638899231e+02
    1.3079872131e+02    1.3639801025e+02
    1.3089874268e+02    1.3640901184e+02
    1.3099873352e+02    1.3641900635e+02
    1.3109877014e+02    1.3642900085e+02
    1.3119876099e+02    1.3644099426e+02
    1.3129876709e+02    1.3645100403e+02
    1.3139877319e+02    1.3646299744e+02
    1.3149879456e+02    1.3647599792e+02
    1.3159875488e+02    1.3648800659e+02
    1.3169882202e+02    1.3650300598e+02
    1.3179878235e+02    1.3651599121e+02
    1.3189880371e+02    1.3653100586e+02
    1.3199882507e+02    1.3654602051e+02
    1.3209884644e+02    1.3656199646e+02
    1.3219883728e+02    1.3658001709e+02
    1.3229882812e+02    1.3659701538e+02
    1.3239881897e+02    1.3661599731e+02
    1.3249884033e+02    1.3663500977e+02
    1.3259884644e+02    1.3665597534e+02
    1.3269885254e+02    1.3667700195e+02
    1.3279884338e+02    1.3669900513e+02
    1.3289884949e+02    1.3672100830e+02
    1.3299887085e+02    1.3674499512e+02
    1.3309887695e+02    1.3676800537e+02
    1.3319885254e+02    1.3679299927e+02
    1.3329887390e+02    1.3681698608e+02
    1.3339888000e+02    1.3684298706e+02
    1.3349891663e+02    1.3686798096e+02
    1.3359890747e+02    1.3689498901e+02
    1.3369891357e+02    1.3692202759e+02
    1.3379890442e+02    1.3695001221e+02
    1.3389891052e+02    1.3697698975e+02
    1.3399896240e+02    1.3700601196e+02
    1.3409892273e+02    1.3703601074e+02
    1.3419895935e+02    1.3706600952e+02
    1.3429895020e+02    1.3709899902e+02
    1.3439898682e+02    1.3713101196e+02
    1.3449896240e+02    1.3716299438e+02
    1.3459895325e+02    1.3719799805e+02
    1.3469897461e+02    1.3723300171e+02
    1.3479899597e+02    1.3726901245e+02
    1.3489897156e+02    1.3730697632e+02
    1.3499896240e+02    1.3734500122e+02
    1.3509901428e+02    1.3738400269e+02
    1.3519902039e+02    1.3742498779e+02
    1.3529902649e+02    1.3746600342e+02
    1.3539903259e+02    1.3750900269e+02
    1.3549900818e+02    1.3755200195e+02
    1.3559901428e+02    1.3759701538e+02
    1.3569903564e+02    1.3764199829e+02
    1.3579905701e+02    1.3768899536e+02
    1.3589906311e+02    1.3774899292e+02
    1.3599903870e+02    1.3784500122e+02
    1.3609904480e+02    1.3798501587e+02
    1.3619906616e+02    1.3814599609e+02
    1.3629907227e+02    1.3830697632e+02
    1.3639907837e+02    1.3847000122e+02
    1.3649906921e+02    1.3863201904e+02
    1.3659909058e+02    1.3879501343e+02
    1.3669909668e+02    1.3895898438e+02
    1.3679911804e+02    1.3912298584e+02
    1.3689913940e+02    1.3928598022e+02
    1.3699913025e+02    1.3945202637e+02
    1.3709913635e+02    1.3961602783e+02
    1.3719914246e+02    1.3978198242e+02
    1.3729911804e+02    1.3994601440e+02
    1.3739915466e+02    1.4011099243e+02
    1.3749916077e+02    1.4027600098e+02
    1.3759915161e+02    1.4044201660e+02
    1.3769914246e+02    1.4060702515e+02
    1.3779919434e+02    1.4077301025e+02
    1.3789918518e+02    1.4093701172e+02
    1.3799919128e+02    1.4110299683e+02
    1.3809921265e+02    1.4126800537e+02
    1.3819918823e+02    1.4143301392e+02
    1.3829917908e+02    1.4159799194e+02
    1.3839918518e+02    1.4176300049e+02
    1.3849922180e+02    1.4192898560e+02
    1.3859922791e+02    1.4209399414e+02
    1.3869920349e+02    1.4225900269e+02
    1.3879924011e+02    1.4242501831e+02
    1.3889926147e+02    1.4258901978e+02
    1.3899925232e+02    1.4275198364e+02
    1.3909924316e+02    1.4291497803e+02
    1.3919923401e+02    1.4307800293e+02
    1.3929928589e+02    1.4323898315e+02
    1.3939929199e+02    1.4339898682e+02
    1.3949925232e+02    1.4355899048e+02
    1.3959930420e+02    1.4371701050e+02
    1.3969926453e+02    1.4387500000e+02
    1.3979928589e+02    1.4403198242e+02
    1.3989930725e+02    1.4418798828e+02
    1.3999931335e+02    1.4434301758e+02
    1.4009927368e+02    1.4449700928e+02
    1.4019932556e+02    1.4465002441e+02
    1.4029931641e+02    1.4480200195e+02
    1.4039932251e+02    1.4495199585e+02
    1.4049932861e+02    1.4510101318e+02
    1.4059931946e+02    1.4525000000e+02
    1.4069934082e+02    1.4539700317e+02
    1.4079933167e+02    1.4554299927e+02
    1.4089932251e+02    1.4568899536e+02
    1.4099937439e+02    1.4583300781e+02
    1.4109936523e+02    1.4597698975e+02
    1.4119935608e+02    1.4612100220e+02
    1.4129939270e+02    1.4626400757e+02
    1.4139938354e+02    1.4640499878e+02
    1.4149940491e+02    1.4654699707e+02
    1.4159941101e+02    1.4668499756e+02
    1.4169941711e+02    1.4682400513e+02
    1.4179939270e+02    1.4696099854e+02
    1.4189942932e+02    1.4709597778e+02
    1.4199943542e+02    1.4723001099e+02
    1.4209941101e+02    1.4736300659e+02
    1.4219944763e+02    1.4749298096e+02
    1.4229945374e+02    1.4762301636e+02
    1.4239944458e+02    1.4775000000e+02
    1.4249946594e+02    1.4787597656e+02
    1.4259944153e+02    1.4800100708e+02
    1.4269947815e+02    1.4812402344e+02
    1.4279945374e+02    1.4824499512e+02
    1.4289949036e+02    1.4836499023e+02
    1.4299951172e+02    1.4848300171e+02
    1.4309950256e+02    1.4859799194e+02
    1.4319946289e+02    1.4871200562e+02
    1.4329949951e+02    1.4882498169e+02
    1.4339953613e+02    1.4893600464e+02
    1.4349952698e+02    1.4904501343e+02
    1.4359950256e+02    1.4915396118e+02
    1.4369949341e+02    1.4926004028e+02
    1.4379953003e+02    1.4936602783e+02
    1.4389955139e+02    1.4946899414e+02
    1.4399954224e+02    1.4957202148e+02
    1.4409954834e+02    1.4967401123e+02
    1.4419956970e+02    1.4977398682e+02
    1.4429954529e+02    1.4987301636e+02
    1.4439958191e+02    1.4997000122e+02
    1.4449957275e+02    1.5006503296e+02
    1.4459962463e+02    1.5015902710e+02
    1.4469958496e+02    1.5025103760e+02
    1.4479957581e+02    1.5034201050e+02
    1.4489961243e+02    1.5043103027e+02
    1.4499960327e+02    1.5051699829e+02
    1.4509960938e+02    1.5060202026e+02
    1.4519964600e+02    1.5068600464e+02
    1.4529960632e+02    1.5076797485e+02
    1.4539962769e+02    1.5084899902e+02
    1.4549963379e+02    1.5092700195e+02
    1.4559968567e+02    1.5100302124e+02
    1.4569967651e+02    1.5107699585e+02
    1.4579966736e+02    1.5115103149e+02
    1.4589967346e+02    1.5122097778e+02
    1.4599966431e+02    1.5129000854e+02
    1.4609968567e+02    1.5135699463e+02
    1.4619969177e+02    1.5142297363e+02
    1.4629971313e+02    1.5148803711e+02
    1.4639967346e+02    1.5155001831e+02
    1.4649972534e+02    1.5160998535e+02
    1.4659971619e+02    1.5166900635e+02
    1.4669970703e+02    1.5172799683e+02
    1.4679974365e+02    1.5178298950e+02
    1.4689973450e+02    1.5183798218e+02
    1.4699975586e+02    1.5188998413e+02
    1.4709976196e+02    1.5194201660e+02
    1.4719976807e+02    1.5199099731e+02
    1.4729977417e+02    1.5203897095e+02
    1.4739976501e+02    1.5208502197e+02
    1.4749975586e+02    1.5212899780e+02
    1.4759977722e+02    1.5217202759e+02
    1.4769978333e+02    1.5221298218e+02
    1.4779977417e+02    1.5225201416e+02
    1.4789978027e+02    1.5228799438e+02
    1.4799978638e+02    1.5232400513e+02
    1.4809982300e+02    1.5235800171e+02
    1.4819981384e+02    1.5239102173e+02
    1.4829983521e+02    1.5242102051e+02
    1.4839981079e+02    1.5244903564e+02
    1.4849980164e+02    1.5247598267e+02
    1.4859982300e+02    1.5250003052e+02
    1.4869985962e+02    1.5252398682e+02
    1.4879981995e+02    1.5254501343e+02
    1.4889982605e+02    1.5256301880e+02
    1.4899984741e+02    1.5258099365e+02
    1.4909986877e+02    1.5259701538e+02
    1.4919984436e+02    1.5261099243e+02
    1.4929985046e+02    1.5262301636e+02
    1.4939990234e+02    1.5263302612e+02
    1.4949986267e+02    1.5264202881e+02
    1.4959988403e+02    1.5264898682e+02
    1.4969990540e+02    1.5265399170e+02
    1.4979992676e+02    1.5265795898e+02
    1.4989991760e+02    1.5266000366e+02
    1.4999990845e+02    1.5265997314e+02
    1.5009991455e+02    1.5266000366e+02
    1.5019996643e+02    1.5265600586e+02
    1.5029994202e+02    1.5265197754e+02
    1.5039991760e+02    1.5264495850e+02
    1.5049993896e+02    1.5263803101e+02
    1.5059996033e+02    1.5262902832e+02
    1.5069996643e+02    1.5261700439e+02
    1.5079995728e+02    1.5260400391e+02
    1.5089993286e+02    1.5258999634e+02
    1.5099996948e+02    1.5257403564e+02
    1.5109999084e+02    1.5255599976e+02
    1.5119999695e+02    1.5253698730e+02
    1.5130001831e+02    1.5251599121e+02
    1.5139999390e+02    1.5249298096e+02
    1.5149998474e+02    1.5246902466e+02
    1.5160000610e+02    1.5244400024e+02
    1.5170004272e+02    1.5241595459e+02
    1.5180003357e+02    1.5238699341e+02
    1.5190002441e+02    1.5235699463e+02
    1.5200003052e+02    1.5232501221e+02
    1.5210005188e+02    1.5229101562e+02
    1.5220004272e+02    1.5225500488e+02
    1.5230003357e+02    1.5221801758e+02
    1.5240003967e+02    1.5217999268e+02
    1.5250007629e+02    1.5214099121e+02
    1.5260006714e+02    1.5209997559e+02
    1.5270008850e+02    1.5205798340e+02
    1.5280006409e+02    1.5201403809e+02
    1.5290011597e+02    1.5197000122e+02
    1.5300007629e+02    1.5192401123e+02
    1.5310011292e+02    1.5187701416e+02
    1.5320010376e+02    1.5182897949e+02
    1.5330014038e+02    1.5178100586e+02
    1.5340011597e+02    1.5173101807e+02
    1.5350010681e+02    1.5167898560e+02
    1.5360011292e+02    1.5162603760e+02
    1.5370014954e+02    1.5157202148e+02
    1.5380017090e+02    1.5151800537e+02
    1.5390017700e+02    1.5146099854e+02
    1.5400015259e+02    1.5140399170e+02
    1.5410015869e+02    1.5134597778e+02
    1.5420016479e+02    1.5128701782e+02
    1.5430015564e+02    1.5122598267e+02
    1.5440017700e+02    1.5116503906e+02
    1.5450018311e+02    1.5110202026e+02
    1.5460020447e+02    1.5103799438e+02
    1.5470018005e+02    1.5097299194e+02
    1.5480020142e+02    1.5090698242e+02
    1.5490023804e+02    1.5084002686e+02
    1.5500021362e+02    1.5077203369e+02
    1.5510021973e+02    1.5070300293e+02
    1.5520025635e+02    1.5063299561e+02
    1.5530026245e+02    1.5056298828e+02
    1.5540022278e+02    1.5049200439e+02
    1.5550024414e+02    1.5042102051e+02
    1.5560026550e+02    1.5034802246e+02
    1.5570024109e+02    1.5027502441e+02
    1.5580026245e+02    1.5020098877e+02
    1.5590025330e+02    1.5012603760e+02
    1.5600027466e+02    1.5005200195e+02
    1.5610028076e+02    1.4997497559e+02
    1.5620025635e+02    1.4989898682e+02
    1.5630029297e+02    1.4982202148e+02
    1.5640031433e+02    1.4974499512e+02
    1.5650030518e+02    1.4966699219e+02
    1.5660032654e+02    1.4958801270e+02
    1.5670030212e+02    1.4950799561e+02
    1.5680033875e+02    1.4942901611e+02
    1.5690034485e+02    1.4934802246e+02
    1.5700035095e+02    1.4926800537e+02
    1.5710035706e+02    1.4918603516e+02
    1.5720033264e+02    1.4910400391e+02
    1.5730036926e+02    1.4902099609e+02
    1.5740034485e+02    1.4893701172e+02
    1.5750035095e+02    1.4885400391e+02
    1.5760035706e+02    1.4876898193e+02
    1.5770040894e+02    1.4868298340e+02
    1.5780041504e+02    1.4859704590e+02
    1.5790040588e+02    1.4851098633e+02
    1.5800042725e+02    1.4842401123e+02
    1.5810040283e+02    1.4833599854e+02
    1.5820039368e+02    1.4824798584e+02
    1.5830043030e+02    1.4815997314e+02
    1.5840043640e+02    1.4807104492e+02
    1.5850042725e+02    1.4798095703e+02
    1.5860044861e+02    1.4789099121e+02
    1.5870042419e+02    1.4780102539e+02
    1.5880043030e+02    1.4770996094e+02
    1.5890043640e+02    1.4761999512e+02
    1.5900047302e+02    1.4752795410e+02
    1.5910046387e+02    1.4743603516e+02
    1.5920048523e+02    1.4734399414e+02
    1.5930047607e+02    1.4725097656e+02
    1.5940048218e+02    1.4715899658e+02
    1.5950048828e+02    1.4706500244e+02
    1.5960049438e+02    1.4697204590e+02
    1.5970053101e+02    1.4687799072e+02
    1.5980053711e+02    1.4678295898e+02
    1.5990054321e+02    1.4668798828e+02
    1.6000051880e+02    1.4659204102e+02
    1.6010052490e+02    1.4649603271e+02
    1.6020051575e+02    1.4639996338e+02
    1.6030056763e+02    1.4630297852e+02
    1.6040057373e+02    1.4620599365e+02
    1.6050056458e+02    1.4610699463e+02
    1.6060058594e+02    1.4601000977e+02
    1.6070057678e+02    1.4591101074e+02
    1.6080059814e+02    1.4581097412e+02
    1.6090058899e+02    1.4571197510e+02
    1.6100056458e+02    1.4561199951e+02
    1.6110061646e+02    1.4551098633e+02
    1.6120062256e+02    1.4540997314e+02
    1.6130058289e+02    1.4530895996e+02
    1.6140063477e+02    1.4520697021e+02
    1.6150062561e+02    1.4510601807e+02
    1.6160063171e+02    1.4500305176e+02
    1.6170062256e+02    1.4490100098e+02
    1.6180062866e+02    1.4479699707e+02
    1.6190063477e+02    1.4469299316e+02
    1.6200062561e+02    1.4458898926e+02
    1.6210063171e+02    1.4448400879e+02
    1.6220066833e+02    1.4438000488e+02
    1.6230068970e+02    1.4427502441e+02
    1.6240068054e+02    1.4416998291e+02
    1.6250068665e+02    1.4406402588e+02
    1.6260064697e+02    1.4395703125e+02
    1.6270068359e+02    1.4385101318e+02
    1.6280068970e+02    1.4374395752e+02
    1.6290069580e+02    1.4363702393e+02
    1.6300068665e+02    1.4352996826e+02
    1.6310072327e+02    1.4342102051e+02
    1.6320071411e+02    1.4331298828e+02
    1.6330070496e+02    1.4320397949e+02
    1.6340071106e+02    1.4309497070e+02
    1.6350073242e+02    1.4298498535e+02
    1.6360072327e+02    1.4287500000e+02
    1.6370077515e+02    1.4276501465e+02
    1.6380073547e+02    1.4265301514e+02
    1.6390075684e+02    1.4254199219e+02
    1.6400079346e+02    1.4242901611e+02
    1.6410078430e+02    1.4231701660e+02
    1.6420077515e+02    1.4220404053e+02
    1.6430079651e+02    1.4208996582e+02
    1.6440080261e+02    1.4197698975e+02
    1.6450079346e+02    1.4186303711e+02
    1.6460078430e+02    1.4174798584e+02
    1.6470080566e+02    1.4163299561e+02
    1.6480084229e+02    1.4151702881e+02
    1.6490083313e+02    1.4140203857e+02
    1.6500083923e+02    1.4128601074e+02
    1.6510084534e+02    1.4116900635e+02
    1.6520083618e+02    1.4105200195e+02
    1.6530087280e+02    1.4093395996e+02
    1.6540083313e+02    1.4081701660e+02
    1.6550088501e+02    1.4069897461e+02
    1.6560087585e+02    1.4058001709e+02
    1.6570085144e+02    1.4046002197e+02
    1.6580090332e+02    1.4033996582e+02
    1.6590090942e+02    1.4022100830e+02
    1.6600090027e+02    1.4010101318e+02
    1.6610089111e+02    1.3997900391e+02
    1.6620092773e+02    1.3985797119e+02
    1.6630091858e+02    1.3973602295e+02
    1.6640089417e+02    1.3961395264e+02
    1.6650091553e+02    1.3949102783e+02
    1.6660093689e+02    1.3936901855e+02
    1.6670094299e+02    1.3924603271e+02
    1.6680094910e+02    1.3912200928e+02
    1.6690095520e+02    1.3899896240e+02
    1.6700094604e+02    1.3887500000e+02
    1.6710096741e+02    1.3875097656e+02
    1.6720095825e+02    1.3862597656e+02
    1.6730096436e+02    1.3850097656e+02
    1.6740098572e+02    1.3837597656e+02
    1.6750100708e+02    1.3825000000e+02
    1.6760096741e+02    1.3812402344e+02
    1.6770100403e+02    1.3799700928e+02
    1.6780096436e+02    1.3787097168e+02
    1.6790098572e+02    1.3774395752e+02
    1.6800099182e+02    1.3761596680e+02
    1.6810099792e+02    1.3748803711e+02
    1.6820100403e+02    1.3735998535e+02
    1.6830102539e+02    1.3723101807e+02
    1.6840106201e+02    1.3710296631e+02
    1.6850105286e+02    1.3697302246e+02
    1.6860107422e+02    1.3684295654e+02
    1.6870103455e+02    1.3671301270e+02
    1.6880107117e+02    1.3658300781e+02
    1.6890107727e+02    1.3645098877e+02
    1.6900105286e+02    1.3632098389e+02
    1.6910107422e+02    1.3618896484e+02
    1.6920108032e+02    1.3605700684e+02
    1.6930108643e+02    1.3592498779e+02
    1.6940109253e+02    1.3579199219e+02
    1.6950111389e+02    1.3565899658e+02
    1.6960110474e+02    1.3552600098e+02
    1.6970114136e+02    1.3539398193e+02
    1.6980114746e+02    1.3526000977e+02
    1.6990113831e+02    1.3512701416e+02
    1.7000115967e+02    1.3499298096e+02
    1.7010113525e+02    1.3486004639e+02
    1.7020115662e+02    1.3472601318e+02
    1.7030116272e+02    1.3459197998e+02
    1.7040115356e+02    1.3445800781e+02
    1.7050117493e+02    1.3432299805e+02
    1.7060119629e+02    1.3418902588e+02
    1.7070117188e+02    1.3405499268e+02
    1.7080116272e+02    1.3392102051e+02
    1.7090119934e+02    1.3378601074e+02
    1.7100117493e+02    1.3365203857e+02
    1.7110122681e+02    1.3351702881e+02
    1.7120120239e+02    1.3338098145e+02
    1.7130119324e+02    1.3324603271e+02
    1.7140122986e+02    1.3311004639e+02
    1.7150122070e+02    1.3297302246e+02
    1.7160122681e+02    1.3283703613e+02
    1.7170124817e+02    1.3270001221e+02
    1.7180126953e+02    1.3256304932e+02
    1.7190124512e+02    1.3242498779e+02
    1.7200128174e+02    1.3228796387e+02
    1.7210127258e+02    1.3214904785e+02
    1.7220129395e+02    1.3200994873e+02
    1.7230125427e+02    1.3187097168e+02
    1.7240127563e+02    1.3173199463e+02
    1.7250129700e+02    1.3159204102e+02
    1.7260127258e+02    1.3145300293e+02
    1.7270132446e+02    1.3131298828e+02
    1.7280131531e+02    1.3117297363e+02
    1.7290130615e+02    1.3103100586e+02
    1.7300132751e+02    1.3089099121e+02
    1.7310131836e+02    1.3075000000e+02
    1.7320133972e+02    1.3060803223e+02
    1.7330133057e+02    1.3046697998e+02
    1.7340133667e+02    1.3032501221e+02
    1.7350135803e+02    1.3018402100e+02
    1.7360136414e+02    1.3004199219e+02
    1.7370135498e+02    1.2990100098e+02
    1.7380134583e+02    1.2975903320e+02
    1.7390136719e+02    1.2961700439e+02
    1.7400140381e+02    1.2947399902e+02
    1.7410136414e+02    1.2933203125e+02
    1.7420141602e+02    1.2919000244e+02
    1.7430140686e+02    1.2904602051e+02
    1.7440141296e+02    1.2890301514e+02
    1.7450141907e+02    1.2876000977e+02
    1.7460139465e+02    1.2861798096e+02
    1.7470144653e+02    1.2847399902e+02
    1.7480145264e+02    1.2833099365e+02
    1.7490142822e+02    1.2818798828e+02
    1.7500141907e+02    1.2804400635e+02
    1.7510145569e+02    1.2789996338e+02
    1.7520147705e+02    1.2775598145e+02
    1.7530143738e+02    1.2761199951e+02
    1.7540145874e+02    1.2746801758e+02
    1.7550149536e+02    1.2732403564e+02
    1.7560148621e+02    1.2717999268e+02
    1.7570147705e+02    1.2703503418e+02
    1.7580151367e+02    1.2689099121e+02
    1.7590147400e+02    1.2674700928e+02
    1.7600149536e+02    1.2660198975e+02
    1.7610153198e+02    1.2645703125e+02
    1.7620152283e+02    1.2631201172e+02
    1.7630151367e+02    1.2616699219e+02
    1.7640153503e+02    1.2602197266e+02
    1.7650152588e+02    1.2587701416e+02
    1.7660154724e+02    1.2573199463e+02
    1.7670152283e+02    1.2558697510e+02
    1.7680157471e+02    1.2544097900e+02
    1.7690155029e+02    1.2529504395e+02
    1.7700158691e+02    1.2514801025e+02
    1.7710157776e+02    1.2500103760e+02
    1.7720158386e+02    1.2485198975e+02
    1.7730157471e+02    1.2470397949e+02
    1.7740158081e+02    1.2456500244e+02
    1.7750157166e+02    1.2441497803e+02
    1.7760159302e+02    1.2426403809e+02
    1.7770162964e+02    1.2411199951e+02
    1.7780163574e+02    1.2397003174e+02
    1.7790161133e+02    1.2381799316e+02
    1.7800163269e+02    1.2367401123e+02
    1.7810162354e+02    1.2352099609e+02
    1.7820161438e+02    1.2336700439e+02
    1.7830166626e+02    1.2322106934e+02
    1.7840167236e+02    1.2306494141e+02
    1.7850167847e+02    1.2291894531e+02
    1.7860163879e+02    1.2277301025e+02
    1.7870167542e+02    1.2261505127e+02
    1.7880169678e+02    1.2246691895e+02
    1.7890167236e+02    1.2231896973e+02
    1.7900169373e+02    1.2216003418e+02
    1.7910166931e+02    1.2201104736e+02
    1.7920169067e+02    1.2186096191e+02
    1.7930171204e+02    1.2171099854e+02
    1.7940170288e+02    1.2155999756e+02
    1.7950172424e+02    1.2139904785e+02
    1.7960174561e+02    1.2124694824e+02
    1.7970170593e+02    1.2109600830e+02
    1.7980171204e+02    1.2094403076e+02
    1.7990174866e+02    1.2079003906e+02
    1.8000173950e+02    1.2063696289e+02
    1.8010177612e+02    1.2049304199e+02
    1.8020173645e+02    1.2034002686e+02
    1.8030177307e+02    1.2018493652e+02
    1.8040174866e+02    1.2003100586e+02
    1.8050178528e+02    1.1987603760e+02
    1.8060180664e+02    1.1972998047e+02
    1.8070181274e+02    1.1957397461e+02
    1.8080180359e+02    1.1941802979e+02
    1.8090176392e+02    1.1926306152e+02
    1.8100181580e+02    1.1911499023e+02
    1.8110183716e+02    1.1895800781e+02
    1.8120181274e+02    1.1881103516e+02
    1.8130184937e+02    1.1865197754e+02
    1.8140182495e+02    1.1850500488e+02
    1.8150183105e+02    1.1834606934e+02
    1.8160186768e+02    1.1819696045e+02
    1.8170187378e+02    1.1804803467e+02
    1.8180186462e+02    1.1788806152e+02
    1.8190185547e+02    1.1773895264e+02
    1.8200187683e+02    1.1758801270e+02
    1.8210188293e+02    1.1743804932e+02
    1.8220187378e+02    1.1727697754e+02
    1.8230187988e+02    1.1712603760e+02
    1.8240188599e+02    1.1697406006e+02
    1.8250190735e+02    1.1682196045e+02
    1.8260189819e+02    1.1667004395e+02
    1.8270190430e+02    1.1651696777e+02
    1.8280189514e+02    1.1636401367e+02
    1.8290191650e+02    1.1621105957e+02
    1.8300195312e+02    1.1605596924e+02
    1.8310194397e+02    1.1590197754e+02
    1.8320190430e+02    1.1574902344e+02
    1.8330195618e+02    1.1560296631e+02
    1.8340193176e+02    1.1544903564e+02
    1.8350193787e+02    1.1529302979e+02
    1.8360197449e+02    1.1513995361e+02
    1.8370199585e+02    1.1499005127e+02
    1.8380198669e+02    1.1482995605e+02
    1.8390196228e+02    1.1469000244e+02
    1.8400195312e+02    1.1453002930e+02
    1.8410200500e+02    1.1438000488e+02
    1.8420199585e+02    1.1422003174e+02
    1.8430203247e+02    1.1406994629e+02
    1.8440199280e+02    1.1392999268e+02
    1.8450201416e+02    1.1377996826e+02
    1.8460203552e+02    1.1363000488e+02
    1.8470204163e+02    1.1348004150e+02
    1.8480203247e+02    1.1332995605e+02
    1.8490205383e+02    1.1317004395e+02
    1.8500207520e+02    1.1302001953e+02
    1.8510203552e+02    1.1286999512e+02
    1.8520207214e+02    1.1271997070e+02
    1.8530206299e+02    1.1257006836e+02
    1.8540209961e+02    1.1241992188e+02
    1.8550209045e+02    1.1227001953e+02
    1.8560209656e+02    1.1213000488e+02
    1.8570207214e+02    1.1196997070e+02
    1.8580207825e+02    1.1182995605e+02
    1.8590213013e+02    1.1167004395e+02
    1.8600210571e+02    1.1153002930e+02
    1.8610209656e+02    1.1138000488e+02
    1.8620213318e+02    1.1123999023e+02
    1.8630210876e+02    1.1107995605e+02
    1.8640214539e+02    1.1093005371e+02
    1.8650216675e+02    1.1079003906e+02
    1.8660215759e+02    1.1063989258e+02
    1.8670216370e+02    1.1050000000e+02
    1.8680213928e+02    1.1034997559e+02
    1.8690217590e+02    1.1020007324e+02
    1.8700218201e+02    1.1004992676e+02
    1.8710215759e+02    1.0990002441e+02
    1.8720216370e+02    1.0976000977e+02
    1.8730215454e+02    1.0960998535e+02
    1.8740220642e+02    1.0946997070e+02
    1.8750219727e+02    1.0931005859e+02
    1.8760223389e+02    1.0917004395e+02
    1.8770219421e+02    1.0901989746e+02
    1.8780224609e+02    1.0886999512e+02
    1.8790223694e+02    1.0871997070e+02
    1.8800224304e+02    1.0858007812e+02
    1.8810226440e+02    1.0843005371e+02
    1.8820222473e+02    1.0827990723e+02
    1.8830223083e+02    1.0813000488e+02
    1.8840226746e+02    1.0797998047e+02
    1.8850227356e+02    1.0783007812e+02
    1.8860226440e+02    1.0768005371e+02
    1.8870225525e+02    1.0752990723e+02
    1.8880227661e+02    1.0739001465e+02
    1.8890229797e+02    1.0723999023e+02
    1.8900230408e+02    1.0709997559e+02
    1.8910227966e+02    1.0694006348e+02
    1.8920228577e+02    1.0678991699e+02
    1.8930233765e+02    1.0664001465e+02
    1.8940229797e+02    1.0650000000e+02
    1.8950230408e+02    1.0633996582e+02
    1.8960235596e+02    1.0619006348e+02
    1.8970231628e+02    1.0605004883e+02
    1.8980235291e+02    1.0590002441e+02
    1.8990234375e+02    1.0575000000e+02
    1.9000238037e+02    1.0559997559e+02
    1.9010235596e+02    1.0544995117e+02
    1.9020234680e+02    1.0530004883e+02
    1.9030235291e+02    1.0514001465e+02
    1.9040240479e+02    1.0498999023e+02
    1.9050238037e+02    1.0484997559e+02
    1.9060240173e+02    1.0469006348e+02
    1.9070239258e+02    1.0454003906e+02
    1.9080238342e+02    1.0439001465e+02
    1.9090242004e+02    1.0423999023e+02
    1.9100244141e+02    1.0408996582e+02
    1.9110241699e+02    1.0392993164e+02
    1.9120245361e+02    1.0377990723e+02
    1.9130241394e+02    1.0363000488e+02
    1.9140246582e+02    1.0347998047e+02
    1.9150247192e+02    1.0331994629e+02
    1.9160243225e+02    1.0316992188e+02
    1.9170243835e+02    1.0301000977e+02
    1.9180247498e+02    1.0285998535e+02
    1.9190249634e+02    1.0269995117e+02
    1.9200250244e+02    1.0255993652e+02
    1.9210246277e+02    1.0240002441e+02
    1.9220246887e+02    1.0223999023e+02
    1.9230247498e+02    1.0207995605e+02
    1.9240248108e+02    1.0192993164e+02
    1.9250250244e+02    1.0176989746e+02
    1.9260253906e+02    1.0159997559e+02
    1.9270251465e+02    1.0145007324e+02
    1.9280250549e+02    1.0129003906e+02
    1.9290251160e+02    1.0113000488e+02
    1.9300253296e+02    1.0096008301e+02
    1.9310252380e+02    1.0081005859e+02
    1.9320252991e+02    1.0065002441e+02
    1.9330258179e+02    1.0047998047e+02
    1.9340254211e+02    1.0031994629e+02
    1.9350254822e+02    1.0015991211e+02
    1.9360255432e+02    9.9980102539e+01
    1.9370256042e+02    9.9820068359e+01
    1.9380259705e+02    9.9650024414e+01
    1.9390257263e+02    9.9489990234e+01
    1.9400259399e+02    9.9319946289e+01
    1.9410261536e+02    9.9149902344e+01
    1.9420259094e+02    9.8980102539e+01
    1.9430259705e+02    9.8810058594e+01
    1.9440260315e+02    9.8640014648e+01
    1.9450263977e+02    9.8469970703e+01
    1.9460264587e+02    9.8299926758e+01
    1.9470266724e+02    9.8119995117e+01
    1.9480262756e+02    9.7950073242e+01
    1.9490267944e+02    9.7770019531e+01
    1.9500263977e+02    9.7599975586e+01
    1.9510267639e+02    9.7430053711e+01
    1.9520266724e+02    9.7250000000e+01
    1.9530267334e+02    9.7069946289e+01
    1.9540269470e+02    9.6899902344e+01
    1.9550268555e+02    9.6710083008e+01
    1.9560272217e+02    9.6540039062e+01
    1.9570268250e+02    9.6359985352e+01
    1.9580270386e+02    9.6180053711e+01
    1.9590272522e+02    9.6000000000e+01
    1.9600274658e+02    9.5819946289e+01
    1.9610270691e+02    9.5630004883e+01
    1.9620274353e+02    9.5449951172e+01
    1.9630273438e+02    9.5269897461e+01
    1.9640272522e+02    9.5080078125e+01
    1.9650274658e+02    9.4900024414e+01
    1.9660273743e+02    9.4710083008e+01
    1.9670278931e+02    9.4530029297e+01
    1.9680279541e+02    9.4329956055e+01
    1.9690278625e+02    9.4140014648e+01
    1.9700277710e+02    9.3949951172e+01
    1.9710278320e+02    9.3760009766e+01
    1.9720277405e+02    9.3569946289e+01
    1.9730281067e+02    9.3380004883e+01
    1.9740278625e+02    9.3189941406e+01
    1.9750280762e+02    9.2990112305e+01
    1.9760284424e+02    9.2790039062e+01
    1.9770283508e+02    9.2600097656e+01
    1.9780285645e+02    9.2410034180e+01
    1.9790284729e+02    9.2210083008e+01
    1.9800285339e+02    9.2000000000e+01
    1.9810287476e+02    9.1800048828e+01
    1.9820283508e+02    9.1609985352e+01
    1.9830285645e+02    9.1400024414e+01
    1.9840289307e+02    9.1189941406e+01
    1.9850285339e+02    9.0989990234e+01
    1.9860290527e+02    9.0780029297e+01
    1.9870289612e+02    9.0579956055e+01
    1.9880291748e+02    9.0369995117e+01
    1.9890292358e+02    9.0159912109e+01
    1.9900288391e+02    8.9949951172e+01
    1.9910293579e+02    8.9739990234e+01
    1.9920291138e+02    8.9529907227e+01
    1.9930291748e+02    8.9319946289e+01
    1.9940292358e+02    8.9099975586e+01
    1.9950292969e+02    8.8889892578e+01
    1.9960293579e+02    8.8679931641e+01
    1.9970292664e+02    8.8449951172e+01
    1.9980293274e+02    8.8239990234e+01
    1.9990296936e+02    8.8019897461e+01
endcurve
