Curveplot
LS-DYNA keyword deck by LS-PrePost
Abscissa
Ordinate
XY data
CHOP_EAMZ_mo-1 #pts=3000
* Minval=    -1.4057500362e+00 at time=       162.6005859375
* Maxval=     2.9989400506e-01 at time=       264.4067687988
    0.0000000000e+00    0.0000000000e+00
    9.9971257150e-02    1.9113500287e-17
    1.9997157156e-01    3.2288400575e-07
    2.9983949661e-01    5.0874700719e-07
    3.9980411530e-01    7.1317799666e-07
    4.9986100197e-01    1.0307600178e-06
    5.9982681274e-01    1.4898899963e-06
    6.9986909628e-01    2.1014800495e-06
    7.9996424913e-01    2.0148600015e-06
    8.9999699593e-01    2.0154500362e-06
    9.9983048439e-01    3.3476899262e-06
    1.0998057127e+00    6.1083301262e-06
    1.1997965574e+00    9.1694901130e-06
    1.2998238802e+00    1.1601799997e-05
    1.3998663425e+00    1.3159599803e-05
    1.4999084473e+00    1.3329099602e-05
    1.5998848677e+00    1.2030100152e-05
    1.6998517513e+00    9.2140298875e-06
    1.7998569012e+00    5.1175397857e-06
    1.8999532461e+00   -4.2678701107e-07
    1.9998379946e+00   -7.4329900599e-06
    2.0999476910e+00   -1.5983299818e-05
    2.1999177933e+00   -2.5825200282e-05
    2.2999169827e+00   -3.6540401197e-05
    2.3998513222e+00   -4.8633100960e-05
    2.4999043941e+00   -6.1593098508e-05
    2.5998687744e+00   -7.5205200119e-05
    2.6998603344e+00   -8.9196000772e-05
    2.7999703884e+00   -1.0305600154e-04
    2.8998289108e+00   -1.1661899771e-04
    2.9999125004e+00   -1.3092100562e-04
    3.0998518467e+00   -1.4678199659e-04
    3.1999235153e+00   -1.6449700342e-04
    3.2998852730e+00   -1.8386000011e-04
    3.3999664783e+00   -2.0544900326e-04
    3.4999496937e+00   -2.2963900119e-04
    3.5999453068e+00   -2.5624499540e-04
    3.6998658180e+00   -2.8442600160e-04
    3.7998898029e+00   -3.1447698711e-04
    3.8998456001e+00   -3.4617198980e-04
    3.9997999668e+00   -3.7897398579e-04
    4.0997948647e+00   -4.1375099681e-04
    4.1999564171e+00   -4.5061300625e-04
    4.2998638153e+00   -4.8975902610e-04
    4.3998351097e+00   -5.3085701074e-04
    4.4997935295e+00   -5.7454698253e-04
    4.5999145508e+00   -6.2077300390e-04
    4.6998620033e+00   -6.6966598388e-04
    4.7999286652e+00   -7.2086200817e-04
    4.8998680115e+00   -7.7340297867e-04
    4.9999794960e+00   -8.2702399231e-04
    5.0997986794e+00   -8.8122999296e-04
    5.1997833252e+00   -9.3688198831e-04
    5.2998895645e+00   -9.9453399889e-04
    5.3998904228e+00   -1.0542100063e-03
    5.4997935295e+00   -1.1159400456e-03
    5.5999422073e+00   -1.1798499618e-03
    5.6997799873e+00   -1.2459099526e-03
    5.7998991013e+00   -1.3143699616e-03
    5.8999552727e+00   -1.3847399969e-03
    5.9998483658e+00   -1.4571399661e-03
    6.0998144150e+00   -1.5314599732e-03
    6.1999297142e+00   -1.6075200401e-03
    6.2999696732e+00   -1.6861599870e-03
    6.3998751640e+00   -1.7665600171e-03
    6.4998874664e+00   -1.8495400436e-03
    6.5999126434e+00   -1.9352700328e-03
    6.6999530792e+00   -2.0231199451e-03
    6.7997941971e+00   -2.1125699859e-03
    6.8999919891e+00   -2.2046600934e-03
    6.9999003410e+00   -2.2987299599e-03
    7.0998325348e+00   -2.3947700392e-03
    7.1999907494e+00   -2.4923600722e-03
    7.2999491692e+00   -2.5908499956e-03
    7.3997888565e+00   -2.6908901054e-03
    7.4999084473e+00   -2.7932100929e-03
    7.5999560356e+00   -2.8976500034e-03
    7.6998777390e+00   -3.0039600097e-03
    7.7999305725e+00   -3.1125000678e-03
    7.8999834061e+00   -3.2233900856e-03
    7.9997878075e+00   -3.3364100382e-03
    8.0999040604e+00   -3.4524200018e-03
    8.1998615265e+00   -3.5699401051e-03
    8.2998313904e+00   -3.6893500946e-03
    8.3999738693e+00   -3.8108199369e-03
    8.4998607635e+00   -3.9339098148e-03
    8.5999755859e+00   -4.0595098399e-03
    8.6999568939e+00   -4.1873999871e-03
    8.7998018265e+00   -4.3167900294e-03
    8.8997955322e+00   -4.4474499300e-03
    8.9999752045e+00   -4.5801098458e-03
    9.0999126434e+00   -4.7146501020e-03
    9.1999273300e+00   -4.8514199443e-03
    9.2998275757e+00   -4.9897399731e-03
    9.3998746872e+00   -5.1301200874e-03
    9.4999370575e+00   -5.2719600499e-03
    9.5998249054e+00   -5.4151602089e-03
    9.6999921799e+00   -5.5608698167e-03
    9.7999610901e+00   -5.7081100531e-03
    9.8998632431e+00   -5.8566099033e-03
    9.9998216629e+00   -6.0066399164e-03
    1.0099919319e+01   -6.1582098715e-03
    1.0199834824e+01   -6.3106399029e-03
    1.0299937248e+01   -6.4639099874e-03
    1.0399831772e+01   -6.6180401482e-03
    1.0499958038e+01   -6.7739798687e-03
    1.0599818230e+01   -6.9307899103e-03
    1.0700003624e+01   -7.0891999640e-03
    1.0799938202e+01   -7.2498200461e-03
    1.0899888992e+01   -7.4120098725e-03
    1.0999879837e+01   -7.5733200647e-03
    1.1099910736e+01   -7.7335098758e-03
    1.1199938774e+01   -7.8943399712e-03
    1.1299847603e+01   -8.0567598343e-03
    1.1399874687e+01   -8.2217501476e-03
    1.1499861717e+01   -8.3891898394e-03
    1.1599894524e+01   -8.5593201220e-03
    1.1699989319e+01   -8.7328301743e-03
    1.1799953461e+01   -8.9088398963e-03
    1.1899891853e+01   -9.0877898037e-03
    1.2000000000e+01   -9.2700403184e-03
    1.2099945068e+01   -9.4548901543e-03
    1.2199983597e+01   -9.6423001960e-03
    1.2299942017e+01   -9.8317703232e-03
    1.2399961472e+01   -1.0024299845e-02
    1.2499838829e+01   -1.0219199583e-02
    1.2599983215e+01   -1.0416599922e-02
    1.2699993134e+01   -1.0614500381e-02
    1.2799806595e+01   -1.0812000372e-02
    1.2899923325e+01   -1.1009800248e-02
    1.2999868393e+01   -1.1208199896e-02
    1.3099847794e+01   -1.1408399791e-02
    1.3200003624e+01   -1.1611999944e-02
    1.3299923897e+01   -1.1817900464e-02
    1.3399838448e+01   -1.2026599608e-02
    1.3499816895e+01   -1.2239200063e-02
    1.3599921227e+01   -1.2455799617e-02
    1.3699827194e+01   -1.2674500234e-02
    1.3799995422e+01   -1.2896499597e-02
    1.3899859428e+01   -1.3120899908e-02
    1.3999837875e+01   -1.3347599655e-02
    1.4099941254e+01   -1.3576800004e-02
    1.4199989319e+01   -1.3808299787e-02
    1.4299903870e+01   -1.4042899944e-02
    1.4399898529e+01   -1.4280900359e-02
    1.4499859810e+01   -1.4522000216e-02
    1.4599869728e+01   -1.4766300097e-02
    1.4699887276e+01   -1.5014500357e-02
    1.4799889565e+01   -1.5265500173e-02
    1.4899987221e+01   -1.5518800355e-02
    1.4999958992e+01   -1.5773400664e-02
    1.5099836349e+01   -1.6027500853e-02
    1.5199943542e+01   -1.6282899305e-02
    1.5300018311e+01   -1.6540499404e-02
    1.5399898529e+01   -1.6799300909e-02
    1.5499902725e+01   -1.7059899867e-02
    1.5599830627e+01   -1.7321899533e-02
    1.5699997902e+01   -1.7586100847e-02
    1.5799925804e+01   -1.7851099372e-02
    1.5899937630e+01   -1.8118700013e-02
    1.5999978065e+01   -1.8388699740e-02
    1.6099813461e+01   -1.8659500405e-02
    1.6199831009e+01   -1.8932199106e-02
    1.6299974442e+01   -1.9207499921e-02
    1.6399808884e+01   -1.9483599812e-02
    1.6499980927e+01   -1.9763199612e-02
    1.6599952698e+01   -2.0044799894e-02
    1.6700012207e+01   -2.0327800885e-02
    1.6799825668e+01   -2.0610699430e-02
    1.6899862289e+01   -2.0896499977e-02
    1.6999843597e+01   -2.1183999255e-02
    1.7099895477e+01   -2.1472800523e-02
    1.7199947357e+01   -2.1762199700e-02
    1.7300010681e+01   -2.2051399574e-02
    1.7399953842e+01   -2.2341199219e-02
    1.7500017166e+01   -2.2632099688e-02
    1.7599971771e+01   -2.2922400385e-02
    1.7699850082e+01   -2.3212499917e-02
    1.7799871445e+01   -2.3503800854e-02
    1.7899984360e+01   -2.3796800524e-02
    1.7999977112e+01   -2.4090899155e-02
    1.8099954605e+01   -2.4386499077e-02
    1.8199918747e+01   -2.4682799354e-02
    1.8299877167e+01   -2.4980299175e-02
    1.8399894714e+01   -2.5278899819e-02
    1.8499883652e+01   -2.5577800348e-02
    1.8599895477e+01   -2.5877900422e-02
    1.8699947357e+01   -2.6180099696e-02
    1.8799995422e+01   -2.6482999325e-02
    1.8899908066e+01   -2.6784799993e-02
    1.8999912262e+01   -2.7086900547e-02
    1.9099878311e+01   -2.7389099821e-02
    1.9199895859e+01   -2.7691900730e-02
    1.9299985886e+01   -2.7995800599e-02
    1.9399915695e+01   -2.8299000114e-02
    1.9499938965e+01   -2.8602300212e-02
    1.9599990845e+01   -2.8906300664e-02
    1.9699922562e+01   -2.9210500419e-02
    1.9799840927e+01   -2.9514599591e-02
    1.9899946213e+01   -2.9819099233e-02
    1.9999959946e+01   -3.0122900382e-02
    2.0100019455e+01   -3.0425500125e-02
    2.0199895859e+01   -3.0726199970e-02
    2.0299819946e+01   -3.1025800854e-02
    2.0400011063e+01   -3.1325101852e-02
    2.0500034332e+01   -3.1622599810e-02
    2.0599992752e+01   -3.1919401139e-02
    2.0699909210e+01   -3.2215598971e-02
    2.0800039291e+01   -3.2513998449e-02
    2.0899879456e+01   -3.2811500132e-02
    2.0999946594e+01   -3.3106401563e-02
    2.1099977493e+01   -3.3397499472e-02
    2.1199871063e+01   -3.3686701208e-02
    2.1299833298e+01   -3.3975299448e-02
    2.1399942398e+01   -3.4263800830e-02
    2.1500043869e+01   -3.4552499652e-02
    2.1599878311e+01   -3.4840799868e-02
    2.1700033188e+01   -3.5131800920e-02
    2.1799928665e+01   -3.5422898829e-02
    2.1899951935e+01   -3.5714998841e-02
    2.1999855042e+01   -3.6007098854e-02
    2.2099929810e+01   -3.6300800741e-02
    2.2199851990e+01   -3.6594100296e-02
    2.2299959183e+01   -3.6887399852e-02
    2.2399913788e+01   -3.7180401385e-02
    2.2499876022e+01   -3.7473801523e-02
    2.2599878311e+01   -3.7766899914e-02
    2.2699953079e+01   -3.8058299571e-02
    2.2800016403e+01   -3.8347098976e-02
    2.2899847031e+01   -3.8632400334e-02
    2.2999860764e+01   -3.8917399943e-02
    2.3099845886e+01   -3.9202399552e-02
    2.3199947357e+01   -3.9489101619e-02
    2.3300029755e+01   -3.9776299149e-02
    2.3399887085e+01   -4.0063999593e-02
    2.3499977112e+01   -4.0354099125e-02
    2.3599868774e+01   -4.0644798428e-02
    2.3699998856e+01   -4.0936701000e-02
    2.3799953461e+01   -4.1228398681e-02
    2.3899904251e+01   -4.1521299630e-02
    2.3999948502e+01   -4.1814200580e-02
    2.4099872589e+01   -4.2107298970e-02
    2.4199996948e+01   -4.2401500046e-02
    2.4299957275e+01   -4.2696598917e-02
    2.4400026321e+01   -4.2993698269e-02
    2.4499980927e+01   -4.3291598558e-02
    2.4599922180e+01   -4.3589901179e-02
    2.4699985504e+01   -4.3889600784e-02
    2.4799831390e+01   -4.4190198183e-02
    2.4900058746e+01   -4.4491700828e-02
    2.4999998093e+01   -4.4791299850e-02
    2.5100049973e+01   -4.5089401305e-02
    2.5199964523e+01   -4.5385699719e-02
    2.5299905777e+01   -4.5682400465e-02
    2.5399843216e+01   -4.5979399234e-02
    2.5499858856e+01   -4.6276599169e-02
    2.5600000381e+01   -4.6573899686e-02
    2.5700012207e+01   -4.6870999038e-02
    2.5800022125e+01   -4.7168098390e-02
    2.5900035858e+01   -4.7465298325e-02
    2.5999860764e+01   -4.7762401402e-02
    2.6100000381e+01   -4.8059500754e-02
    2.6199943542e+01   -4.8355799168e-02
    2.6300024033e+01   -4.8652399331e-02
    2.6400058746e+01   -4.8948500305e-02
    2.6499961853e+01   -4.9245398492e-02
    2.6599887848e+01   -4.9543399364e-02
    2.6699939728e+01   -4.9841001630e-02
    2.6800029755e+01   -5.0138000399e-02
    2.6899930954e+01   -5.0434701145e-02
    2.6999984741e+01   -5.0732400268e-02
    2.7099874496e+01   -5.1029600203e-02
    2.7199977875e+01   -5.1326300949e-02
    2.7300050735e+01   -5.1619999111e-02
    2.7399965286e+01   -5.1912799478e-02
    2.7499931335e+01   -5.2205000073e-02
    2.7599922180e+01   -5.2496299148e-02
    2.7699968338e+01   -5.2786998451e-02
    2.7799972534e+01   -5.3076699376e-02
    2.7899881363e+01   -5.3366299719e-02
    2.8000001907e+01   -5.3657401353e-02
    2.8099903107e+01   -5.3948599845e-02
    2.8200061798e+01   -5.4239999503e-02
    2.8300027847e+01   -5.4530899972e-02
    2.8399848938e+01   -5.4821200669e-02
    2.8499996185e+01   -5.5111199617e-02
    2.8599878311e+01   -5.5400401354e-02
    2.8699928284e+01   -5.5691599846e-02
    2.8799922943e+01   -5.5982701480e-02
    2.8899953842e+01   -5.6272901595e-02
    2.8999998093e+01   -5.6562900543e-02
    2.9099895477e+01   -5.6851800531e-02
    2.9200056076e+01   -5.7141501456e-02
    2.9299957275e+01   -5.7430401444e-02
    2.9399951935e+01   -5.7719200850e-02
    2.9499929428e+01   -5.8007501066e-02
    2.9599899292e+01   -5.8295499533e-02
    2.9699974060e+01   -5.8584298939e-02
    2.9799854279e+01   -5.8872099966e-02
    2.9900075912e+01   -5.9160899371e-02
    3.0000061035e+01   -5.9447899461e-02
    3.0099876404e+01   -5.9733301401e-02
    3.0200061798e+01   -6.0018800199e-02
    3.0300052643e+01   -6.0302201658e-02
    3.0400020599e+01   -6.0584500432e-02
    3.0499977112e+01   -6.0864999890e-02
    3.0600040436e+01   -6.1144500971e-02
    3.0699951172e+01   -6.1423398554e-02
    3.0799909592e+01   -6.1705298722e-02
    3.0899894714e+01   -6.1986699700e-02
    3.1000030518e+01   -6.2262699008e-02
    3.1099969864e+01   -6.2532097101e-02
    3.1200069427e+01   -6.2800601125e-02
    3.1299901962e+01   -6.3069701195e-02
    3.1399974823e+01   -6.3341401517e-02
    3.1500015259e+01   -6.3616402447e-02
    3.1599910736e+01   -6.3895002007e-02
    3.1699909210e+01   -6.4179502428e-02
    3.1800012589e+01   -6.4468599856e-02
    3.1900062561e+01   -6.4761303365e-02
    3.1999864578e+01   -6.5057799220e-02
    3.2099925995e+01   -6.5360702574e-02
    3.2200077057e+01   -6.5667599440e-02
    3.2299915314e+01   -6.5975598991e-02
    3.2399955750e+01   -6.6288702190e-02
    3.2499919891e+01   -6.6605098546e-02
    3.2600017548e+01   -6.6924199462e-02
    3.2699851990e+01   -6.7242503166e-02
    3.2799995422e+01   -6.7559398711e-02
    3.2899856567e+01   -6.7872397602e-02
    3.3000007629e+01   -6.8187899888e-02
    3.3099979401e+01   -6.8507201970e-02
    3.3200016022e+01   -6.8833097816e-02
    3.3299987793e+01   -6.9164097309e-02
    3.3399864197e+01   -6.9501399994e-02
    3.3499961853e+01   -6.9847702980e-02
    3.3599975586e+01   -7.0201501250e-02
    3.3700000763e+01   -7.0560798049e-02
    3.3799991608e+01   -7.0926100016e-02
    3.3900009155e+01   -7.1297802031e-02
    3.4000007629e+01   -7.1674197912e-02
    3.4099880219e+01   -7.2055801749e-02
    3.4200004578e+01   -7.2444699705e-02
    3.4299964905e+01   -7.2841197252e-02
    3.4399917603e+01   -7.3245696723e-02
    3.4499828339e+01   -7.3658302426e-02
    3.4599933624e+01   -7.4079401791e-02
    3.4699954987e+01   -7.4508503079e-02
    3.4799873352e+01   -7.4944503605e-02
    3.4899955750e+01   -7.5386002660e-02
    3.4999908447e+01   -7.5830303133e-02
    3.5099910736e+01   -7.6276198030e-02
    3.5199901581e+01   -7.6724402606e-02
    3.5299911499e+01   -7.7178500593e-02
    3.5399845123e+01   -7.7638998628e-02
    3.5499839783e+01   -7.8105300665e-02
    3.5599937439e+01   -7.8578300774e-02
    3.5699993134e+01   -7.9057402909e-02
    3.5799934387e+01   -7.9542003572e-02
    3.5899810791e+01   -8.0033399165e-02
    3.5999977112e+01   -8.0534003675e-02
    3.6099861145e+01   -8.1038698554e-02
    3.6200016022e+01   -8.1550203264e-02
    3.6299839020e+01   -8.2066796720e-02
    3.6399993896e+01   -8.2591101527e-02
    3.6499908447e+01   -8.3123102784e-02
    3.6599979401e+01   -8.3664402366e-02
    3.6699825287e+01   -8.4209501743e-02
    3.6799823761e+01   -8.4759600461e-02
    3.6899974823e+01   -8.5317999125e-02
    3.6999916077e+01   -8.5882499814e-02
    3.7099925995e+01   -8.6453802884e-02
    3.7199920654e+01   -8.7028399110e-02
    3.7299957275e+01   -8.7604500353e-02
    3.7399879456e+01   -8.8185198605e-02
    3.7499877930e+01   -8.8771700859e-02
    3.7599975586e+01   -8.9362397790e-02
    3.7699924469e+01   -8.9956402779e-02
    3.7799831390e+01   -9.0556196868e-02
    3.7899868011e+01   -9.1163702309e-02
    3.7999893188e+01   -9.1778703034e-02
    3.8099914551e+01   -9.2401601374e-02
    3.8199794769e+01   -9.3029603362e-02
    3.8299816132e+01   -9.3665301800e-02
    3.8399826050e+01   -9.4307996333e-02
    3.8499778748e+01   -9.4956003129e-02
    3.8599788666e+01   -9.5610201359e-02
    3.8699916840e+01   -9.6273899078e-02
    3.8799854279e+01   -9.6941597760e-02
    3.8899909973e+01   -9.7613900900e-02
    3.8999935150e+01   -9.8289996386e-02
    3.9099838257e+01   -9.8970301449e-02
    3.9199783325e+01   -9.9656701088e-02
    3.9299758911e+01   -1.0034900159e-01
    3.9399883270e+01   -1.0104700178e-01
    3.9499965668e+01   -1.0174900293e-01
    3.9599819183e+01   -1.0245499760e-01
    3.9699924469e+01   -1.0316900164e-01
    3.9799835205e+01   -1.0388699919e-01
    3.9899757385e+01   -1.0460899770e-01
    3.9999778748e+01   -1.0533600301e-01
    4.0099807739e+01   -1.0606399924e-01
    4.0199932098e+01   -1.0679599643e-01
    4.0299900055e+01   -1.0752899945e-01
    4.0399944305e+01   -1.0826499760e-01
    4.0499847412e+01   -1.0900299996e-01
    4.0599800110e+01   -1.0974399745e-01
    4.0699798584e+01   -1.1049100012e-01
    4.0799919128e+01   -1.1124700308e-01
    4.0899780273e+01   -1.1200500280e-01
    4.0999797821e+01   -1.1275999993e-01
    4.1099735260e+01   -1.1350999773e-01
    4.1199829102e+01   -1.1426100135e-01
    4.1299777985e+01   -1.1501500010e-01
    4.1399822235e+01   -1.1577600241e-01
    4.1499774933e+01   -1.1654199660e-01
    4.1599792480e+01   -1.1731699854e-01
    4.1699855804e+01   -1.1810199916e-01
    4.1799743652e+01   -1.1889400333e-01
    4.1899883270e+01   -1.1969599873e-01
    4.1999763489e+01   -1.2050300092e-01
    4.2099826813e+01   -1.2132100016e-01
    4.2199840546e+01   -1.2214499712e-01
    4.2299713135e+01   -1.2297300249e-01
    4.2399791718e+01   -1.2381000072e-01
    4.2499843597e+01   -1.2465500087e-01
    4.2599903107e+01   -1.2550400198e-01
    4.2699798584e+01   -1.2635299563e-01
    4.2799884796e+01   -1.2720300257e-01
    4.2899871826e+01   -1.2804800272e-01
    4.2999790192e+01   -1.2889599800e-01
    4.3099830627e+01   -1.2974999845e-01
    4.3199855804e+01   -1.3061200082e-01
    4.3299774170e+01   -1.3148200512e-01
    4.3399753571e+01   -1.3235999644e-01
    4.3499862671e+01   -1.3324999809e-01
    4.3599750519e+01   -1.3414900005e-01
    4.3699890137e+01   -1.3505700231e-01
    4.3799900055e+01   -1.3597099483e-01
    4.3899784088e+01   -1.3689300418e-01
    4.3999893188e+01   -1.3782300055e-01
    4.4099800110e+01   -1.3875700533e-01
    4.4199703217e+01   -1.3969899714e-01
    4.4299705505e+01   -1.4065200090e-01
    4.4399883270e+01   -1.4161600173e-01
    4.4499885559e+01   -1.4258700609e-01
    4.4599761963e+01   -1.4356499910e-01
    4.4699752808e+01   -1.4455300570e-01
    4.4799789429e+01   -1.4555099607e-01
    4.4899738312e+01   -1.4655299485e-01
    4.4999687195e+01   -1.4755700529e-01
    4.5099723816e+01   -1.4856199920e-01
    4.5199756622e+01   -1.4956699312e-01
    4.5299682617e+01   -1.5057699382e-01
    4.5399795532e+01   -1.5159399807e-01
    4.5499702454e+01   -1.5261299908e-01
    4.5599853516e+01   -1.5363900363e-01
    4.5699703217e+01   -1.5466700494e-01
    4.5799716949e+01   -1.5570099652e-01
    4.5899711609e+01   -1.5673899651e-01
    4.5999744415e+01   -1.5778400004e-01
    4.6099735260e+01   -1.5883199871e-01
    4.6199752808e+01   -1.5988500416e-01
    4.6299736023e+01   -1.6094100475e-01
    4.6399768829e+01   -1.6200199723e-01
    4.6499744415e+01   -1.6306899488e-01
    4.6599681854e+01   -1.6414399445e-01
    4.6699802399e+01   -1.6522200406e-01
    4.6799652100e+01   -1.6629900038e-01
    4.6899806976e+01   -1.6738399863e-01
    4.6999652863e+01   -1.6846899688e-01
    4.7099697113e+01   -1.6956000030e-01
    4.7199802399e+01   -1.7065200210e-01
    4.7299671173e+01   -1.7173700035e-01
    4.7399833679e+01   -1.7282499373e-01
    4.7499713898e+01   -1.7391300201e-01
    4.7599830627e+01   -1.7500099540e-01
    4.7699699402e+01   -1.7608599365e-01
    4.7799736023e+01   -1.7717400193e-01
    4.7899791718e+01   -1.7826600373e-01
    4.7999740601e+01   -1.7936000228e-01
    4.8099731445e+01   -1.8045799434e-01
    4.8199649811e+01   -1.8155799806e-01
    4.8299701691e+01   -1.8266099691e-01
    4.8399677277e+01   -1.8376600742e-01
    4.8499656677e+01   -1.8487100303e-01
    4.8599678040e+01   -1.8597899377e-01
    4.8699718475e+01   -1.8709099293e-01
    4.8799751282e+01   -1.8820500374e-01
    4.8899623871e+01   -1.8931500614e-01
    4.8999767303e+01   -1.9042700529e-01
    4.9099685669e+01   -1.9153599441e-01
    4.9199615479e+01   -1.9264599681e-01
    4.9299808502e+01   -1.9375799596e-01
    4.9399639130e+01   -1.9486500323e-01
    4.9499610901e+01   -1.9597199559e-01
    4.9599811554e+01   -1.9708099961e-01
    4.9699596405e+01   -1.9818699360e-01
    4.9799747467e+01   -1.9929599762e-01
    4.9899719238e+01   -2.0040099323e-01
    4.9999626160e+01   -2.0150199533e-01
    5.0099685669e+01   -2.0260100067e-01
    5.0199676514e+01   -2.0369400084e-01
    5.0299667358e+01   -2.0478199422e-01
    5.0399646759e+01   -2.0586599410e-01
    5.0499629974e+01   -2.0694500208e-01
    5.0599639893e+01   -2.0802000165e-01
    5.0699691772e+01   -2.0909300447e-01
    5.0799648285e+01   -2.1016900241e-01
    5.0899631500e+01   -2.1124300361e-01
    5.0999614716e+01   -2.1230399609e-01
    5.1099700928e+01   -2.1335199475e-01
    5.1199695587e+01   -2.1438999474e-01
    5.1299648285e+01   -2.1542499959e-01
    5.1399738312e+01   -2.1645799279e-01
    5.1499694824e+01   -2.1749199927e-01
    5.1599666595e+01   -2.1852800250e-01
    5.1699573517e+01   -2.1956799924e-01
    5.1799713135e+01   -2.2061300278e-01
    5.1899635315e+01   -2.2165800631e-01
    5.1999603271e+01   -2.2270600498e-01
    5.2099681854e+01   -2.2375899553e-01
    5.2199657440e+01   -2.2481299937e-01
    5.2299705505e+01   -2.2586700320e-01
    5.2399719238e+01   -2.2692300379e-01
    5.2499656677e+01   -2.2798100114e-01
    5.2599555969e+01   -2.2903700173e-01
    5.2699668884e+01   -2.3009000719e-01
    5.2799690247e+01   -2.3113299906e-01
    5.2899730682e+01   -2.3216600716e-01
    5.2999561310e+01   -2.3319199681e-01
    5.3099609375e+01   -2.3421899974e-01
    5.3199691772e+01   -2.3524999619e-01
    5.3299663544e+01   -2.3628099263e-01
    5.3399745941e+01   -2.3731599748e-01
    5.3499675751e+01   -2.3835599422e-01
    5.3599544525e+01   -2.3939999938e-01
    5.3699661255e+01   -2.4044799805e-01
    5.3799629211e+01   -2.4149699509e-01
    5.3899635315e+01   -2.4255099893e-01
    5.3999565125e+01   -2.4360600114e-01
    5.4099536896e+01   -2.4466599524e-01
    5.4199623108e+01   -2.4573099613e-01
    5.4299598694e+01   -2.4680300057e-01
    5.4399536133e+01   -2.4788300693e-01
    5.4499610901e+01   -2.4897000194e-01
    5.4599662781e+01   -2.5006198883e-01
    5.4699691772e+01   -2.5116100907e-01
    5.4799571991e+01   -2.5226500630e-01
    5.4899662018e+01   -2.5337299705e-01
    5.4999626160e+01   -2.5447601080e-01
    5.5099693298e+01   -2.5557398796e-01
    5.5199710846e+01   -2.5666800141e-01
    5.5299575806e+01   -2.5775998831e-01
    5.5399593353e+01   -2.5885701180e-01
    5.5499725342e+01   -2.5995600224e-01
    5.5599666595e+01   -2.6105099916e-01
    5.5699638367e+01   -2.6214799285e-01
    5.5799564362e+01   -2.6324599981e-01
    5.5899692535e+01   -2.6434698701e-01
    5.5999519348e+01   -2.6544800401e-01
    5.6099552155e+01   -2.6655301452e-01
    5.6199508667e+01   -2.6765701175e-01
    5.6299510956e+01   -2.6876500249e-01
    5.6399520874e+01   -2.6987498999e-01
    5.6499530792e+01   -2.7099099755e-01
    5.6599666595e+01   -2.7211600542e-01
    5.6699554443e+01   -2.7323800325e-01
    5.6799636841e+01   -2.7436301112e-01
    5.6899524689e+01   -2.7548900247e-01
    5.6999656677e+01   -2.7662101388e-01
    5.7099506378e+01   -2.7775099874e-01
    5.7199676514e+01   -2.7888301015e-01
    5.7299606323e+01   -2.8000399470e-01
    5.7399631500e+01   -2.8112399578e-01
    5.7499687195e+01   -2.8224501014e-01
    5.7599567413e+01   -2.8335800767e-01
    5.7699501038e+01   -2.8446900845e-01
    5.7799549103e+01   -2.8558000922e-01
    5.7899608612e+01   -2.8669300675e-01
    5.7999618530e+01   -2.8780901432e-01
    5.8099586487e+01   -2.8892800212e-01
    5.8199668884e+01   -2.9005101323e-01
    5.8299545288e+01   -2.9117399454e-01
    5.8399646759e+01   -2.9230201244e-01
    5.8499511719e+01   -2.9342800379e-01
    5.8599620819e+01   -2.9455998540e-01
    5.8699630737e+01   -2.9569700360e-01
    5.8799545288e+01   -2.9683500528e-01
    5.8899639130e+01   -2.9797399044e-01
    5.8999530792e+01   -2.9910999537e-01
    5.9099460602e+01   -3.0024701357e-01
    5.9199504852e+01   -3.0138799548e-01
    5.9299480438e+01   -3.0252900720e-01
    5.9399562836e+01   -3.0366998911e-01
    5.9499565125e+01   -3.0480900407e-01
    5.9599658966e+01   -3.0594998598e-01
    5.9699554443e+01   -3.0709001422e-01
    5.9799472809e+01   -3.0823001266e-01
    5.9899600983e+01   -3.0937001109e-01
    5.9999465942e+01   -3.1050598621e-01
    6.0099582672e+01   -3.1163901091e-01
    6.0199554443e+01   -3.1276699901e-01
    6.0299484253e+01   -3.1389099360e-01
    6.0399536133e+01   -3.1501299143e-01
    6.0499519348e+01   -3.1613099575e-01
    6.0599563599e+01   -3.1724798679e-01
    6.0699558258e+01   -3.1836301088e-01
    6.0799499512e+01   -3.1948500872e-01
    6.0899497986e+01   -3.2060799003e-01
    6.0999469757e+01   -3.2171699405e-01
    6.1099544525e+01   -3.2281199098e-01
    6.1199432373e+01   -3.2389900088e-01
    6.1299583435e+01   -3.2498899102e-01
    6.1399444580e+01   -3.2607701421e-01
    6.1499572754e+01   -3.2717201114e-01
    6.1599548340e+01   -3.2827201486e-01
    6.1699455261e+01   -3.2938000560e-01
    6.1799560547e+01   -3.3049800992e-01
    6.1899486542e+01   -3.3161801100e-01
    6.1999435425e+01   -3.3274599910e-01
    6.2099456787e+01   -3.3388099074e-01
    6.2199558258e+01   -3.3502298594e-01
    6.2299617767e+01   -3.3616900444e-01
    6.2399425507e+01   -3.3731898665e-01
    6.2499603271e+01   -3.3848199248e-01
    6.2599567413e+01   -3.3964601159e-01
    6.2699413300e+01   -3.4080898762e-01
    6.2799507141e+01   -3.4196799994e-01
    6.2899589539e+01   -3.4311801195e-01
    6.2999412537e+01   -3.4426599741e-01
    6.3099422455e+01   -3.4542098641e-01
    6.3199455261e+01   -3.4658598900e-01
    6.3299446106e+01   -3.4775999188e-01
    6.3399456024e+01   -3.4894201159e-01
    6.3499397278e+01   -3.5013398528e-01
    6.3599533081e+01   -3.5134100914e-01
    6.3699489594e+01   -3.5255399346e-01
    6.3799480438e+01   -3.5377401114e-01
    6.3899570465e+01   -3.5500600934e-01
    6.3999572754e+01   -3.5624599457e-01
    6.4099426270e+01   -3.5749301314e-01
    6.4199584961e+01   -3.5875499249e-01
    6.4299537659e+01   -3.6002901196e-01
    6.4399421692e+01   -3.6131900549e-01
    6.4499435425e+01   -3.6262300611e-01
    6.4599548340e+01   -3.6394301057e-01
    6.4699539185e+01   -3.6527600884e-01
    6.4799568176e+01   -3.6662399769e-01
    6.4899490356e+01   -3.6797899008e-01
    6.4999450684e+01   -3.6934000254e-01
    6.5099456787e+01   -3.7070098519e-01
    6.5199470520e+01   -3.7206500769e-01
    6.5299545288e+01   -3.7343600392e-01
    6.5399368286e+01   -3.7481400371e-01
    6.5499343872e+01   -3.7619999051e-01
    6.5599479675e+01   -3.7759399414e-01
    6.5699546814e+01   -3.7899398804e-01
    6.5799415588e+01   -3.8039699197e-01
    6.5899414062e+01   -3.8180699944e-01
    6.5999420166e+01   -3.8322699070e-01
    6.6099540710e+01   -3.8465198874e-01
    6.6199424744e+01   -3.8607999682e-01
    6.6299369812e+01   -3.8751500845e-01
    6.6399436951e+01   -3.8896000385e-01
    6.6499336243e+01   -3.9041700959e-01
    6.6599365234e+01   -3.9188900590e-01
    6.6699462891e+01   -3.9336898923e-01
    6.6799446106e+01   -3.9485201240e-01
    6.6899482727e+01   -3.9634698629e-01
    6.6999427795e+01   -3.9785000682e-01
    6.7099525452e+01   -3.9936500788e-01
    6.7199378967e+01   -4.0088099241e-01
    6.7299499512e+01   -4.0239799023e-01
    6.7399513245e+01   -4.0391901135e-01
    6.7499488831e+01   -4.0544599295e-01
    6.7599449158e+01   -4.0697398782e-01
    6.7699432373e+01   -4.0850299597e-01
    6.7799400330e+01   -4.1003501415e-01
    6.7899360657e+01   -4.1157400608e-01
    6.7999481201e+01   -4.1312101483e-01
    6.8099403381e+01   -4.1467100382e-01
    6.8199508667e+01   -4.1622799635e-01
    6.8299400330e+01   -4.1778698564e-01
    6.8399353027e+01   -4.1935300827e-01
    6.8499351501e+01   -4.2092400789e-01
    6.8599487305e+01   -4.2250299454e-01
    6.8699516296e+01   -4.2409199476e-01
    6.8799362183e+01   -4.2568299174e-01
    6.8899291992e+01   -4.2728000879e-01
    6.8999465942e+01   -4.2888298631e-01
    6.9099456787e+01   -4.3048900366e-01
    6.9199325562e+01   -4.3210199475e-01
    6.9299392700e+01   -4.3372499943e-01
    6.9399482727e+01   -4.3535199761e-01
    6.9499481201e+01   -4.3698298931e-01
    6.9599464417e+01   -4.3862000108e-01
    6.9699409485e+01   -4.4026499987e-01
    6.9799278259e+01   -4.4191101193e-01
    6.9899353027e+01   -4.4356301427e-01
    6.9999443054e+01   -4.4521498680e-01
    7.0099296570e+01   -4.4685900211e-01
    7.0199432373e+01   -4.4850200415e-01
    7.0299468994e+01   -4.5013999939e-01
    7.0399482727e+01   -4.5177200437e-01
    7.0499465942e+01   -4.5340099931e-01
    7.0599403381e+01   -4.5502701402e-01
    7.0699348450e+01   -4.5665100217e-01
    7.0799446106e+01   -4.5828399062e-01
    7.0899421692e+01   -4.5991599560e-01
    7.0999412537e+01   -4.6153500676e-01
    7.1099365234e+01   -4.6313801408e-01
    7.1199287415e+01   -4.6473199129e-01
    7.1299369812e+01   -4.6632900834e-01
    7.1399360657e+01   -4.6792599559e-01
    7.1499412537e+01   -4.6953099966e-01
    7.1599433899e+01   -4.7114399076e-01
    7.1699432373e+01   -4.7276800871e-01
    7.1799446106e+01   -4.7439798713e-01
    7.1899307251e+01   -4.7603300214e-01
    7.1999305725e+01   -4.7767600417e-01
    7.2099304199e+01   -4.7932499647e-01
    7.2199462891e+01   -4.8098000884e-01
    7.2299308777e+01   -4.8263299465e-01
    7.2399261475e+01   -4.8429098725e-01
    7.2499252319e+01   -4.8595300317e-01
    7.2599418640e+01   -4.8761698604e-01
    7.2699394226e+01   -4.8927500844e-01
    7.2799438477e+01   -4.9092400074e-01
    7.2899368286e+01   -4.9255499244e-01
    7.2999374390e+01   -4.9418398738e-01
    7.3099311829e+01   -4.9581199884e-01
    7.3199356079e+01   -4.9744799733e-01
    7.3299224854e+01   -4.9908500910e-01
    7.3399345398e+01   -5.0073200464e-01
    7.3499366760e+01   -5.0238400698e-01
    7.3599327087e+01   -5.0404500961e-01
    7.3699249268e+01   -5.0571101904e-01
    7.3799324036e+01   -5.0738400221e-01
    7.3899368286e+01   -5.0906497240e-01
    7.3999382019e+01   -5.1074999571e-01
    7.4099380493e+01   -5.1244199276e-01
    7.4199363708e+01   -5.1414102316e-01
    7.4299316406e+01   -5.1585102081e-01
    7.4399253845e+01   -5.1757097244e-01
    7.4499412537e+01   -5.1930099726e-01
    7.4599296570e+01   -5.2103298903e-01
    7.4699409485e+01   -5.2277702093e-01
    7.4799354553e+01   -5.2452802658e-01
    7.4899284363e+01   -5.2628201246e-01
    7.4999206543e+01   -5.2803397179e-01
    7.5099205017e+01   -5.2977800369e-01
    7.5199317932e+01   -5.3151601553e-01
    7.5299339294e+01   -5.3325200081e-01
    7.5399337769e+01   -5.3498899937e-01
    7.5499191284e+01   -5.3672200441e-01
    7.5599342346e+01   -5.3845798969e-01
    7.5699386597e+01   -5.4018998146e-01
    7.5799392700e+01   -5.4191899300e-01
    7.5899322510e+01   -5.4364502430e-01
    7.5999389648e+01   -5.4537397623e-01
    7.6099403381e+01   -5.4710000753e-01
    7.6199203491e+01   -5.4882001877e-01
    7.6299346924e+01   -5.5054402351e-01
    7.6399261475e+01   -5.5226200819e-01
    7.6499305725e+01   -5.5398797989e-01
    7.6599304199e+01   -5.5571800470e-01
    7.6699218750e+01   -5.5744397640e-01
    7.6799270630e+01   -5.5917000771e-01
    7.6899269104e+01   -5.6089502573e-01
    7.6999343872e+01   -5.6262201071e-01
    7.7099189758e+01   -5.6434500217e-01
    7.7199188232e+01   -5.6606197357e-01
    7.7299247742e+01   -5.6776702404e-01
    7.7399238586e+01   -5.6946402788e-01
    7.7499320984e+01   -5.7115900517e-01
    7.7599205017e+01   -5.7283902168e-01
    7.7699378967e+01   -5.7451397181e-01
    7.7799186707e+01   -5.7617497444e-01
    7.7899261475e+01   -5.7783699036e-01
    7.7999320984e+01   -5.7949501276e-01
    7.8099334717e+01   -5.8114802837e-01
    7.8199234009e+01   -5.8279401064e-01
    7.8299194336e+01   -5.8443397284e-01
    7.8399345398e+01   -5.8607202768e-01
    7.8499305725e+01   -5.8769899607e-01
    7.8599227905e+01   -5.8932000399e-01
    7.8699157715e+01   -5.9094202518e-01
    7.8799179077e+01   -5.9256297350e-01
    7.8899230957e+01   -5.9417700768e-01
    7.8999183655e+01   -5.9578102827e-01
    7.9099304199e+01   -5.9738498926e-01
    7.9199295044e+01   -5.9898400307e-01
    7.9299331665e+01   -6.0057997704e-01
    7.9399345398e+01   -6.0216897726e-01
    7.9499176025e+01   -6.0374802351e-01
    7.9599327087e+01   -6.0532701015e-01
    7.9699317932e+01   -6.0689902306e-01
    7.9799293518e+01   -6.0846400261e-01
    7.9899314880e+01   -6.1002099514e-01
    7.9999259949e+01   -6.1156600714e-01
    8.0099311829e+01   -6.1309802532e-01
    8.0199172974e+01   -6.1461299658e-01
    8.0299324036e+01   -6.1611700058e-01
    8.0399116516e+01   -6.1759799719e-01
    8.0499320984e+01   -6.1906999350e-01
    8.0599327087e+01   -6.2052601576e-01
    8.0699157715e+01   -6.2196701765e-01
    8.0799247742e+01   -6.2340700626e-01
    8.0899261475e+01   -6.2483698130e-01
    8.0999305725e+01   -6.2624102831e-01
    8.1099128723e+01   -6.2761402130e-01
    8.1199234009e+01   -6.2897402048e-01
    8.1299201965e+01   -6.3032001257e-01
    8.1399314880e+01   -6.3166099787e-01
    8.1499206543e+01   -6.3299602270e-01
    8.1599288940e+01   -6.3433200121e-01
    8.1699142456e+01   -6.3566702604e-01
    8.1799148560e+01   -6.3700199127e-01
    8.1899230957e+01   -6.3833498955e-01
    8.1999237061e+01   -6.3966602087e-01
    8.2099143982e+01   -6.4099401236e-01
    8.2199150085e+01   -6.4231801033e-01
    8.2299232483e+01   -6.4363497496e-01
    8.2399261475e+01   -6.4494699240e-01
    8.2499206543e+01   -6.4625400305e-01
    8.2599227905e+01   -6.4755201340e-01
    8.2699218750e+01   -6.4883798361e-01
    8.2799079895e+01   -6.5010100603e-01
    8.2899177551e+01   -6.5134298801e-01
    8.2999290466e+01   -6.5257298946e-01
    8.3099075317e+01   -6.5379101038e-01
    8.3199264526e+01   -6.5501397848e-01
    8.3299148560e+01   -6.5622997284e-01
    8.3399276733e+01   -6.5744698048e-01
    8.3499237061e+01   -6.5865999460e-01
    8.3599136353e+01   -6.5987497568e-01
    8.3699256897e+01   -6.6109102964e-01
    8.3799087524e+01   -6.6230201721e-01
    8.3899261475e+01   -6.6351902485e-01
    8.3999275208e+01   -6.6473501921e-01
    8.4099273682e+01   -6.6595500708e-01
    8.4199188232e+01   -6.6717499495e-01
    8.4299263000e+01   -6.6840398312e-01
    8.4399230957e+01   -6.6963797808e-01
    8.4499137878e+01   -6.7087501287e-01
    8.4599258423e+01   -6.7211598158e-01
    8.4699195862e+01   -6.7335999012e-01
    8.4799247742e+01   -6.7461001873e-01
    8.4899253845e+01   -6.7585897446e-01
    8.4999198914e+01   -6.7710202932e-01
    8.5099052429e+01   -6.7833101749e-01
    8.5199050903e+01   -6.7954897881e-01
    8.5299072266e+01   -6.8076300621e-01
    8.5399154663e+01   -6.8197602034e-01
    8.5499069214e+01   -6.8318098783e-01
    8.5599258423e+01   -6.8438100815e-01
    8.5699234009e+01   -6.8557202816e-01
    8.5799194336e+01   -6.8675899506e-01
    8.5899215698e+01   -6.8794202805e-01
    8.5999221802e+01   -6.8912202120e-01
    8.6099235535e+01   -6.9029700756e-01
    8.6199050903e+01   -6.9146502018e-01
    8.6299240112e+01   -6.9263499975e-01
    8.6399192810e+01   -6.9379800558e-01
    8.6499214172e+01   -6.9496601820e-01
    8.6599220276e+01   -6.9613802433e-01
    8.6699172974e+01   -6.9730699062e-01
    8.6799232483e+01   -6.9847398996e-01
    8.6899169922e+01   -6.9963997602e-01
    8.6999031067e+01   -7.0080500841e-01
    8.7099098206e+01   -7.0197200775e-01
    8.7199157715e+01   -7.0313298702e-01
    8.7299041748e+01   -7.0427697897e-01
    8.7399177551e+01   -7.0541602373e-01
    8.7499122620e+01   -7.0654797554e-01
    8.7599082947e+01   -7.0766901970e-01
    8.7699081421e+01   -7.0877897739e-01
    8.7799179077e+01   -7.0988100767e-01
    8.7899093628e+01   -7.1097600460e-01
    8.7999046326e+01   -7.1206897497e-01
    8.8099174500e+01   -7.1316099167e-01
    8.8199073792e+01   -7.1424502134e-01
    8.8299110413e+01   -7.1532499790e-01
    8.8399017334e+01   -7.1640098095e-01
    8.8499122620e+01   -7.1747297049e-01
    8.8599021912e+01   -7.1853899956e-01
    8.8699081421e+01   -7.1960699558e-01
    8.8799148560e+01   -7.2067600489e-01
    8.8899085999e+01   -7.2174000740e-01
    8.8999099731e+01   -7.2280198336e-01
    8.9099205017e+01   -7.2386401892e-01
    8.9199028015e+01   -7.2492599487e-01
    8.9299064636e+01   -7.2598797083e-01
    8.9399162292e+01   -7.2704797983e-01
    8.9499038696e+01   -7.2810202837e-01
    8.9599075317e+01   -7.2915601730e-01
    8.9699111938e+01   -7.3020899296e-01
    8.9799064636e+01   -7.3125702143e-01
    8.9899185181e+01   -7.3230099678e-01
    8.9998992920e+01   -7.3333299160e-01
    9.0099151611e+01   -7.3435699940e-01
    9.0199119568e+01   -7.3536801338e-01
    9.0299087524e+01   -7.3636502028e-01
    9.0399124146e+01   -7.3734897375e-01
    9.0498970032e+01   -7.3831802607e-01
    9.0599006653e+01   -7.3927801847e-01
    9.0699089050e+01   -7.4023097754e-01
    9.0799148560e+01   -7.4118602276e-01
    9.0899078369e+01   -7.4213397503e-01
    9.0999145508e+01   -7.4306100607e-01
    9.1099174500e+01   -7.4396002293e-01
    9.1198959351e+01   -7.4484300613e-01
    9.1299110413e+01   -7.4572402239e-01
    9.1399162292e+01   -7.4660402536e-01
    9.1499038696e+01   -7.4748802185e-01
    9.1599006653e+01   -7.4838197231e-01
    9.1698989868e+01   -7.4928700924e-01
    9.1799064636e+01   -7.5019800663e-01
    9.1899017334e+01   -7.5111502409e-01
    9.1999015808e+01   -7.5203901529e-01
    9.2099136353e+01   -7.5297099352e-01
    9.2198966980e+01   -7.5390297174e-01
    9.2299064636e+01   -7.5483900309e-01
    9.2399040222e+01   -7.5577598810e-01
    9.2499015808e+01   -7.5671601295e-01
    9.2599029541e+01   -7.5765198469e-01
    9.2698974609e+01   -7.5857901573e-01
    9.2798995972e+01   -7.5949102640e-01
    9.2899101257e+01   -7.6038700342e-01
    9.2998962402e+01   -7.6127398014e-01
    9.3099075317e+01   -7.6216602325e-01
    9.3199119568e+01   -7.6306599379e-01
    9.3299018860e+01   -7.6397097111e-01
    9.3398986816e+01   -7.6488500834e-01
    9.3499046326e+01   -7.6580798626e-01
    9.3598922729e+01   -7.6674401760e-01
    9.3699119568e+01   -7.6768898964e-01
    9.3799003601e+01   -7.6863998175e-01
    9.3898918152e+01   -7.6960301399e-01
    9.3998939514e+01   -7.7057701349e-01
    9.4098999023e+01   -7.7156597376e-01
    9.4199104309e+01   -7.7256900072e-01
    9.4299110413e+01   -7.7358901501e-01
    9.4398994446e+01   -7.7462500334e-01
    9.4499084473e+01   -7.7567702532e-01
    9.4599082947e+01   -7.7674102783e-01
    9.4698951721e+01   -7.7782100439e-01
    9.4799072266e+01   -7.7891802788e-01
    9.4898994446e+01   -7.8002101183e-01
    9.4998962402e+01   -7.8112602234e-01
    9.5098999023e+01   -7.8222697973e-01
    9.5199066162e+01   -7.8332400322e-01
    9.5298904419e+01   -7.8442198038e-01
    9.5398895264e+01   -7.8552997112e-01
    9.5499015808e+01   -7.8664100170e-01
    9.5598899841e+01   -7.8775101900e-01
    9.5699020386e+01   -7.8886699677e-01
    9.5799041748e+01   -7.8998500109e-01
    9.5898956299e+01   -7.9110497236e-01
    9.5999015808e+01   -7.9223299026e-01
    9.6099044800e+01   -7.9336398840e-01
    9.6199089050e+01   -7.9449898005e-01
    9.6299034119e+01   -7.9563999176e-01
    9.6398971558e+01   -7.9678601027e-01
    9.6499053955e+01   -7.9794502258e-01
    9.6599029541e+01   -7.9911601543e-01
    9.6699066162e+01   -8.0029398203e-01
    9.6799049377e+01   -8.0147498846e-01
    9.6898941040e+01   -8.0266398191e-01
    9.6998970032e+01   -8.0386197567e-01
    9.7099044800e+01   -8.0506801605e-01
    9.7199058533e+01   -8.0627399683e-01
    9.7298988342e+01   -8.0746799707e-01
    9.7399009705e+01   -8.0866301060e-01
    9.7499053955e+01   -8.0985999107e-01
    9.7599075317e+01   -8.1104999781e-01
    9.7699073792e+01   -8.1223297119e-01
    9.7798919678e+01   -8.1341201067e-01
    9.7898895264e+01   -8.1459397078e-01
    9.7999069214e+01   -8.1578201056e-01
    9.8098884583e+01   -8.1696999073e-01
    9.8199005127e+01   -8.1816101074e-01
    9.8298919678e+01   -8.1935101748e-01
    9.8398910522e+01   -8.2054299116e-01
    9.8499015808e+01   -8.2173401117e-01
    9.8598884583e+01   -8.2292401791e-01
    9.8699058533e+01   -8.2412397861e-01
    9.8799003601e+01   -8.2532697916e-01
    9.8898849487e+01   -8.2652801275e-01
    9.8998855591e+01   -8.2773298025e-01
    9.9098876953e+01   -8.2893997431e-01
    9.9199005127e+01   -8.3015501499e-01
    9.9298965454e+01   -8.3137202263e-01
    9.9398902893e+01   -8.3258897066e-01
    9.9498863220e+01   -8.3380597830e-01
    9.9599044800e+01   -8.3502697945e-01
    9.9698966980e+01   -8.3624601364e-01
    9.9798950195e+01   -8.3746302128e-01
    9.9898834229e+01   -8.3867597580e-01
    9.9998825073e+01   -8.3988398314e-01
    1.0009898376e+02   -8.4108102322e-01
    1.0019901276e+02   -8.4226697683e-01
    1.0029886627e+02   -8.4343701601e-01
    1.0039890289e+02   -8.4459400177e-01
    1.0049902344e+02   -8.4574002028e-01
    1.0059900665e+02   -8.4687101841e-01
    1.0069889832e+02   -8.4799200296e-01
    1.0079897308e+02   -8.4912097454e-01
    1.0089884186e+02   -8.5023897886e-01
    1.0099902344e+02   -8.5133302212e-01
    1.0109886932e+02   -8.5238999128e-01
    1.0119885254e+02   -8.5343098640e-01
    1.0129898834e+02   -8.5446900129e-01
    1.0139900208e+02   -8.5550600290e-01
    1.0149897003e+02   -8.5654997826e-01
    1.0159896088e+02   -8.5760301352e-01
    1.0169898987e+02   -8.5866999626e-01
    1.0179892731e+02   -8.5974299908e-01
    1.0189880371e+02   -8.6082202196e-01
    1.0199880981e+02   -8.6191099882e-01
    1.0209893799e+02   -8.6300897598e-01
    1.0219882965e+02   -8.6410701275e-01
    1.0229879761e+02   -8.6520600319e-01
    1.0239878845e+02   -8.6630898714e-01
    1.0249894714e+02   -8.6741501093e-01
    1.0259896088e+02   -8.6851400137e-01
    1.0269893646e+02   -8.6959797144e-01
    1.0279888916e+02   -8.7066000700e-01
    1.0289895630e+02   -8.7169897556e-01
    1.0299890900e+02   -8.7272602320e-01
    1.0309889984e+02   -8.7375098467e-01
    1.0319882202e+02   -8.7478399277e-01
    1.0329881287e+02   -8.7582200766e-01
    1.0339878082e+02   -8.7686401606e-01
    1.0349893188e+02   -8.7791502476e-01
    1.0359895325e+02   -8.7897801399e-01
    1.0369880676e+02   -8.8004302979e-01
    1.0379884338e+02   -8.8111501932e-01
    1.0389894104e+02   -8.8219797611e-01
    1.0399894714e+02   -8.8328802586e-01
    1.0409890747e+02   -8.8438898325e-01
    1.0419888306e+02   -8.8550198078e-01
    1.0429885101e+02   -8.8663202524e-01
    1.0439877319e+02   -8.8777798414e-01
    1.0449878693e+02   -8.8893800974e-01
    1.0459877777e+02   -8.9010900259e-01
    1.0469895172e+02   -8.9129799604e-01
    1.0479891968e+02   -8.9249801636e-01
    1.0489895630e+02   -8.9370101690e-01
    1.0499881744e+02   -8.9489799738e-01
    1.0509893799e+02   -8.9608502388e-01
    1.0519880676e+02   -8.9725697041e-01
    1.0529894257e+02   -8.9843100309e-01
    1.0539895630e+02   -8.9960497618e-01
    1.0549884033e+02   -9.0077298880e-01
    1.0559873962e+02   -9.0193498135e-01
    1.0569889832e+02   -9.0309697390e-01
    1.0579895020e+02   -9.0425401926e-01
    1.0589877319e+02   -9.0540397167e-01
    1.0599878693e+02   -9.0655601025e-01
    1.0609889984e+02   -9.0770500898e-01
    1.0619886780e+02   -9.0884900093e-01
    1.0629882050e+02   -9.0999400616e-01
    1.0639894104e+02   -9.1114097834e-01
    1.0649875641e+02   -9.1229200363e-01
    1.0659877014e+02   -9.1345500946e-01
    1.0669879913e+02   -9.1461700201e-01
    1.0679876709e+02   -9.1577601433e-01
    1.0689888000e+02   -9.1693997383e-01
    1.0699890137e+02   -9.1810697317e-01
    1.0709871674e+02   -9.1927200556e-01
    1.0719885254e+02   -9.2043197155e-01
    1.0729888153e+02   -9.2157101631e-01
    1.0739882660e+02   -9.2270100117e-01
    1.0749890137e+02   -9.2382502556e-01
    1.0759877014e+02   -9.2493098974e-01
    1.0769892120e+02   -9.2602497339e-01
    1.0779872894e+02   -9.2710298300e-01
    1.0789877319e+02   -9.2817598581e-01
    1.0799880219e+02   -9.2924499512e-01
    1.0809880829e+02   -9.3030899763e-01
    1.0819882965e+02   -9.3136501312e-01
    1.0829878235e+02   -9.3241202831e-01
    1.0839881134e+02   -9.3345397711e-01
    1.0849873352e+02   -9.3448501825e-01
    1.0859876251e+02   -9.3551099300e-01
    1.0869891357e+02   -9.3653899431e-01
    1.0879875946e+02   -9.3756300211e-01
    1.0889871216e+02   -9.3857997656e-01
    1.0899878693e+02   -9.3959200382e-01
    1.0909886169e+02   -9.4060099125e-01
    1.0919888306e+02   -9.4160801172e-01
    1.0929886627e+02   -9.4261300564e-01
    1.0939882660e+02   -9.4361102581e-01
    1.0949874878e+02   -9.4460099936e-01
    1.0959880829e+02   -9.4558602571e-01
    1.0969870758e+02   -9.4656598568e-01
    1.0979886627e+02   -9.4753897190e-01
    1.0989874268e+02   -9.4849598408e-01
    1.0999870300e+02   -9.4943702221e-01
    1.1009868622e+02   -9.5035600662e-01
    1.1019883728e+02   -9.5125699043e-01
    1.1029869080e+02   -9.5213097334e-01
    1.1039888000e+02   -9.5298302174e-01
    1.1049868011e+02   -9.5380997658e-01
    1.1059870911e+02   -9.5461499691e-01
    1.1069869232e+02   -9.5540499687e-01
    1.1079868317e+02   -9.5619398355e-01
    1.1089875793e+02   -9.5696902275e-01
    1.1099880981e+02   -9.5770400763e-01
    1.1109874725e+02   -9.5839202404e-01
    1.1119875336e+02   -9.5905399323e-01
    1.1129885101e+02   -9.5970499516e-01
    1.1139875793e+02   -9.6034997702e-01
    1.1149868011e+02   -9.6100002527e-01
    1.1159880829e+02   -9.6166002750e-01
    1.1169870758e+02   -9.6233099699e-01
    1.1179866028e+02   -9.6300697327e-01
    1.1189874268e+02   -9.6368998289e-01
    1.1199868011e+02   -9.6437799931e-01
    1.1209882355e+02   -9.6507400274e-01
    1.1219883728e+02   -9.6576702595e-01
    1.1229881287e+02   -9.6645599604e-01
    1.1239875793e+02   -9.6714699268e-01
    1.1249864960e+02   -9.6783798933e-01
    1.1259873962e+02   -9.6851801872e-01
    1.1269880676e+02   -9.6917998791e-01
    1.1279872131e+02   -9.6981102228e-01
    1.1289871979e+02   -9.7041100264e-01
    1.1299864197e+02   -9.7099798918e-01
    1.1309868622e+02   -9.7158098221e-01
    1.1319875336e+02   -9.7217297554e-01
    1.1329866028e+02   -9.7276699543e-01
    1.1339881897e+02   -9.7336697578e-01
    1.1349875641e+02   -9.7397398949e-01
    1.1359870148e+02   -9.7459501028e-01
    1.1369866943e+02   -9.7522199154e-01
    1.1379882050e+02   -9.7585898638e-01
    1.1389869690e+02   -9.7650498152e-01
    1.1399880981e+02   -9.7716200352e-01
    1.1409880829e+02   -9.7783499956e-01
    1.1419876099e+02   -9.7852402925e-01
    1.1429862213e+02   -9.7923302650e-01
    1.1439881134e+02   -9.7996598482e-01
    1.1449861908e+02   -9.8071300983e-01
    1.1459861755e+02   -9.8147702217e-01
    1.1469873810e+02   -9.8226398230e-01
    1.1479866028e+02   -9.8306798935e-01
    1.1489880371e+02   -9.8387998343e-01
    1.1499874878e+02   -9.8469001055e-01
    1.1509864044e+02   -9.8548501730e-01
    1.1519866180e+02   -9.8627001047e-01
    1.1529873657e+02   -9.8705697060e-01
    1.1539862823e+02   -9.8784697056e-01
    1.1549864960e+02   -9.8863697052e-01
    1.1559864044e+02   -9.8942297697e-01
    1.1569872284e+02   -9.9020898342e-01
    1.1579876709e+02   -9.9099498987e-01
    1.1589861298e+02   -9.9177998304e-01
    1.1599858856e+02   -9.9257099628e-01
    1.1609876251e+02   -9.9336200953e-01
    1.1619873810e+02   -9.9415302277e-01
    1.1629866028e+02   -9.9495100975e-01
    1.1639871979e+02   -9.9575597048e-01
    1.1649861908e+02   -9.9657499790e-01
    1.1659861755e+02   -9.9741202593e-01
    1.1669863892e+02   -9.9825501442e-01
    1.1679866028e+02   -9.9910300970e-01
    1.1689864349e+02   -9.9996197224e-01
    1.1699877167e+02   -1.0008300543e+00
    1.1709867096e+02   -1.0017100573e+00
    1.1719860840e+02   -1.0025899410e+00
    1.1729866028e+02   -1.0034500360e+00
    1.1739859009e+02   -1.0043100119e+00
    1.1749874878e+02   -1.0051699877e+00
    1.1759866333e+02   -1.0060100555e+00
    1.1769863892e+02   -1.0068500042e+00
    1.1779869843e+02   -1.0076800585e+00
    1.1789853668e+02   -1.0085099936e+00
    1.1799865723e+02   -1.0093499422e+00
    1.1809863281e+02   -1.0101799965e+00
    1.1819859314e+02   -1.0110199451e+00
    1.1829866028e+02   -1.0118600130e+00
    1.1839856720e+02   -1.0126899481e+00
    1.1849861145e+02   -1.0135300159e+00
    1.1859871674e+02   -1.0143599510e+00
    1.1869860840e+02   -1.0152100325e+00
    1.1879866028e+02   -1.0160700083e+00
    1.1889864349e+02   -1.0169299841e+00
    1.1899855804e+02   -1.0177899599e+00
    1.1909863281e+02   -1.0186599493e+00
    1.1919860840e+02   -1.0195399523e+00
    1.1929866028e+02   -1.0204199553e+00
    1.1939856720e+02   -1.0213099718e+00
    1.1949859619e+02   -1.0221999884e+00
    1.1959854126e+02   -1.0231000185e+00
    1.1969866180e+02   -1.0240000486e+00
    1.1979857635e+02   -1.0248999596e+00
    1.1989871216e+02   -1.0257999897e+00
    1.1999859619e+02   -1.0266900063e+00
    1.2009871674e+02   -1.0275599957e+00
    1.2019866180e+02   -1.0284199715e+00
    1.2029859924e+02   -1.0292600393e+00
    1.2039862823e+02   -1.0300899744e+00
    1.2049858856e+02   -1.0308899879e+00
    1.2059854126e+02   -1.0316799879e+00
    1.2069873047e+02   -1.0324699879e+00
    1.2079866028e+02   -1.0332599878e+00
    1.2089868927e+02   -1.0340499878e+00
    1.2099851990e+02   -1.0348000526e+00
    1.2109860992e+02   -1.0355099440e+00
    1.2119869232e+02   -1.0362000465e+00
    1.2129868317e+02   -1.0368900299e+00
    1.2139851379e+02   -1.0375800133e+00
    1.2149870300e+02   -1.0382900238e+00
    1.2159864807e+02   -1.0390199423e+00
    1.2169867706e+02   -1.0397700071e+00
    1.2179866028e+02   -1.0405399799e+00
    1.2189852142e+02   -1.0413299799e+00
    1.2199868011e+02   -1.0421299934e+00
    1.2209860229e+02   -1.0429500341e+00
    1.2219854736e+02   -1.0437799692e+00
    1.2229855347e+02   -1.0446200371e+00
    1.2239852905e+02   -1.0454599857e+00
    1.2249858093e+02   -1.0463199615e+00
    1.2259857941e+02   -1.0471700430e+00
    1.2269853210e+02   -1.0480099916e+00
    1.2279856110e+02   -1.0488300323e+00
    1.2289859772e+02   -1.0496200323e+00
    1.2299862671e+02   -1.0504000187e+00
    1.2309864807e+02   -1.0511800051e+00
    1.2319857025e+02   -1.0519900322e+00
    1.2329860687e+02   -1.0528000593e+00
    1.2339853668e+02   -1.0536299944e+00
    1.2349865723e+02   -1.0544799566e+00
    1.2359864044e+02   -1.0553499460e+00
    1.2369853210e+02   -1.0562399626e+00
    1.2379850006e+02   -1.0571399927e+00
    1.2389852142e+02   -1.0580699444e+00
    1.2399861145e+02   -1.0590200424e+00
    1.2409864807e+02   -1.0599999428e+00
    1.2419862366e+02   -1.0609999895e+00
    1.2429850769e+02   -1.0620299578e+00
    1.2439851379e+02   -1.0630999804e+00
    1.2449864960e+02   -1.0641900301e+00
    1.2459854889e+02   -1.0653100014e+00
    1.2469853973e+02   -1.0664499998e+00
    1.2479853058e+02   -1.0676300526e+00
    1.2489864349e+02   -1.0688199997e+00
    1.2499861145e+02   -1.0700199604e+00
    1.2509845734e+02   -1.0712000132e+00
    1.2519853973e+02   -1.0723799467e+00
    1.2529847717e+02   -1.0735700130e+00
    1.2539862061e+02   -1.0747599602e+00
    1.2549858856e+02   -1.0759600401e+00
    1.2559847260e+02   -1.0771600008e+00
    1.2569847870e+02   -1.0783599615e+00
    1.2579856873e+02   -1.0795700550e+00
    1.2589859772e+02   -1.0807900429e+00
    1.2599864197e+02   -1.0820100307e+00
    1.2609857178e+02   -1.0832400322e+00
    1.2619854736e+02   -1.0844800472e+00
    1.2629853058e+02   -1.0857199430e+00
    1.2639855194e+02   -1.0869799852e+00
    1.2649852753e+02   -1.0882600546e+00
    1.2659863281e+02   -1.0895600319e+00
    1.2669853973e+02   -1.0908700228e+00
    1.2679846954e+02   -1.0921900272e+00
    1.2689861298e+02   -1.0935200453e+00
    1.2699861145e+02   -1.0948699713e+00
    1.2709857941e+02   -1.0962300301e+00
    1.2719846344e+02   -1.0975999832e+00
    1.2729844666e+02   -1.0989400148e+00
    1.2739855194e+02   -1.1002800465e+00
    1.2749858856e+02   -1.1016299725e+00
    1.2759851837e+02   -1.1029599905e+00
    1.2769848633e+02   -1.1042799950e+00
    1.2779853058e+02   -1.1055899858e+00
    1.2789851379e+02   -1.1069099903e+00
    1.2799857330e+02   -1.1082299948e+00
    1.2809846497e+02   -1.1095499992e+00
    1.2819851685e+02   -1.1108700037e+00
    1.2829840088e+02   -1.1121900082e+00
    1.2839857483e+02   -1.1135100126e+00
    1.2849856567e+02   -1.1148300171e+00
    1.2859848022e+02   -1.1161500216e+00
    1.2869862366e+02   -1.1174800396e+00
    1.2879861450e+02   -1.1188199520e+00
    1.2889857483e+02   -1.1201599836e+00
    1.2899856567e+02   -1.1215000153e+00
    1.2909857178e+02   -1.1228499413e+00
    1.2919848633e+02   -1.1242100000e+00
    1.2929859924e+02   -1.1255799532e+00
    1.2939862061e+02   -1.1269400120e+00
    1.2949859619e+02   -1.1283099651e+00
    1.2959858704e+02   -1.1296700239e+00
    1.2969851685e+02   -1.1310399771e+00
    1.2979862976e+02   -1.1324100494e+00
    1.2989851379e+02   -1.1337699890e+00
    1.2999856567e+02   -1.1351100206e+00
    1.3009863281e+02   -1.1364400387e+00
    1.3019854736e+02   -1.1377400160e+00
    1.3029867554e+02   -1.1390199661e+00
    1.3039869690e+02   -1.1402699947e+00
    1.3049853516e+02   -1.1414999962e+00
    1.3059858704e+02   -1.1426999569e+00
    1.3069874573e+02   -1.1439000368e+00
    1.3079864502e+02   -1.1450899839e+00
    1.3089871216e+02   -1.1462800503e+00
    1.3099859619e+02   -1.1474200487e+00
    1.3109867859e+02   -1.1485099792e+00
    1.3119868469e+02   -1.1495699883e+00
    1.3129867554e+02   -1.1506199837e+00
    1.3139868164e+02   -1.1516699791e+00
    1.3149876404e+02   -1.1527400017e+00
    1.3159870911e+02   -1.1538200378e+00
    1.3169871521e+02   -1.1549199820e+00
    1.3179875183e+02   -1.1560300589e+00
    1.3189878845e+02   -1.1571500301e+00
    1.3199882507e+02   -1.1582900286e+00
    1.3209881592e+02   -1.1594400406e+00
    1.3219877625e+02   -1.1605800390e+00
    1.3229885864e+02   -1.1617300510e+00
    1.3239872742e+02   -1.1628799438e+00
    1.3249876404e+02   -1.1640299559e+00
    1.3259877014e+02   -1.1651699543e+00
    1.3269885254e+02   -1.1662900448e+00
    1.3279881287e+02   -1.1673699617e+00
    1.3289871216e+02   -1.1684199572e+00
    1.3299882507e+02   -1.1694500446e+00
    1.3309884644e+02   -1.1704699993e+00
    1.3319874573e+02   -1.1715099812e+00
    1.3329876709e+02   -1.1725499630e+00
    1.3339883423e+02   -1.1735999584e+00
    1.3349891663e+02   -1.1746599674e+00
    1.3359892273e+02   -1.1757299900e+00
    1.3369891357e+02   -1.1768200397e+00
    1.3379879761e+02   -1.1779099703e+00
    1.3389889526e+02   -1.1790299416e+00
    1.3399893188e+02   -1.1801600456e+00
    1.3409893799e+02   -1.1813000441e+00
    1.3419888306e+02   -1.1824699640e+00
    1.3429888916e+02   -1.1836700439e+00
    1.3439895630e+02   -1.1848900318e+00
    1.3449877930e+02   -1.1861399412e+00
    1.3459895325e+02   -1.1873999834e+00
    1.3469888306e+02   -1.1886800528e+00
    1.3479887390e+02   -1.1899900436e+00
    1.3489883423e+02   -1.1913000345e+00
    1.3499888611e+02   -1.1926200390e+00
    1.3509884644e+02   -1.1939100027e+00
    1.3519883728e+02   -1.1951800585e+00
    1.3529904175e+02   -1.1964499950e+00
    1.3539883423e+02   -1.1977299452e+00
    1.3549891663e+02   -1.1990000010e+00
    1.3559904480e+02   -1.2002600431e+00
    1.3569888306e+02   -1.2015099525e+00
    1.3579893494e+02   -1.2027599812e+00
    1.3589894104e+02   -1.2040100098e+00
    1.3599896240e+02   -1.2052600384e+00
    1.3609907532e+02   -1.2065099478e+00
    1.3619900513e+02   -1.2077499628e+00
    1.3629902649e+02   -1.2089999914e+00
    1.3639903259e+02   -1.2102500200e+00
    1.3649899292e+02   -1.2115199566e+00
    1.3659890747e+02   -1.2128100395e+00
    1.3669902039e+02   -1.2141000032e+00
    1.3679898071e+02   -1.2153899670e+00
    1.3689892578e+02   -1.2166800499e+00
    1.3699899292e+02   -1.2179900408e+00
    1.3709895325e+02   -1.2193000317e+00
    1.3719900513e+02   -1.2206100225e+00
    1.3729896545e+02   -1.2218799591e+00
    1.3739909363e+02   -1.2231500149e+00
    1.3749908447e+02   -1.2244100571e+00
    1.3759912109e+02   -1.2256499529e+00
    1.3769900513e+02   -1.2268600464e+00
    1.3779905701e+02   -1.2280600071e+00
    1.3789913940e+02   -1.2292499542e+00
    1.3799914551e+02   -1.2304400206e+00
    1.3809921265e+02   -1.2316299677e+00
    1.3819912720e+02   -1.2328100204e+00
    1.3829917908e+02   -1.2339799404e+00
    1.3839921570e+02   -1.2351399660e+00
    1.3849909973e+02   -1.2362999916e+00
    1.3859922791e+02   -1.2374500036e+00
    1.3869914246e+02   -1.2386000156e+00
    1.3879920959e+02   -1.2397700548e+00
    1.3889909363e+02   -1.2409199476e+00
    1.3899905396e+02   -1.2420799732e+00
    1.3909912109e+02   -1.2432299852e+00
    1.3919912720e+02   -1.2444000244e+00
    1.3929924011e+02   -1.2455600500e+00
    1.3939915466e+02   -1.2467199564e+00
    1.3949916077e+02   -1.2478699684e+00
    1.3959921265e+02   -1.2490199804e+00
    1.3969914246e+02   -1.2501699924e+00
    1.3979931641e+02   -1.2513200045e+00
    1.3989921570e+02   -1.2524399757e+00
    1.3999931335e+02   -1.2535500526e+00
    1.4009924316e+02   -1.2546399832e+00
    1.4019920349e+02   -1.2556899786e+00
    1.4029931641e+02   -1.2567100525e+00
    1.4039915466e+02   -1.2576999664e+00
    1.4049926758e+02   -1.2586699724e+00
    1.4059916687e+02   -1.2596000433e+00
    1.4069914246e+02   -1.2605099678e+00
    1.4079936218e+02   -1.2614300251e+00
    1.4089938354e+02   -1.2623300552e+00
    1.4099920654e+02   -1.2631800175e+00
    1.4109921265e+02   -1.2639800310e+00
    1.4119923401e+02   -1.2647500038e+00
    1.4129922485e+02   -1.2654999495e+00
    1.4139936829e+02   -1.2662500143e+00
    1.4149925232e+02   -1.2670099735e+00
    1.4159930420e+02   -1.2677799463e+00
    1.4169941711e+02   -1.2685699463e+00
    1.4179934692e+02   -1.2693699598e+00
    1.4189930725e+02   -1.2701699734e+00
    1.4199929810e+02   -1.2709900141e+00
    1.4209941101e+02   -1.2718100548e+00
    1.4219932556e+02   -1.2726299763e+00
    1.4229937744e+02   -1.2734400034e+00
    1.4239932251e+02   -1.2742600441e+00
    1.4249926758e+02   -1.2750699520e+00
    1.4259930420e+02   -1.2758699656e+00
    1.4269943237e+02   -1.2766499519e+00
    1.4279931641e+02   -1.2773900032e+00
    1.4289938354e+02   -1.2780900002e+00
    1.4299946594e+02   -1.2787599564e+00
    1.4309948730e+02   -1.2794300318e+00
    1.4319940186e+02   -1.2801100016e+00
    1.4329934692e+02   -1.2807999849e+00
    1.4339938354e+02   -1.2814799547e+00
    1.4349937439e+02   -1.2821799517e+00
    1.4359938049e+02   -1.2828899622e+00
    1.4369952393e+02   -1.2836199999e+00
    1.4379939270e+02   -1.2843500376e+00
    1.4389947510e+02   -1.2851099968e+00
    1.4399946594e+02   -1.2858699560e+00
    1.4409957886e+02   -1.2866599560e+00
    1.4419941711e+02   -1.2874799967e+00
    1.4429954529e+02   -1.2883199453e+00
    1.4439955139e+02   -1.2891800404e+00
    1.4449957275e+02   -1.2900700569e+00
    1.4459959412e+02   -1.2909699678e+00
    1.4469952393e+02   -1.2919000387e+00
    1.4479948425e+02   -1.2928400040e+00
    1.4489962769e+02   -1.2937999964e+00
    1.4499945068e+02   -1.2947599888e+00
    1.4509959412e+02   -1.2956899405e+00
    1.4519946289e+02   -1.2966099977e+00
    1.4529959106e+02   -1.2975300550e+00
    1.4539945984e+02   -1.2984499931e+00
    1.4549966431e+02   -1.2993600368e+00
    1.4559956360e+02   -1.3002699614e+00
    1.4569963074e+02   -1.3011699915e+00
    1.4579951477e+02   -1.3020600080e+00
    1.4589967346e+02   -1.3029600382e+00
    1.4599957275e+02   -1.3038500547e+00
    1.4609953308e+02   -1.3047499657e+00
    1.4619955444e+02   -1.3056399822e+00
    1.4629960632e+02   -1.3065500259e+00
    1.4639965820e+02   -1.3074500561e+00
    1.4649952698e+02   -1.3083800077e+00
    1.4659968567e+02   -1.3093199730e+00
    1.4669964600e+02   -1.3102699518e+00
    1.4679971313e+02   -1.3112299442e+00
    1.4689964294e+02   -1.3121900558e+00
    1.4699958801e+02   -1.3131599426e+00
    1.4709973145e+02   -1.3141399622e+00
    1.4719960022e+02   -1.3151099682e+00
    1.4729963684e+02   -1.3160599470e+00
    1.4739965820e+02   -1.3170000315e+00
    1.4749969482e+02   -1.3179299831e+00
    1.4759976196e+02   -1.3188500404e+00
    1.4769975281e+02   -1.3197400570e+00
    1.4779966736e+02   -1.3206199408e+00
    1.4789981079e+02   -1.3214900494e+00
    1.4799972534e+02   -1.3223600388e+00
    1.4809965515e+02   -1.3232300282e+00
    1.4819975281e+02   -1.3241000175e+00
    1.4829963684e+02   -1.3249599934e+00
    1.4839968872e+02   -1.3258099556e+00
    1.4849980164e+02   -1.3266600370e+00
    1.4859971619e+02   -1.3275099993e+00
    1.4869964600e+02   -1.3283699751e+00
    1.4879972839e+02   -1.3292299509e+00
    1.4889984131e+02   -1.3301000595e+00
    1.4899986267e+02   -1.3309600353e+00
    1.4909979248e+02   -1.3318400383e+00
    1.4919982910e+02   -1.3327200413e+00
    1.4929988098e+02   -1.3336000443e+00
    1.4939978027e+02   -1.3344899416e+00
    1.4949975586e+02   -1.3353699446e+00
    1.4959983826e+02   -1.3362499475e+00
    1.4969987488e+02   -1.3371399641e+00
    1.4979989624e+02   -1.3380199671e+00
    1.4989990234e+02   -1.3388899565e+00
    1.4999984741e+02   -1.3397400379e+00
    1.5009983826e+02   -1.3405599594e+00
    1.5019975281e+02   -1.3413599730e+00
    1.5029992676e+02   -1.3421399593e+00
    1.5039976501e+02   -1.3428800106e+00
    1.5049987793e+02   -1.3436000347e+00
    1.5059982300e+02   -1.3442900181e+00
    1.5069987488e+02   -1.3449599743e+00
    1.5079989624e+02   -1.3456399441e+00
    1.5089982605e+02   -1.3463100195e+00
    1.5099981689e+02   -1.3469300270e+00
    1.5109997559e+02   -1.3474899530e+00
    1.5119987488e+02   -1.3480299711e+00
    1.5129985046e+02   -1.3485599756e+00
    1.5139999390e+02   -1.3490899801e+00
    1.5149984741e+02   -1.3496299982e+00
    1.5159997559e+02   -1.3501800299e+00
    1.5170002747e+02   -1.3507599831e+00
    1.5179992676e+02   -1.3513499498e+00
    1.5189985657e+02   -1.3519400358e+00
    1.5200000000e+02   -1.3525400162e+00
    1.5209999084e+02   -1.3531500101e+00
    1.5219987488e+02   -1.3537600040e+00
    1.5230007935e+02   -1.3543699980e+00
    1.5239991760e+02   -1.3549799919e+00
    1.5249995422e+02   -1.3555899858e+00
    1.5259997559e+02   -1.3561799526e+00
    1.5269995117e+02   -1.3567500114e+00
    1.5280003357e+02   -1.3572900295e+00
    1.5289990234e+02   -1.3577799797e+00
    1.5300004578e+02   -1.3582500219e+00
    1.5310002136e+02   -1.3587199450e+00
    1.5320010376e+02   -1.3592000008e+00
    1.5329992676e+02   -1.3596800566e+00
    1.5340005493e+02   -1.3601700068e+00
    1.5350000000e+02   -1.3606599569e+00
    1.5360012817e+02   -1.3611799479e+00
    1.5369996643e+02   -1.3617000580e+00
    1.5379998779e+02   -1.3622299433e+00
    1.5390017700e+02   -1.3627799749e+00
    1.5400004578e+02   -1.3633500338e+00
    1.5410014343e+02   -1.3639400005e+00
    1.5420007324e+02   -1.3645600080e+00
    1.5430018616e+02   -1.3652000427e+00
    1.5440008545e+02   -1.3658599854e+00
    1.5450007629e+02   -1.3665499687e+00
    1.5460011292e+02   -1.3672499657e+00
    1.5470007324e+02   -1.3679800034e+00
    1.5480014038e+02   -1.3687200546e+00
    1.5490005493e+02   -1.3694700003e+00
    1.5500007629e+02   -1.3702199459e+00
    1.5510017395e+02   -1.3709499836e+00
    1.5520025635e+02   -1.3716599941e+00
    1.5530021667e+02   -1.3723700047e+00
    1.5540017700e+02   -1.3730800152e+00
    1.5550016785e+02   -1.3737800121e+00
    1.5560009766e+02   -1.3744699955e+00
    1.5570016479e+02   -1.3751499653e+00
    1.5580010986e+02   -1.3758300543e+00
    1.5590011597e+02   -1.3765000105e+00
    1.5600010681e+02   -1.3771799803e+00
    1.5610011292e+02   -1.3778500557e+00
    1.5620016479e+02   -1.3785200119e+00
    1.5630021667e+02   -1.3791899681e+00
    1.5640025330e+02   -1.3798700571e+00
    1.5650027466e+02   -1.3805600405e+00
    1.5660029602e+02   -1.3812700510e+00
    1.5670022583e+02   -1.3819799423e+00
    1.5680029297e+02   -1.3826899529e+00
    1.5690017700e+02   -1.3834099770e+00
    1.5700033569e+02   -1.3841300011e+00
    1.5710014343e+02   -1.3848600388e+00
    1.5720018005e+02   -1.3855799437e+00
    1.5730030823e+02   -1.3862700462e+00
    1.5740031433e+02   -1.3869400024e+00
    1.5750028992e+02   -1.3876099586e+00
    1.5760029602e+02   -1.3882499933e+00
    1.5770031738e+02   -1.3888700008e+00
    1.5780032349e+02   -1.3894699812e+00
    1.5790023804e+02   -1.3900599480e+00
    1.5800042725e+02   -1.3906500340e+00
    1.5810043335e+02   -1.3912299871e+00
    1.5820036316e+02   -1.3917900324e+00
    1.5830038452e+02   -1.3923499584e+00
    1.5840040588e+02   -1.3929100037e+00
    1.5850027466e+02   -1.3934400082e+00
    1.5860029602e+02   -1.3939800262e+00
    1.5870046997e+02   -1.3945200443e+00
    1.5880035400e+02   -1.3950599432e+00
    1.5890029907e+02   -1.3955999613e+00
    1.5900044250e+02   -1.3961399794e+00
    1.5910040283e+02   -1.3966699839e+00
    1.5920036316e+02   -1.3972200155e+00
    1.5930049133e+02   -1.3977600336e+00
    1.5940037537e+02   -1.3982900381e+00
    1.5950051880e+02   -1.3988200426e+00
    1.5960041809e+02   -1.3993400335e+00
    1.5970053101e+02   -1.3998600245e+00
    1.5980047607e+02   -1.4003700018e+00
    1.5990045166e+02   -1.4008599520e+00
    1.6000053406e+02   -1.4013299942e+00
    1.6010043335e+02   -1.4017699957e+00
    1.6020042419e+02   -1.4021699429e+00
    1.6030052185e+02   -1.4025499821e+00
    1.6040037537e+02   -1.4028899670e+00
    1.6050044250e+02   -1.4032000303e+00
    1.6060049438e+02   -1.4034800529e+00
    1.6070037842e+02   -1.4037300348e+00
    1.6080056763e+02   -1.4039900303e+00
    1.6090046692e+02   -1.4042199850e+00
    1.6100050354e+02   -1.4044100046e+00
    1.6110046387e+02   -1.4045399427e+00
    1.6120057678e+02   -1.4046299458e+00
    1.6130044556e+02   -1.4047199488e+00
    1.6140055847e+02   -1.4047900438e+00
    1.6150059509e+02   -1.4048700333e+00
    1.6160049438e+02   -1.4049500227e+00
    1.6170043945e+02   -1.4050500393e+00
    1.6180058289e+02   -1.4051400423e+00
    1.6190052795e+02   -1.4052400589e+00
    1.6200045776e+02   -1.4053299427e+00
    1.6210061646e+02   -1.4054299593e+00
    1.6220057678e+02   -1.4055099487e+00
    1.6230056763e+02   -1.4055900574e+00
    1.6240068054e+02   -1.4056500196e+00
    1.6250065613e+02   -1.4057099819e+00
    1.6260058594e+02   -1.4057500362e+00
    1.6270059204e+02   -1.4057500362e+00
    1.6280067444e+02   -1.4057099819e+00
    1.6290054321e+02   -1.4056299925e+00
    1.6300061035e+02   -1.4055199623e+00
    1.6310069275e+02   -1.4053900242e+00
    1.6320057678e+02   -1.4052699804e+00
    1.6330072021e+02   -1.4051400423e+00
    1.6340071106e+02   -1.4050099850e+00
    1.6350071716e+02   -1.4048800468e+00
    1.6360061646e+02   -1.4047600031e+00
    1.6370062256e+02   -1.4046299458e+00
    1.6380067444e+02   -1.4045200348e+00
    1.6390066528e+02   -1.4044100046e+00
    1.6400064087e+02   -1.4042999744e+00
    1.6410072327e+02   -1.4042099714e+00
    1.6420068359e+02   -1.4041399956e+00
    1.6430061340e+02   -1.4040800333e+00
    1.6440063477e+02   -1.4040399790e+00
    1.6450071716e+02   -1.4040000439e+00
    1.6460063171e+02   -1.4039700031e+00
    1.6470062256e+02   -1.4039599895e+00
    1.6480078125e+02   -1.4039499760e+00
    1.6490066528e+02   -1.4039399624e+00
    1.6500064087e+02   -1.4039299488e+00
    1.6510075378e+02   -1.4038800001e+00
    1.6520079041e+02   -1.4038100243e+00
    1.6530082703e+02   -1.4037300348e+00
    1.6540084839e+02   -1.4036500454e+00
    1.6550079346e+02   -1.4035500288e+00
    1.6560072327e+02   -1.4034299850e+00
    1.6570080566e+02   -1.4033000469e+00
    1.6580082703e+02   -1.4031499624e+00
    1.6590072632e+02   -1.4029999971e+00
    1.6600082397e+02   -1.4028300047e+00
    1.6610090637e+02   -1.4026600122e+00
    1.6620089722e+02   -1.4024800062e+00
    1.6630091858e+02   -1.4022899866e+00
    1.6640074158e+02   -1.4020999670e+00
    1.6650074768e+02   -1.4019199610e+00
    1.6660087585e+02   -1.4017399549e+00
    1.6670091248e+02   -1.4015699625e+00
    1.6680075073e+02   -1.4013799429e+00
    1.6690078735e+02   -1.4011900425e+00
    1.6700077820e+02   -1.4010000229e+00
    1.6710098267e+02   -1.4007999897e+00
    1.6720088196e+02   -1.4005899429e+00
    1.6730099487e+02   -1.4003499746e+00
    1.6740097046e+02   -1.4000899792e+00
    1.6750088501e+02   -1.3998099566e+00
    1.6760090637e+02   -1.3995000124e+00
    1.6770092773e+02   -1.3991700411e+00
    1.6780085754e+02   -1.3988100290e+00
    1.6790089417e+02   -1.3984299898e+00
    1.6800096130e+02   -1.3980499506e+00
    1.6810102844e+02   -1.3976500034e+00
    1.6820086670e+02   -1.3972400427e+00
    1.6830090332e+02   -1.3968100548e+00
    1.6840097046e+02   -1.3963700533e+00
    1.6850097656e+02   -1.3959200382e+00
    1.6860101318e+02   -1.3954499960e+00
    1.6870092773e+02   -1.3949899673e+00
    1.6880107117e+02   -1.3945200443e+00
    1.6890093994e+02   -1.3940399885e+00
    1.6900097656e+02   -1.3935600519e+00
    1.6910099792e+02   -1.3930799961e+00
    1.6920108032e+02   -1.3925900459e+00
    1.6930111694e+02   -1.3920899630e+00
    1.6940095520e+02   -1.3915899992e+00
    1.6950097656e+02   -1.3910800219e+00
    1.6960104370e+02   -1.3905500174e+00
    1.6970094299e+02   -1.3900300264e+00
    1.6980094910e+02   -1.3894799948e+00
    1.6990100098e+02   -1.3889199495e+00
    1.7000102234e+02   -1.3883299828e+00
    1.7010113525e+02   -1.3877199888e+00
    1.7020103455e+02   -1.3870699406e+00
    1.7030117798e+02   -1.3863799572e+00
    1.7040100098e+02   -1.3856699467e+00
    1.7050108337e+02   -1.3849200010e+00
    1.7060098267e+02   -1.3841400146e+00
    1.7070103455e+02   -1.3833400011e+00
    1.7080119324e+02   -1.3825399876e+00
    1.7090115356e+02   -1.3817100525e+00
    1.7100102234e+02   -1.3808399439e+00
    1.7110116577e+02   -1.3799099922e+00
    1.7120106506e+02   -1.3789600134e+00
    1.7130114746e+02   -1.3779799938e+00
    1.7140109253e+02   -1.3769999743e+00
    1.7150126648e+02   -1.3760199547e+00
    1.7160119629e+02   -1.3750400543e+00
    1.7170118713e+02   -1.3740799427e+00
    1.7180108643e+02   -1.3731100559e+00
    1.7190116882e+02   -1.3721400499e+00
    1.7200112915e+02   -1.3711700439e+00
    1.7210128784e+02   -1.3702000380e+00
    1.7220123291e+02   -1.3692200184e+00
    1.7230117798e+02   -1.3682299852e+00
    1.7240127563e+02   -1.3672300577e+00
    1.7250114441e+02   -1.3662199974e+00
    1.7260130310e+02   -1.3651900291e+00
    1.7270129395e+02   -1.3641400337e+00
    1.7280126953e+02   -1.3630399704e+00
    1.7290133667e+02   -1.3618999720e+00
    1.7300115967e+02   -1.3607399464e+00
    1.7310134888e+02   -1.3595700264e+00
    1.7320132446e+02   -1.3583899736e+00
    1.7330128479e+02   -1.3572200537e+00
    1.7340130615e+02   -1.3560400009e+00
    1.7350132751e+02   -1.3548699617e+00
    1.7360119629e+02   -1.3537000418e+00
    1.7370120239e+02   -1.3525300026e+00
    1.7380119324e+02   -1.3513699770e+00
    1.7390124512e+02   -1.3502199650e+00
    1.7400134277e+02   -1.3490799665e+00
    1.7410125732e+02   -1.3479499817e+00
    1.7420120239e+02   -1.3468400240e+00
    1.7430131531e+02   -1.3457499743e+00
    1.7440132141e+02   -1.3446700573e+00
    1.7450126648e+02   -1.3436100483e+00
    1.7460130310e+02   -1.3425500393e+00
    1.7470127869e+02   -1.3415000439e+00
    1.7480128479e+02   -1.3404699564e+00
    1.7490133667e+02   -1.3394399881e+00
    1.7500144958e+02   -1.3384000063e+00
    1.7510125732e+02   -1.3373500109e+00
    1.7520132446e+02   -1.3362699747e+00
    1.7530139160e+02   -1.3351800442e+00
    1.7540130615e+02   -1.3341000080e+00
    1.7550137329e+02   -1.3329999447e+00
    1.7560130310e+02   -1.3318899870e+00
    1.7570132446e+02   -1.3307700157e+00
    1.7580137634e+02   -1.3296400309e+00
    1.7590135193e+02   -1.3285100460e+00
    1.7600132751e+02   -1.3273799419e+00
    1.7610133362e+02   -1.3262399435e+00
    1.7620152283e+02   -1.3250999451e+00
    1.7630137634e+02   -1.3239500523e+00
    1.7640150452e+02   -1.3228100538e+00
    1.7650140381e+02   -1.3216799498e+00
    1.7660156250e+02   -1.3205599785e+00
    1.7670150757e+02   -1.3194400072e+00
    1.7680145264e+02   -1.3183100224e+00
    1.7690138245e+02   -1.3171999454e+00
    1.7700144958e+02   -1.3160799742e+00
    1.7710151672e+02   -1.3149600029e+00
    1.7720141602e+02   -1.3138300180e+00
    1.7730140686e+02   -1.3126800060e+00
    1.7740159607e+02   -1.3115099669e+00
    1.7750146484e+02   -1.3103300333e+00
    1.7760159302e+02   -1.3091299534e+00
    1.7770150757e+02   -1.3079099655e+00
    1.7780163574e+02   -1.3066699505e+00
    1.7790153503e+02   -1.3054200411e+00
    1.7800151062e+02   -1.3041599989e+00
    1.7810148621e+02   -1.3029099703e+00
    1.7820147705e+02   -1.3016400337e+00
    1.7830149841e+02   -1.3003599644e+00
    1.7840151978e+02   -1.2990800142e+00
    1.7850158691e+02   -1.2977800369e+00
    1.7860153198e+02   -1.2964899540e+00
    1.7870152283e+02   -1.2951899767e+00
    1.7880154419e+02   -1.2939000130e+00
    1.7890168762e+02   -1.2926100492e+00
    1.7900161743e+02   -1.2913199663e+00
    1.7910151672e+02   -1.2900300026e+00
    1.7920166016e+02   -1.2887400389e+00
    1.7930163574e+02   -1.2874599695e+00
    1.7940164185e+02   -1.2861700058e+00
    1.7950155640e+02   -1.2848700285e+00
    1.7960156250e+02   -1.2835700512e+00
    1.7970164490e+02   -1.2822599411e+00
    1.7980175781e+02   -1.2809499502e+00
    1.7990171814e+02   -1.2796299458e+00
    1.8000172424e+02   -1.2782900333e+00
    1.8010168457e+02   -1.2769299746e+00
    1.8020159912e+02   -1.2755500078e+00
    1.8030168152e+02   -1.2741299868e+00
    1.8040162659e+02   -1.2726999521e+00
    1.8050163269e+02   -1.2712299824e+00
    1.8060162354e+02   -1.2697499990e+00
    1.8070170593e+02   -1.2682499886e+00
    1.8080172729e+02   -1.2667499781e+00
    1.8090174866e+02   -1.2652399540e+00
    1.8100163269e+02   -1.2636899948e+00
    1.8110168457e+02   -1.2620999813e+00
    1.8120182800e+02   -1.2604800463e+00
    1.8130166626e+02   -1.2588599920e+00
    1.8140174866e+02   -1.2572300434e+00
    1.8150184631e+02   -1.2555999756e+00
    1.8160169983e+02   -1.2539800406e+00
    1.8170176697e+02   -1.2523699999e+00
    1.8180181885e+02   -1.2507599592e+00
    1.8190168762e+02   -1.2491500378e+00
    1.8200175476e+02   -1.2475399971e+00
    1.8210189819e+02   -1.2459199429e+00
    1.8220170593e+02   -1.2443100214e+00
    1.8230189514e+02   -1.2426799536e+00
    1.8240176392e+02   -1.2410399914e+00
    1.8250181580e+02   -1.2394000292e+00
    1.8260179138e+02   -1.2377500534e+00
    1.8270190430e+02   -1.2360600233e+00
    1.8280181885e+02   -1.2343499660e+00
    1.8290188599e+02   -1.2325999737e+00
    1.8300192261e+02   -1.2308199406e+00
    1.8310180664e+02   -1.2290500402e+00
    1.8320184326e+02   -1.2272700071e+00
    1.8330183411e+02   -1.2254899740e+00
    1.8340185547e+02   -1.2237000465e+00
    1.8350192261e+02   -1.2219200134e+00
    1.8360183716e+02   -1.2201499939e+00
    1.8370191956e+02   -1.2183699608e+00
    1.8380184937e+02   -1.2165999413e+00
    1.8390193176e+02   -1.2148400545e+00
    1.8400187683e+02   -1.2130899429e+00
    1.8410200500e+02   -1.2113399506e+00
    1.8420191956e+02   -1.2096099854e+00
    1.8430183411e+02   -1.2079000473e+00
    1.8440185547e+02   -1.2061899900e+00
    1.8450187683e+02   -1.2044999599e+00
    1.8460192871e+02   -1.2028000355e+00
    1.8470193481e+02   -1.2011200190e+00
    1.8480201721e+02   -1.1994400024e+00
    1.8490206909e+02   -1.1977699995e+00
    1.8500204468e+02   -1.1960899830e+00
    1.8510208130e+02   -1.1943900585e+00
    1.8520201111e+02   -1.1926699877e+00
    1.8530206299e+02   -1.1909400225e+00
    1.8540197754e+02   -1.1892100573e+00
    1.8550207520e+02   -1.1874699593e+00
    1.8560198975e+02   -1.1857199669e+00
    1.8570201111e+02   -1.1839499474e+00
    1.8580198669e+02   -1.1821800470e+00
    1.8590206909e+02   -1.1804000139e+00
    1.8600193787e+02   -1.1786199808e+00
    1.8610197449e+02   -1.1768300533e+00
    1.8620196533e+02   -1.1750299931e+00
    1.8630210876e+02   -1.1732200384e+00
    1.8640197754e+02   -1.1714199781e+00
    1.8650207520e+02   -1.1696200371e+00
    1.8660215759e+02   -1.1678199768e+00
    1.8670204163e+02   -1.1660300493e+00
    1.8680215454e+02   -1.1642199755e+00
    1.8690214539e+02   -1.1624100208e+00
    1.8700213623e+02   -1.1605999470e+00
    1.8710197449e+02   -1.1587899923e+00
    1.8720205688e+02   -1.1569600105e+00
    1.8730206299e+02   -1.1550999880e+00
    1.8740220642e+02   -1.1532299519e+00
    1.8750219727e+02   -1.1513400078e+00
    1.8760205078e+02   -1.1494400501e+00
    1.8770219421e+02   -1.1475000381e+00
    1.8780206299e+02   -1.1455500126e+00
    1.8790211487e+02   -1.1435799599e+00
    1.8800212097e+02   -1.1416100264e+00
    1.8810223389e+02   -1.1396199465e+00
    1.8820210266e+02   -1.1376199722e+00
    1.8830212402e+02   -1.1356099844e+00
    1.8840222168e+02   -1.1335999966e+00
    1.8850227356e+02   -1.1315599680e+00
    1.8860226440e+02   -1.1295200586e+00
    1.8870222473e+02   -1.1274800301e+00
    1.8880227661e+02   -1.1254299879e+00
    1.8890219116e+02   -1.1233799458e+00
    1.8900224304e+02   -1.1213200092e+00
    1.8910212708e+02   -1.1192599535e+00
    1.8920227051e+02   -1.1171900034e+00
    1.8930227661e+02   -1.1151200533e+00
    1.8940231323e+02   -1.1130399704e+00
    1.8950216675e+02   -1.1109499931e+00
    1.8960224915e+02   -1.1088500023e+00
    1.8970228577e+02   -1.1067399979e+00
    1.8980224609e+02   -1.1046199799e+00
    1.8990237427e+02   -1.1024800539e+00
    1.9000231934e+02   -1.1003299952e+00
    1.9010229492e+02   -1.0981500149e+00
    1.9020236206e+02   -1.0959500074e+00
    1.9030220032e+02   -1.0937199593e+00
    1.9040231323e+02   -1.0914599895e+00
    1.9050238037e+02   -1.0891799927e+00
    1.9060223389e+02   -1.0868699551e+00
    1.9070225525e+02   -1.0845500231e+00
    1.9080227661e+02   -1.0822199583e+00
    1.9090234375e+02   -1.0798699856e+00
    1.9100224304e+02   -1.0774999857e+00
    1.9110237122e+02   -1.0750800371e+00
    1.9120234680e+02   -1.0726300478e+00
    1.9130226135e+02   -1.0701700449e+00
    1.9140226746e+02   -1.0677100420e+00
    1.9150239563e+02   -1.0652300119e+00
    1.9160238647e+02   -1.0627599955e+00
    1.9170245361e+02   -1.0602899790e+00
    1.9180235291e+02   -1.0578099489e+00
    1.9190231323e+02   -1.0553300381e+00
    1.9200248718e+02   -1.0528399944e+00
    1.9210246277e+02   -1.0503400564e+00
    1.9220239258e+02   -1.0478399992e+00
    1.9230235291e+02   -1.0453200340e+00
    1.9240243530e+02   -1.0427800417e+00
    1.9250245667e+02   -1.0402400494e+00
    1.9260253906e+02   -1.0376800299e+00
    1.9270254517e+02   -1.0350899696e+00
    1.9280252075e+02   -1.0324800014e+00
    1.9290237427e+02   -1.0298299789e+00
    1.9300250244e+02   -1.0271500349e+00
    1.9310244751e+02   -1.0244599581e+00
    1.9320237732e+02   -1.0217800140e+00
    1.9330247498e+02   -1.0190800428e+00
    1.9340249634e+02   -1.0163799524e+00
    1.9350239563e+02   -1.0136799812e+00
    1.9360250854e+02   -1.0109699965e+00
    1.9370254517e+02   -1.0082700253e+00
    1.9380242920e+02   -1.0055700541e+00
    1.9390257263e+02   -1.0028699636e+00
    1.9400250244e+02   -1.0001699924e+00
    1.9410246277e+02   -9.9747401476e-01
    1.9420251465e+02   -9.9478399754e-01
    1.9430250549e+02   -9.9210399389e-01
    1.9440252686e+02   -9.8943197727e-01
[...]
    2.5130598450e+02    2.4041000009e-01
    2.5140603638e+02    2.4117399752e-01
    2.5150593567e+02    2.4193499982e-01
    2.5160600281e+02    2.4269600213e-01
    2.5170596313e+02    2.4345399439e-01
    2.5180598450e+02    2.4420900643e-01
    2.5190614319e+02    2.4496500194e-01
    2.5200605774e+02    2.4571800232e-01
    2.5210604858e+02    2.4646900594e-01
    2.5220616150e+02    2.4721999466e-01
    2.5230618286e+02    2.4796900153e-01
    2.5240599060e+02    2.4871300161e-01
    2.5250610352e+02    2.4945899844e-01
    2.5260606384e+02    2.5020098686e-01
    2.5270614624e+02    2.5094199181e-01
    2.5280613708e+02    2.5168201327e-01
    2.5290600586e+02    2.5242200494e-01
    2.5300604248e+02    2.5316300988e-01
    2.5310621643e+02    2.5390198827e-01
    2.5320605469e+02    2.5463500619e-01
    2.5330607605e+02    2.5536501408e-01
    2.5340608215e+02    2.5609201193e-01
    2.5350611877e+02    2.5681498647e-01
    2.5360610962e+02    2.5753301382e-01
    2.5370616150e+02    2.5824901462e-01
    2.5380621338e+02    2.5896200538e-01
    2.5390612793e+02    2.5966900587e-01
    2.5400627136e+02    2.6037499309e-01
    2.5410617065e+02    2.6107400656e-01
    2.5420613098e+02    2.6176899672e-01
    2.5430621338e+02    2.6245999336e-01
    2.5440611267e+02    2.6314198971e-01
    2.5450610352e+02    2.6382100582e-01
    2.5460621643e+02    2.6449701190e-01
    2.5470620728e+02    2.6516601443e-01
    2.5480632019e+02    2.6583001018e-01
    2.5490626526e+02    2.6648700237e-01
    2.5500634766e+02    2.6714000106e-01
    2.5510621643e+02    2.6778799295e-01
    2.5520634460e+02    2.6843398809e-01
    2.5530621338e+02    2.6907399297e-01
    2.5540626526e+02    2.6970699430e-01
    2.5550617981e+02    2.7033498883e-01
    2.5560632324e+02    2.7095898986e-01
    2.5570622253e+02    2.7157801390e-01
    2.5580630493e+02    2.7219200134e-01
    2.5590635681e+02    2.7280199528e-01
    2.5600637817e+02    2.7340599895e-01
    2.5610623169e+02    2.7400299907e-01
    2.5620623779e+02    2.7459499240e-01
    2.5630624390e+02    2.7518299222e-01
    2.5640643311e+02    2.7576699853e-01
    2.5650631714e+02    2.7634298801e-01
    2.5660638428e+02    2.7691200376e-01
    2.5670639038e+02    2.7747601271e-01
    2.5680639648e+02    2.7803400159e-01
    2.5690643311e+02    2.7858600020e-01
    2.5700643921e+02    2.7913099527e-01
    2.5710641479e+02    2.7967000008e-01
    2.5720632935e+02    2.8020200133e-01
    2.5730627441e+02    2.8073099256e-01
    2.5740637207e+02    2.8125500679e-01
    2.5750640869e+02    2.8177300096e-01
    2.5760644531e+02    2.8228598833e-01
    2.5770648193e+02    2.8279501200e-01
    2.5780645752e+02    2.8329700232e-01
    2.5790652466e+02    2.8379300237e-01
    2.5800640869e+02    2.8428098559e-01
    2.5810641479e+02    2.8476300836e-01
    2.5820648193e+02    2.8523901105e-01
    2.5830639648e+02    2.8570801020e-01
    2.5840637207e+02    2.8617000580e-01
    2.5850643921e+02    2.8662601113e-01
    2.5860644531e+02    2.8707501292e-01
    2.5870654297e+02    2.8751599789e-01
    2.5880642700e+02    2.8794899583e-01
    2.5890637207e+02    2.8837400675e-01
    2.5900653076e+02    2.8879299760e-01
    2.5910641479e+02    2.8920298815e-01
    2.5920657349e+02    2.8960600495e-01
    2.5930645752e+02    2.8999999166e-01
    2.5940652466e+02    2.9038599133e-01
    2.5950643921e+02    2.9076400399e-01
    2.5960641479e+02    2.9113298655e-01
    2.5970651245e+02    2.9149401188e-01
    2.5980661011e+02    2.9184699059e-01
    2.5990652466e+02    2.9219201207e-01
    2.6000662231e+02    2.9252898693e-01
    2.6010653687e+02    2.9285898805e-01
    2.6020663452e+02    2.9318100214e-01
    2.6030645752e+02    2.9349601269e-01
    2.6040661621e+02    2.9380598664e-01
    2.6050650024e+02    2.9410699010e-01
    2.6060650635e+02    2.9440099001e-01
    2.6070663452e+02    2.9468700290e-01
    2.6080661011e+02    2.9496398568e-01
    2.6090649414e+02    2.9523301125e-01
    2.6100668335e+02    2.9549500346e-01
    2.6110653687e+02    2.9574999213e-01
    2.6120657349e+02    2.9599699378e-01
    2.6130657959e+02    2.9623600841e-01
    2.6140658569e+02    2.9646900296e-01
    2.6150659180e+02    2.9669201374e-01
    2.6160662842e+02    2.9690799117e-01
    2.6170672607e+02    2.9711401463e-01
    2.6180654907e+02    2.9731199145e-01
    2.6190661621e+02    2.9750201106e-01
    2.6200671387e+02    2.9768601060e-01
    2.6210659790e+02    2.9786199331e-01
    2.6220672607e+02    2.9803100228e-01
    2.6230661011e+02    2.9819199443e-01
    2.6240667725e+02    2.9834601283e-01
    2.6250677490e+02    2.9849299788e-01
    2.6260668945e+02    2.9863300920e-01
    2.6270672607e+02    2.9876500368e-01
    2.6280679321e+02    2.9888999462e-01
    2.6290667725e+02    2.9901000857e-01
    2.6300674438e+02    2.9912298918e-01
    2.6310675049e+02    2.9922899604e-01
    2.6320681763e+02    2.9932799935e-01
    2.6330676270e+02    2.9941898584e-01
    2.6340679932e+02    2.9950198531e-01
    2.6350671387e+02    2.9957801104e-01
    2.6360665894e+02    2.9964500666e-01
    2.6370678711e+02    2.9970499873e-01
    2.6380676270e+02    2.9975700378e-01
    2.6390673828e+02    2.9980099201e-01
    2.6400674438e+02    2.9983600974e-01
    2.6410678101e+02    2.9986399412e-01
    2.6420675659e+02    2.9988300800e-01
    2.6430685425e+02    2.9989299178e-01
    2.6440676880e+02    2.9989400506e-01
    2.6450671387e+02    2.9988899827e-01
    2.6460671997e+02    2.9987698793e-01
    2.6470672607e+02    2.9985699058e-01
    2.6480679321e+02    2.9982900620e-01
    2.6490682983e+02    2.9979398847e-01
    2.6500683594e+02    2.9975199699e-01
    2.6510684204e+02    2.9970300198e-01
    2.6520681763e+02    2.9964900017e-01
    2.6530691528e+02    2.9958701134e-01
    2.6540692139e+02    2.9951798916e-01
    2.6550683594e+02    2.9944199324e-01
    2.6560681152e+02    2.9936000705e-01
    2.6570687866e+02    2.9927200079e-01
    2.6580688477e+02    2.9917699099e-01
    2.6590686035e+02    2.9907500744e-01
    2.6600683594e+02    2.9896599054e-01
    2.6610699463e+02    2.9884999990e-01
    2.6620697021e+02    2.9872700572e-01
    2.6630682373e+02    2.9859799147e-01
    2.6640689087e+02    2.9846400023e-01
    2.6650701904e+02    2.9832300544e-01
    2.6660702515e+02    2.9817599058e-01
    2.6670697021e+02    2.9802298546e-01
    2.6680700684e+02    2.9786399007e-01
    2.6690698242e+02    2.9769900441e-01
    2.6700708008e+02    2.9752799869e-01
    2.6710687256e+02    2.9735198617e-01
    2.6720690918e+02    2.9717099667e-01
    2.6730694580e+02    2.9698699713e-01
    2.6740695190e+02    2.9679799080e-01
    2.6750695801e+02    2.9660299420e-01
    2.6760699463e+02    2.9640498757e-01
    2.6770690918e+02    2.9620400071e-01
    2.6780697632e+02    2.9599800706e-01
    2.6790707397e+02    2.9578700662e-01
    2.6800701904e+02    2.9557099938e-01
    2.6810699463e+02    2.9535201192e-01
    2.6820697021e+02    2.9512700438e-01
    2.6830712891e+02    2.9489699006e-01
    2.6840704346e+02    2.9466301203e-01
    2.6850704956e+02    2.9442399740e-01
    2.6860702515e+02    2.9418098927e-01
    2.6870706177e+02    2.9393300414e-01
    2.6880697632e+02    2.9368099570e-01
    2.6890713501e+02    2.9342401028e-01
    2.6900714111e+02    2.9316198826e-01
    2.6910705566e+02    2.9289698601e-01
    2.6920709229e+02    2.9262599349e-01
    2.6930712891e+02    2.9235199094e-01
    2.6940713501e+02    2.9207500815e-01
    2.6950701904e+02    2.9179400206e-01
    2.6960708618e+02    2.9150798917e-01
    2.6970706177e+02    2.9121899605e-01
    2.6980718994e+02    2.9092600942e-01
    2.6990719604e+02    2.9063099623e-01
    2.7000717163e+02    2.9033198953e-01
    2.7010711670e+02    2.9003000259e-01
    2.7020706177e+02    2.8972500563e-01
    2.7030706787e+02    2.8941598535e-01
    2.7040725708e+02    2.8910499811e-01
    2.7050726318e+02    2.8879100084e-01
    2.7060723877e+02    2.8847399354e-01
    2.7070727539e+02    2.8815299273e-01
    2.7080709839e+02    2.8782999516e-01
    2.7090725708e+02    2.8750300407e-01
    2.7100717163e+02    2.8717300296e-01
    2.7110714722e+02    2.8683799505e-01
    2.7120730591e+02    2.8650099039e-01
    2.7130725098e+02    2.8616300225e-01
    2.7140725708e+02    2.8582298756e-01
    2.7150714111e+02    2.8548100591e-01
    2.7160723877e+02    2.8513801098e-01
    2.7170718384e+02    2.8479498625e-01
    2.7180725098e+02    2.8445100784e-01
    2.7190716553e+02    2.8410699964e-01
    2.7200726318e+02    2.8376299143e-01
    2.7210723877e+02    2.8342100978e-01
    2.7220721436e+02    2.8307801485e-01
    2.7230737305e+02    2.8273400664e-01
    2.7240725708e+02    2.8239101171e-01
    2.7250720215e+02    2.8204798698e-01
    2.7260736084e+02    2.8170499206e-01
    2.7270724487e+02    2.8136101365e-01
    2.7280740356e+02    2.8101399541e-01
    2.7290719604e+02    2.8066799045e-01
    2.7300732422e+02    2.8032100201e-01
    2.7310733032e+02    2.7997401357e-01
    2.7320724487e+02    2.7962800860e-01
    2.7330728149e+02    2.7928200364e-01
    2.7340737915e+02    2.7893599868e-01
    2.7350735474e+02    2.7859199047e-01
    2.7360733032e+02    2.7824899554e-01
    2.7370730591e+02    2.7790600061e-01
    2.7380749512e+02    2.7756300569e-01
    2.7390737915e+02    2.7722200751e-01
    2.7400741577e+02    2.7687999606e-01
    2.7410729980e+02    2.7654001117e-01
    2.7420745850e+02    2.7619901299e-01
    2.7430749512e+02    2.7585899830e-01
    2.7440740967e+02    2.7552199364e-01
    2.7450732422e+02    2.7518498898e-01
    2.7460751343e+02    2.7485001087e-01
    2.7470739746e+02    2.7451801300e-01
    2.7480749512e+02    2.7418699861e-01
    2.7490737915e+02    2.7385699749e-01
    2.7500738525e+02    2.7352601290e-01
    2.7510754395e+02    2.7319499850e-01
    2.7520748901e+02    2.7286499739e-01
    2.7530749512e+02    2.7253499627e-01
    2.7540737915e+02    2.7220699191e-01
    2.7550750732e+02    2.7187800407e-01
    2.7560745239e+02    2.7154999971e-01
    2.7570739746e+02    2.7122399211e-01
    2.7580743408e+02    2.7089700103e-01
    2.7590744019e+02    2.7057200670e-01
    2.7600759888e+02    2.7024701238e-01
    2.7610745239e+02    2.6992499828e-01
    2.7620742798e+02    2.6960200071e-01
    2.7630764771e+02    2.6927900314e-01
    2.7640756226e+02    2.6895898581e-01
    2.7650750732e+02    2.6864099503e-01
    2.7660754395e+02    2.6832398772e-01
    2.7670764160e+02    2.6800799370e-01
    2.7680761719e+02    2.6769301295e-01
    2.7690759277e+02    2.6737999916e-01
    2.7700753784e+02    2.6706799865e-01
    2.7710754395e+02    2.6675701141e-01
    2.7720748901e+02    2.6644700766e-01
    2.7730767822e+02    2.6613798738e-01
    2.7740768433e+02    2.6583001018e-01
    2.7750756836e+02    2.6552298665e-01
    2.7760769653e+02    2.6521599293e-01
    2.7770770264e+02    2.6491001248e-01
    2.7780755615e+02    2.6460599899e-01
    2.7790771484e+02    2.6430198550e-01
    2.7800765991e+02    2.6399898529e-01
    2.7810766602e+02    2.6369801164e-01
    2.7820755005e+02    2.6339799166e-01
    2.7830758667e+02    2.6309800148e-01
    2.7840759277e+02    2.6279801130e-01
    2.7850759888e+02    2.6249799132e-01
    2.7860763550e+02    2.6219800115e-01
    2.7870758057e+02    2.6190099120e-01
    2.7880758667e+02    2.6160299778e-01
    2.7890765381e+02    2.6130399108e-01
    2.7900765991e+02    2.6100400090e-01
    2.7910766602e+02    2.6070499420e-01
    2.7920770264e+02    2.6040598750e-01
    2.7930770874e+02    2.6010701060e-01
    2.7940774536e+02    2.5980800390e-01
    2.7950781250e+02    2.5950700045e-01
    2.7960778809e+02    2.5920701027e-01
    2.7970773315e+02    2.5890699029e-01
    2.7980776978e+02    2.5860598683e-01
    2.7990774536e+02    2.5830298662e-01
    2.8000778198e+02    2.5799998641e-01
    2.8010775757e+02    2.5769498944e-01
    2.8020779419e+02    2.5738799572e-01
    2.8030767822e+02    2.5707998872e-01
    2.8040780640e+02    2.5676900148e-01
    2.8050784302e+02    2.5645700097e-01
    2.8060775757e+02    2.5614300370e-01
    2.8070785522e+02    2.5582700968e-01
    2.8080780029e+02    2.5551098585e-01
    2.8090774536e+02    2.5519400835e-01
    2.8100790405e+02    2.5487101078e-01
    2.8110791016e+02    2.5454199314e-01
    2.8120773315e+02    2.5421199203e-01
    2.8130786133e+02    2.5387999415e-01
    2.8140789795e+02    2.5354599953e-01
    2.8150775146e+02    2.5321099162e-01
    2.8160781860e+02    2.5287500024e-01
    2.8170776367e+02    2.5253900886e-01
    2.8180780029e+02    2.5220200419e-01
    2.8190792847e+02    2.5186499953e-01
    2.8200796509e+02    2.5152701139e-01
    2.8210791016e+02    2.5119000673e-01
    2.8220794678e+02    2.5085198879e-01
    2.8230780029e+02    2.5051200390e-01
    2.8240792847e+02    2.5017100573e-01
    2.8250793457e+02    2.4982899427e-01
    2.8260791016e+02    2.4948599935e-01
    2.8270791626e+02    2.4913999438e-01
    2.8280786133e+02    2.4878799915e-01
    2.8290783691e+02    2.4843199551e-01
    2.8300793457e+02    2.4807199836e-01
    2.8310803223e+02    2.4771000445e-01
    2.8320788574e+02    2.4734699726e-01
    2.8330786133e+02    2.4698300660e-01
    2.8340789795e+02    2.4661800265e-01
    2.8350793457e+02    2.4625200033e-01
    2.8360806274e+02    2.4588599801e-01
    2.8370791626e+02    2.4551700056e-01
    2.8380801392e+02    2.4514499307e-01
    2.8390805054e+02    2.4477100372e-01
    2.8400793457e+02    2.4439400434e-01
    2.8410812378e+02    2.4401399493e-01
    2.8420800781e+02    2.4363000691e-01
    2.8430810547e+02    2.4324500561e-01
    2.8440805054e+02    2.4285799265e-01
    2.8450796509e+02    2.4246999621e-01
    2.8460794067e+02    2.4208000302e-01
    2.8470803833e+02    2.4168899655e-01
    2.8480801392e+02    2.4129700661e-01
    2.8490808105e+02    2.4090099335e-01
    2.8500805664e+02    2.4050100148e-01
    2.8510797119e+02    2.4009500444e-01
    2.8520797729e+02    2.3968300223e-01
    2.8530807495e+02    2.3926700652e-01
    2.8540808105e+02    2.3884800076e-01
    2.8550808716e+02    2.3842400312e-01
    2.8560815430e+02    2.3799499869e-01
    2.8570809937e+02    2.3756299913e-01
    2.8580807495e+02    2.3712499440e-01
    2.8590811157e+02    2.3668199778e-01
    2.8600805664e+02    2.3623600602e-01
    2.8610815430e+02    2.3578299582e-01
    2.8620803833e+02    2.3532600701e-01
    2.8630813599e+02    2.3486399651e-01
    2.8640817261e+02    2.3439599574e-01
    2.8650808716e+02    2.3392499983e-01
    2.8660806274e+02    2.3344999552e-01
    2.8670806885e+02    2.3296999931e-01
    2.8680810547e+02    2.3248399794e-01
    2.8690823364e+02    2.3199200630e-01
    2.8700811768e+02    2.3149900138e-01
    2.8710818481e+02    2.3100000620e-01
    2.8720822144e+02    2.3049600422e-01
    2.8730810547e+02    2.2998499870e-01
    2.8740820312e+02    2.2946800292e-01
    2.8750833130e+02    2.2894500196e-01
    2.8760818481e+02    2.2841699421e-01
    2.8770831299e+02    2.2788000107e-01
    2.8780822754e+02    2.2733899951e-01
    2.8790814209e+02    2.2679300606e-01
    2.8800827026e+02    2.2624100745e-01
    2.8810815430e+02    2.2568500042e-01
    2.8820828247e+02    2.2512200475e-01
    2.8830819702e+02    2.2455300391e-01
    2.8840832520e+02    2.2397699952e-01
    2.8850827026e+02    2.2339500487e-01
    2.8860818481e+02    2.2280700505e-01
    2.8870834351e+02    2.2221300006e-01
    2.8880822754e+02    2.2161400318e-01
    2.8890838623e+02    2.2100700438e-01
    2.8900830078e+02    2.2039300203e-01
    2.8910824585e+02    2.1977299452e-01
    2.8920840454e+02    2.1914699674e-01
    2.8930831909e+02    2.1851800382e-01
    2.8940823364e+02    2.1788200736e-01
    2.8950839233e+02    2.1723900735e-01
    2.8960830688e+02    2.1659100056e-01
    2.8970846558e+02    2.1593600512e-01
    2.8980834961e+02    2.1527700126e-01
    2.8990829468e+02    2.1461200714e-01
    2.9000836182e+02    2.1393799782e-01
    2.9010833740e+02    2.1325600147e-01
    2.9020840454e+02    2.1256600320e-01
    2.9030841064e+02    2.1186800301e-01
    2.9040832520e+02    2.1116299927e-01
    2.9050845337e+02    2.1044799685e-01
    2.9060827637e+02    2.0972800255e-01
    2.9070840454e+02    2.0899799466e-01
    2.9080834961e+02    2.0826500654e-01
    2.9090835571e+02    2.0752599835e-01
    2.9100851440e+02    2.0677299798e-01
    2.9110842896e+02    2.0600999892e-01
    2.9120846558e+02    2.0523899794e-01
    2.9130847168e+02    2.0446300507e-01
    2.9140844727e+02    2.0368100703e-01
    2.9150842285e+02    2.0289500058e-01
    2.9160839844e+02    2.0210400224e-01
    2.9170843506e+02    2.0131100714e-01
    2.9180853271e+02    2.0051500201e-01
    2.9190841675e+02    1.9971700013e-01
    2.9200839233e+02    1.9891600311e-01
    2.9210852051e+02    1.9811199605e-01
    2.9220852661e+02    1.9730399549e-01
    2.9230844116e+02    1.9649299979e-01
    2.9240863037e+02    1.9567599893e-01
    2.9250854492e+02    1.9485799968e-01
    2.9260845947e+02    1.9403600693e-01
    2.9270864868e+02    1.9320599735e-01
    2.9280862427e+02    1.9236899912e-01
    2.9290859985e+02    1.9152200222e-01
    2.9300851440e+02    1.9067199528e-01
    2.9310848999e+02    1.8981699646e-01
    2.9320849609e+02    1.8896000087e-01
    2.9330847168e+02    1.8810200691e-01
    2.9340853882e+02    1.8724200130e-01
    2.9350866699e+02    1.8638099730e-01
    2.9360855103e+02    1.8552300334e-01
    2.9370861816e+02    1.8466000259e-01
    2.9380853271e+02    1.8379700184e-01
    2.9390853882e+02    1.8293200433e-01
    2.9400866699e+02    1.8206399679e-01
    2.9410858154e+02    1.8119600415e-01
    2.9420864868e+02    1.8032500148e-01
    2.9430865479e+02    1.7945599556e-01
    2.9440856934e+02    1.7858900130e-01
    2.9450872803e+02    1.7771999538e-01
    2.9460861206e+02    1.7685300112e-01
    2.9470855713e+02    1.7598700523e-01
    2.9480856323e+02    1.7512099445e-01
    2.9490869141e+02    1.7425200343e-01
    2.9500866699e+02    1.7338100076e-01
    2.9510858154e+02    1.7250500619e-01
    2.9520877075e+02    1.7162400484e-01
    2.9530877686e+02    1.7074400187e-01
    2.9540869141e+02    1.6986399889e-01
    2.9550872803e+02    1.6898100078e-01
    2.9560864258e+02    1.6809800267e-01
    2.9570877075e+02    1.6721199453e-01
    2.9580877686e+02    1.6632500291e-01
    2.9590866089e+02    1.6543799639e-01
    2.9600863647e+02    1.6455100477e-01
    2.9610879517e+02    1.6366100311e-01
    2.9620883179e+02    1.6277199984e-01
    2.9630868530e+02    1.6188299656e-01
    2.9640875244e+02    1.6099299490e-01
    2.9650881958e+02    1.6010600328e-01
    2.9660870361e+02    1.5922200680e-01
    2.9670880127e+02    1.5833500028e-01
    2.9680868530e+02    1.5744900703e-01
    2.9690878296e+02    1.5656299889e-01
    2.9700872803e+02    1.5568099916e-01
    2.9710888672e+02    1.5479800105e-01
    2.9720883179e+02    1.5391500294e-01
    2.9730877686e+02    1.5302899480e-01
    2.9740884399e+02    1.5214200318e-01
    2.9750878906e+02    1.5125699341e-01
    2.9760891724e+02    1.5036800504e-01
    2.9770877075e+02    1.4948099852e-01
    2.9780892944e+02    1.4859299362e-01
    2.9790890503e+02    1.4770700037e-01
    2.9800891113e+02    1.4682300389e-01
    2.9810876465e+02    1.4594300091e-01
    2.9820877075e+02    1.4506199956e-01
    2.9830877686e+02    1.4418299496e-01
    2.9840884399e+02    1.4330500364e-01
    2.9850891113e+02    1.4242799580e-01
    2.9860897827e+02    1.4155100286e-01
    2.9870892334e+02    1.4068000019e-01
    2.9880880737e+02    1.3980999589e-01
    2.9890884399e+02    1.3894000649e-01
    2.9900900269e+02    1.3806900382e-01
    2.9910882568e+02    1.3720400631e-01
    2.9920892334e+02    1.3633799553e-01
    2.9930899048e+02    1.3547599316e-01
    2.9940893555e+02    1.3461500406e-01
    2.9950900269e+02    1.3375499845e-01
    2.9960900879e+02    1.3289900124e-01
    2.9970889282e+02    1.3204599917e-01
    2.9980902100e+02    1.3119299710e-01
    2.9990893555e+02    1.3034300506e-01
endcurve
