Curveplot
LS-DYNA keyword deck by LS-PrePost
Abscissa
Ordinate
XY data
CHOP_NASZ_mo-1 #pts=3000
* Minval=    -1.0777400017e+01 at time=       162.0004577637
* Maxval=     3.5546000004e+00 at time=       265.2068176270
    0.0000000000e+00    0.0000000000e+00
    9.9971257150e-02    1.5199000387e-17
    1.9997157156e-01    2.5583298680e-07
    2.9983949661e-01    4.2477699935e-07
    3.9980411530e-01    6.4856101289e-07
    4.9986100197e-01    1.0681600315e-06
    5.9982681274e-01    1.0940400443e-06
    6.9986909628e-01    2.0988600227e-06
    7.9996424913e-01    3.7636200432e-06
    8.9999699593e-01    4.2864098759e-06
    9.9983048439e-01    3.6904300487e-06
    1.0998057127e+00    2.8664899219e-06
    1.1997965574e+00    2.3106399567e-06
    1.2998238802e+00    2.9831799111e-06
    1.3998663425e+00    6.0323900470e-06
    1.4999084473e+00    1.1318699762e-05
    1.5998848677e+00    1.8129299860e-05
    1.6998517513e+00    2.5672299671e-05
    1.7998569012e+00    3.2623498555e-05
    1.8999532461e+00    3.8098398363e-05
    1.9998379946e+00    4.0883700422e-05
    2.0999476910e+00    3.9325001126e-05
    2.1999177933e+00    3.3128999348e-05
    2.2999169827e+00    2.3286000214e-05
    2.3998513222e+00    9.2814198069e-06
    2.4999043941e+00   -9.4448196251e-06
    2.5998687744e+00   -3.3452299249e-05
    2.6998603344e+00   -6.3230203523e-05
    2.7999703884e+00   -9.8947697552e-05
    2.8998289108e+00   -1.4037299843e-04
    2.9999125004e+00   -1.8926399935e-04
    3.0998518467e+00   -2.4742700043e-04
    3.1999235153e+00   -3.1678099185e-04
    3.2998852730e+00   -3.9884899161e-04
    3.3999664783e+00   -4.9484201008e-04
    3.4999496937e+00   -6.0461298563e-04
    3.5999453068e+00   -7.2791799903e-04
    3.6998658180e+00   -8.6399802240e-04
    3.7998898029e+00   -1.0123000247e-03
    3.8998456001e+00   -1.1713600252e-03
    3.9997999668e+00   -1.3405700447e-03
    4.0997948647e+00   -1.5203700168e-03
    4.1999564171e+00   -1.7109699547e-03
    4.2998638153e+00   -1.9118899945e-03
    4.3998351097e+00   -2.1235800814e-03
    4.4997935295e+00   -2.3465401027e-03
    4.5999145508e+00   -2.5811900850e-03
    4.6998620033e+00   -2.8272899799e-03
    4.7999286652e+00   -3.0861101113e-03
    4.8998680115e+00   -3.3570299856e-03
    4.9999794960e+00   -3.6404700950e-03
    5.0997986794e+00   -3.9343298413e-03
    5.1997833252e+00   -4.2400299571e-03
    5.2998895645e+00   -4.5574200340e-03
    5.3998904228e+00   -4.8851598985e-03
    5.4997935295e+00   -5.2229999565e-03
    5.5999422073e+00   -5.5720699020e-03
    5.6997799873e+00   -5.9307399206e-03
    5.7998991013e+00   -6.3008200377e-03
    5.8999552727e+00   -6.6808601841e-03
    5.9998483658e+00   -7.0707099512e-03
    6.0998144150e+00   -7.4706701562e-03
    6.1999297142e+00   -7.8807398677e-03
    6.2999696732e+00   -8.3008604124e-03
    6.3998751640e+00   -8.7302802131e-03
    6.4998874664e+00   -9.1703999788e-03
    6.5999126434e+00   -9.6208201721e-03
    6.6999530792e+00   -1.0080699809e-02
    6.7997941971e+00   -1.0548599996e-02
    6.8999919891e+00   -1.1027599685e-02
    6.9999003410e+00   -1.1514199898e-02
    7.0998325348e+00   -1.2010199949e-02
    7.1999907494e+00   -1.2516899966e-02
    7.2999491692e+00   -1.3032799587e-02
    7.3997888565e+00   -1.3559499756e-02
    7.4999084473e+00   -1.4099899679e-02
    7.5999560356e+00   -1.4653399587e-02
    7.6998777390e+00   -1.5220199712e-02
    7.7999305725e+00   -1.5802899376e-02
    7.8999834061e+00   -1.6401899979e-02
    7.9997878075e+00   -1.7015999183e-02
    8.0999040604e+00   -1.7648899928e-02
    8.1998615265e+00   -1.8296299502e-02
    8.2998313904e+00   -1.8959000707e-02
    8.3999738693e+00   -1.9637800753e-02
    8.4998607635e+00   -2.0329900086e-02
    8.5999755859e+00   -2.1038500592e-02
    8.6999568939e+00   -2.1761599928e-02
    8.7998018265e+00   -2.2498799488e-02
    8.8997955322e+00   -2.3252699524e-02
    8.9999752045e+00   -2.4024300277e-02
    9.0999126434e+00   -2.4810699746e-02
    9.1999273300e+00   -2.5614200160e-02
    9.2998275757e+00   -2.6432400569e-02
    9.3998746872e+00   -2.7267400175e-02
    9.4999370575e+00   -2.8117800131e-02
    9.5998249054e+00   -2.8981799260e-02
    9.6999921799e+00   -2.9862999916e-02
    9.7999610901e+00   -3.0756499618e-02
    9.8998632431e+00   -3.1662900001e-02
    9.9998216629e+00   -3.2583698630e-02
    1.0099919319e+01   -3.3520098776e-02
    1.0199834824e+01   -3.4469299018e-02
    1.0299937248e+01   -3.5434700549e-02
    1.0399831772e+01   -3.6412499845e-02
    1.0499958038e+01   -3.7406701595e-02
    1.0599818230e+01   -3.8412701339e-02
    1.0700003624e+01   -3.9433501661e-02
    1.0799938202e+01   -4.0462698787e-02
    1.0899888992e+01   -4.1505001485e-02
    1.0999879837e+01   -4.2560499161e-02
    1.1099910736e+01   -4.3627798557e-02
    1.1199938774e+01   -4.4705700129e-02
    1.1299847603e+01   -4.5791201293e-02
    1.1399874687e+01   -4.6884298325e-02
    1.1499861717e+01   -4.7982700169e-02
    1.1599894524e+01   -4.9087699503e-02
    1.1699989319e+01   -5.0201300532e-02
    1.1799953461e+01   -5.1323700696e-02
    1.1899891853e+01   -5.2457500249e-02
    1.2000000000e+01   -5.3606901318e-02
    1.2099945068e+01   -5.4770700634e-02
    1.2199983597e+01   -5.5952701718e-02
    1.2299942017e+01   -5.7150300592e-02
    1.2399961472e+01   -5.8365900069e-02
    1.2499838829e+01   -5.9598598629e-02
    1.2599983215e+01   -6.0854300857e-02
    1.2699993134e+01   -6.2128599733e-02
    1.2799806595e+01   -6.3421197236e-02
    1.2899923325e+01   -6.4738303423e-02
    1.2999868393e+01   -6.6075898707e-02
    1.3099847794e+01   -6.7438699305e-02
    1.3200003624e+01   -6.8831801414e-02
    1.3299923897e+01   -7.0252403617e-02
    1.3399838448e+01   -7.1705400944e-02
    1.3499816895e+01   -7.3192298412e-02
    1.3599921227e+01   -7.4713997543e-02
    1.3699827194e+01   -7.6263897121e-02
    1.3799995422e+01   -7.7848203480e-02
    1.3899859428e+01   -7.9456500709e-02
    1.3999837875e+01   -8.1093400717e-02
    1.4099941254e+01   -8.2758203149e-02
    1.4199989319e+01   -8.4448002279e-02
    1.4299903870e+01   -8.6162097752e-02
    1.4399898529e+01   -8.7904296815e-02
    1.4499859810e+01   -8.9673101902e-02
    1.4599869728e+01   -9.1470301151e-02
    1.4699887276e+01   -9.3295700848e-02
    1.4799889565e+01   -9.5149502158e-02
    1.4899987221e+01   -9.7034096718e-02
    1.4999958992e+01   -9.8944798112e-02
    1.5099836349e+01   -1.0087899864e-01
    1.5199943542e+01   -1.0284399986e-01
    1.5300018311e+01   -1.0483200103e-01
    1.5399898529e+01   -1.0683999956e-01
    1.5499902725e+01   -1.0887199640e-01
    1.5599830627e+01   -1.1092399806e-01
    1.5699997902e+01   -1.1300300062e-01
    1.5799925804e+01   -1.1509700119e-01
    1.5899937630e+01   -1.1721400172e-01
    1.5999978065e+01   -1.1935299635e-01
    1.6099813461e+01   -1.2150699645e-01
    1.6199831009e+01   -1.2368199974e-01
    1.6299974442e+01   -1.2587800622e-01
    1.6399808884e+01   -1.2808400393e-01
    1.6499980927e+01   -1.3031500578e-01
    1.6599952698e+01   -1.3255900145e-01
    1.6700012207e+01   -1.3481999934e-01
    1.6799825668e+01   -1.3709099591e-01
    1.6899862289e+01   -1.3938300312e-01
    1.6999843597e+01   -1.4169000089e-01
    1.7099895477e+01   -1.4401499927e-01
    1.7199947357e+01   -1.4635699987e-01
    1.7300010681e+01   -1.4871600270e-01
    1.7399953842e+01   -1.5109199286e-01
    1.7500017166e+01   -1.5349100530e-01
    1.7599971771e+01   -1.5590600669e-01
    1.7699850082e+01   -1.5834200382e-01
    1.7799871445e+01   -1.6080400348e-01
    1.7899984360e+01   -1.6329300404e-01
    1.7999977112e+01   -1.6580499709e-01
    1.8099954605e+01   -1.6834400594e-01
    1.8199918747e+01   -1.7090700567e-01
    1.8299877167e+01   -1.7349700630e-01
    1.8399894714e+01   -1.7611299455e-01
    1.8499883652e+01   -1.7875300348e-01
    1.8599895477e+01   -1.8141700327e-01
    1.8699947357e+01   -1.8410700560e-01
    1.8799995422e+01   -1.8682000041e-01
    1.8899908066e+01   -1.8955099583e-01
    1.8999912262e+01   -1.9230799377e-01
    1.9099878311e+01   -1.9508799911e-01
    1.9199895859e+01   -1.9789199531e-01
    1.9299985886e+01   -2.0072300732e-01
    1.9399915695e+01   -2.0357200503e-01
    1.9499938965e+01   -2.0644800365e-01
    1.9599990845e+01   -2.0934699476e-01
    1.9699922562e+01   -2.1226599813e-01
    1.9799840927e+01   -2.1520400047e-01
    1.9899946213e+01   -2.1816599369e-01
    1.9999959946e+01   -2.2114600241e-01
    2.0100019455e+01   -2.2414399683e-01
    2.0199895859e+01   -2.2715499997e-01
    2.0299819946e+01   -2.3018500209e-01
    2.0400011063e+01   -2.3324100673e-01
    2.0500034332e+01   -2.3630900681e-01
    2.0599992752e+01   -2.3939199746e-01
    2.0699909210e+01   -2.4248799682e-01
    2.0800039291e+01   -2.4560299516e-01
    2.0899879456e+01   -2.4872399867e-01
    2.0999946594e+01   -2.5186398625e-01
    2.1099977493e+01   -2.5501298904e-01
    2.1199871063e+01   -2.5816598535e-01
    2.1299833298e+01   -2.6132699847e-01
    2.1399942398e+01   -2.6449498534e-01
    2.1500043869e+01   -2.6766300201e-01
    2.1599878311e+01   -2.7082499862e-01
    2.1700033188e+01   -2.7400198579e-01
    2.1799928665e+01   -2.7717599273e-01
    2.1899951935e+01   -2.8036299348e-01
    2.1999855042e+01   -2.8355699778e-01
    2.2099929810e+01   -2.8676900268e-01
    2.2199851990e+01   -2.8999000788e-01
    2.2299959183e+01   -2.9322901368e-01
    2.2399913788e+01   -2.9647600651e-01
    2.2499876022e+01   -2.9973798990e-01
    2.2599878311e+01   -3.0301600695e-01
    2.2699953079e+01   -3.0631399155e-01
    2.2800016403e+01   -3.0962899327e-01
    2.2899847031e+01   -3.1295400858e-01
    2.2999860764e+01   -3.1630599499e-01
    2.3099845886e+01   -3.1968098879e-01
    2.3199947357e+01   -3.2308599353e-01
    2.3300029755e+01   -3.2651799917e-01
    2.3399887085e+01   -3.2997199893e-01
    2.3499977112e+01   -3.3346500993e-01
    2.3599868774e+01   -3.3698099852e-01
    2.3699998856e+01   -3.4053200483e-01
    2.3799953461e+01   -3.4410300851e-01
    2.3899904251e+01   -3.4769898653e-01
    2.3999948502e+01   -3.5132101178e-01
    2.4099872589e+01   -3.5496199131e-01
    2.4199996948e+01   -3.5863199830e-01
    2.4299957275e+01   -3.6232000589e-01
    2.4400026321e+01   -3.6603501439e-01
    2.4499980927e+01   -3.6976999044e-01
    2.4599922180e+01   -3.7352699041e-01
    2.4699985504e+01   -3.7731099129e-01
    2.4799831390e+01   -3.8111001253e-01
    2.4900058746e+01   -3.8494598866e-01
    2.4999998093e+01   -3.8879200816e-01
    2.5100049973e+01   -3.9266300201e-01
    2.5199964523e+01   -3.9654698968e-01
    2.5299905777e+01   -4.0045198798e-01
    2.5399843216e+01   -4.0437200665e-01
    2.5499858856e+01   -4.0831100941e-01
    2.5600000381e+01   -4.1226899624e-01
    2.5700012207e+01   -4.1623499990e-01
    2.5800022125e+01   -4.2021200061e-01
    2.5900035858e+01   -4.2419800162e-01
    2.5999860764e+01   -4.2818599939e-01
    2.6100000381e+01   -4.3219399452e-01
    2.6199943542e+01   -4.3619900942e-01
    2.6300024033e+01   -4.4021499157e-01
    2.6400058746e+01   -4.4423300028e-01
    2.6499961853e+01   -4.4824999571e-01
    2.6599887848e+01   -4.5227199793e-01
    2.6699939728e+01   -4.5630100369e-01
    2.6800029755e+01   -4.6033400297e-01
    2.6899930954e+01   -4.6436199546e-01
    2.6999984741e+01   -4.6839898825e-01
    2.7099874496e+01   -4.7242999077e-01
    2.7199977875e+01   -4.7647300363e-01
    2.7300050735e+01   -4.8051699996e-01
    2.7399965286e+01   -4.8456001282e-01
    2.7499931335e+01   -4.8860999942e-01
    2.7599922180e+01   -4.9266800284e-01
    2.7699968338e+01   -4.9673700333e-01
    2.7799972534e+01   -5.0081497431e-01
    2.7899881363e+01   -5.0490099192e-01
    2.8000001907e+01   -5.0901001692e-01
    2.8099903107e+01   -5.1312202215e-01
    2.8200061798e+01   -5.1725798845e-01
    2.8300027847e+01   -5.2139800787e-01
    2.8399848938e+01   -5.2554398775e-01
    2.8499996185e+01   -5.2971297503e-01
    2.8599878311e+01   -5.3388202190e-01
    2.8699928284e+01   -5.3806799650e-01
    2.8799922943e+01   -5.4226201773e-01
    2.8899953842e+01   -5.4646801949e-01
    2.8999998093e+01   -5.5068397522e-01
    2.9099895477e+01   -5.5490499735e-01
    2.9200056076e+01   -5.5914801359e-01
    2.9299957275e+01   -5.6339001656e-01
    2.9399951935e+01   -5.6764698029e-01
    2.9499929428e+01   -5.7191300392e-01
    2.9599899292e+01   -5.7618802786e-01
    2.9699974060e+01   -5.8047598600e-01
    2.9799854279e+01   -5.8476197720e-01
    2.9900075912e+01   -5.8906900883e-01
    3.0000061035e+01   -5.9337002039e-01
    3.0099876404e+01   -5.9766900539e-01
    3.0200061798e+01   -6.0198801756e-01
    3.0300052643e+01   -6.0630202293e-01
    3.0400020599e+01   -6.1061799526e-01
    3.0499977112e+01   -6.1493402719e-01
    3.0600040436e+01   -6.1925601959e-01
    3.0699951172e+01   -6.2356698513e-01
    3.0799909592e+01   -6.2787497044e-01
    3.0899894714e+01   -6.3218301535e-01
    3.1000030518e+01   -6.3649499416e-01
    3.1099969864e+01   -6.4079201221e-01
    3.1200069427e+01   -6.4508599043e-01
    3.1299901962e+01   -6.4935499430e-01
    3.1399974823e+01   -6.5361297131e-01
    3.1500015259e+01   -6.5784800053e-01
    3.1599910736e+01   -6.6205698252e-01
    3.1699909210e+01   -6.6625297070e-01
    3.1800012589e+01   -6.7044299841e-01
    3.1900062561e+01   -6.7462098598e-01
    3.1999864578e+01   -6.7878597975e-01
    3.2099925995e+01   -6.8296498060e-01
    3.2200077057e+01   -6.8715399504e-01
    3.2299915314e+01   -6.9133102894e-01
    3.2399955750e+01   -6.9552099705e-01
    3.2499919891e+01   -6.9971501827e-01
    3.2600017548e+01   -7.0392298698e-01
    3.2699851990e+01   -7.0813000202e-01
    3.2799995422e+01   -7.1236300468e-01
    3.2899856567e+01   -7.1659398079e-01
    3.3000007629e+01   -7.2085601091e-01
    3.3099979401e+01   -7.2513502836e-01
    3.3200016022e+01   -7.2944802046e-01
    3.3299987793e+01   -7.3379397392e-01
    3.3399864197e+01   -7.3817902803e-01
    3.3499961853e+01   -7.4261498451e-01
    3.3599975586e+01   -7.4708902836e-01
    3.3700000763e+01   -7.5160098076e-01
    3.3799991608e+01   -7.5614798069e-01
    3.3900009155e+01   -7.6072698832e-01
    3.4000007629e+01   -7.6533401012e-01
    3.4099880219e+01   -7.6996302605e-01
    3.4200004578e+01   -7.7463001013e-01
    3.4299964905e+01   -7.7932000160e-01
    3.4399917603e+01   -7.8403902054e-01
    3.4499828339e+01   -7.8878802061e-01
    3.4599933624e+01   -7.9357898235e-01
    3.4699954987e+01   -7.9839801788e-01
    3.4799873352e+01   -8.0324602127e-01
    3.4899955750e+01   -8.0813497305e-01
    3.4999908447e+01   -8.1304901838e-01
    3.5099910736e+01   -8.1799298525e-01
    3.5199901581e+01   -8.2296299934e-01
    3.5299911499e+01   -8.2795798779e-01
    3.5399845123e+01   -8.3297300339e-01
    3.5499839783e+01   -8.3801001310e-01
    3.5599937439e+01   -8.4307199717e-01
    3.5699993134e+01   -8.4815001488e-01
    3.5799934387e+01   -8.5323899984e-01
    3.5899810791e+01   -8.5833901167e-01
    3.5999977112e+01   -8.6347001791e-01
    3.6099861145e+01   -8.6859697104e-01
    3.6200016022e+01   -8.7374699116e-01
    3.6299839020e+01   -8.7888801098e-01
    3.6399993896e+01   -8.8405197859e-01
    3.6499908447e+01   -8.8921099901e-01
    3.6599979401e+01   -8.9438599348e-01
    3.6699825287e+01   -8.9955198765e-01
    3.6799823761e+01   -9.0472900867e-01
    3.6899974823e+01   -9.0991902351e-01
    3.6999916077e+01   -9.1510301828e-01
    3.7099925995e+01   -9.2029500008e-01
    3.7199920654e+01   -9.2549300194e-01
    3.7299957275e+01   -9.3069899082e-01
    3.7399879456e+01   -9.3591201305e-01
    3.7499877930e+01   -9.4114297628e-01
    3.7599975586e+01   -9.4639599323e-01
    3.7699924469e+01   -9.5166099072e-01
    3.7799831390e+01   -9.5694899559e-01
    3.7899868011e+01   -9.6227198839e-01
    3.7999893188e+01   -9.6762698889e-01
    3.8099914551e+01   -9.7301501036e-01
    3.8199794769e+01   -9.7842597961e-01
    3.8299816132e+01   -9.8387497663e-01
    3.8399826050e+01   -9.8935300112e-01
    3.8499778748e+01   -9.9485599995e-01
    3.8599788666e+01   -1.0003900528e+00
    3.8699916840e+01   -1.0059599876e+00
    3.8799854279e+01   -1.0115400553e+00
    3.8899909973e+01   -1.0171600580e+00
    3.8999935150e+01   -1.0228099823e+00
    3.9099838257e+01   -1.0284800529e+00
    3.9199783325e+01   -1.0341800451e+00
    3.9299758911e+01   -1.0399199724e+00
    3.9399883270e+01   -1.0456999540e+00
    3.9499965668e+01   -1.0514999628e+00
    3.9599819183e+01   -1.0573199987e+00
    3.9699924469e+01   -1.0631799698e+00
    3.9799835205e+01   -1.0690599680e+00
    3.9899757385e+01   -1.0749499798e+00
    3.9999778748e+01   -1.0808800459e+00
    4.0099807739e+01   -1.0868300200e+00
    4.0199932098e+01   -1.0928000212e+00
    4.0299900055e+01   -1.0987900496e+00
    4.0399944305e+01   -1.1048099995e+00
    4.0499847412e+01   -1.1108299494e+00
    4.0599800110e+01   -1.1168800592e+00
    4.0699798584e+01   -1.1229399443e+00
    4.0799919128e+01   -1.1290099621e+00
    4.0899780273e+01   -1.1350899935e+00
    4.0999797821e+01   -1.1411800385e+00
    4.1099735260e+01   -1.1472699642e+00
    4.1199829102e+01   -1.1533700228e+00
    4.1299777985e+01   -1.1594599485e+00
    4.1399822235e+01   -1.1655299664e+00
    4.1499774933e+01   -1.1715899706e+00
    4.1599792480e+01   -1.1776299477e+00
    4.1699855804e+01   -1.1836600304e+00
    4.1799743652e+01   -1.1896799803e+00
    4.1899883270e+01   -1.1957199574e+00
    4.1999763489e+01   -1.2017600536e+00
    4.2099826813e+01   -1.2078100443e+00
    4.2199840546e+01   -1.2138899565e+00
    4.2299713135e+01   -1.2199699879e+00
    4.2399791718e+01   -1.2260899544e+00
    4.2499843597e+01   -1.2322299480e+00
    4.2599903107e+01   -1.2383899689e+00
    4.2699798584e+01   -1.2445800304e+00
    4.2799884796e+01   -1.2508100271e+00
    4.2899871826e+01   -1.2570600510e+00
    4.2999790192e+01   -1.2633600235e+00
    4.3099830627e+01   -1.2697000504e+00
    4.3199855804e+01   -1.2761100531e+00
    4.3299774170e+01   -1.2825700045e+00
    4.3399753571e+01   -1.2891099453e+00
    4.3499862671e+01   -1.2957199812e+00
    4.3599750519e+01   -1.3023999929e+00
    4.3699890137e+01   -1.3091499805e+00
    4.3799900055e+01   -1.3159600496e+00
    4.3899784088e+01   -1.3228299618e+00
    4.3999893188e+01   -1.3297599554e+00
    4.4099800110e+01   -1.3367400169e+00
    4.4199703217e+01   -1.3437700272e+00
    4.4299705505e+01   -1.3508599997e+00
    4.4399883270e+01   -1.3580199480e+00
    4.4499885559e+01   -1.3652299643e+00
    4.4599761963e+01   -1.3724800348e+00
    4.4699752808e+01   -1.3798099756e+00
    4.4799789429e+01   -1.3871899843e+00
    4.4899738312e+01   -1.3946299553e+00
    4.4999687195e+01   -1.4021300077e+00
    4.5099723816e+01   -1.4096900225e+00
    4.5199756622e+01   -1.4172999859e+00
    4.5299682617e+01   -1.4249500036e+00
    4.5399795532e+01   -1.4326599836e+00
    4.5499702454e+01   -1.4403899908e+00
    4.5599853516e+01   -1.4481799603e+00
    4.5699703217e+01   -1.4559899569e+00
    4.5799716949e+01   -1.4638400078e+00
    4.5899711609e+01   -1.4717199802e+00
    4.5999744415e+01   -1.4796299934e+00
    4.6099735260e+01   -1.4875700474e+00
    4.6199752808e+01   -1.4955199957e+00
    4.6299736023e+01   -1.5034999847e+00
    4.6399768829e+01   -1.5115000010e+00
    4.6499744415e+01   -1.5195100307e+00
    4.6599681854e+01   -1.5275299549e+00
    4.6699802399e+01   -1.5355900526e+00
    4.6799652100e+01   -1.5436300039e+00
    4.6899806976e+01   -1.5517200232e+00
    4.6999652863e+01   -1.5597900152e+00
    4.7099697113e+01   -1.5678999424e+00
    4.7199802399e+01   -1.5760200024e+00
    4.7299671173e+01   -1.5841399431e+00
    4.7399833679e+01   -1.5923099518e+00
    4.7499713898e+01   -1.6004799604e+00
    4.7599830627e+01   -1.6087000370e+00
    4.7699699402e+01   -1.6169400215e+00
    4.7799736023e+01   -1.6252299547e+00
    4.7899791718e+01   -1.6335599422e+00
    4.7999740601e+01   -1.6419399977e+00
    4.8099731445e+01   -1.6503700018e+00
    4.8199649811e+01   -1.6588399410e+00
    4.8299701691e+01   -1.6673699617e+00
    4.8399677277e+01   -1.6759400368e+00
    4.8499656677e+01   -1.6845599413e+00
    4.8599678040e+01   -1.6932300329e+00
    4.8699718475e+01   -1.7019399405e+00
    4.8799751282e+01   -1.7106900215e+00
    4.8899623871e+01   -1.7194700241e+00
    4.8999767303e+01   -1.7283300161e+00
    4.9099685669e+01   -1.7372000217e+00
    4.9199615479e+01   -1.7461299896e+00
    4.9299808502e+01   -1.7551300526e+00
    4.9399639130e+01   -1.7641400099e+00
    4.9499610901e+01   -1.7732000351e+00
    4.9599811554e+01   -1.7823400497e+00
    4.9699596405e+01   -1.7914799452e+00
    4.9799747467e+01   -1.8006900549e+00
    4.9899719238e+01   -1.8099199533e+00
    4.9999626160e+01   -1.8191800117e+00
    5.0099685669e+01   -1.8284800053e+00
    5.0199676514e+01   -1.8378100395e+00
    5.0299667358e+01   -1.8471800089e+00
    5.0399646759e+01   -1.8565700054e+00
    5.0499629974e+01   -1.8659800291e+00
    5.0599639893e+01   -1.8754299879e+00
    5.0699691772e+01   -1.8848999739e+00
    5.0799648285e+01   -1.8943699598e+00
    5.0899631500e+01   -1.9038599730e+00
    5.0999614716e+01   -1.9133599997e+00
    5.1099700928e+01   -1.9228700399e+00
    5.1199695587e+01   -1.9323699474e+00
    5.1299648285e+01   -1.9418599606e+00
    5.1399738312e+01   -1.9513399601e+00
    5.1499694824e+01   -1.9607800245e+00
    5.1599666595e+01   -1.9701900482e+00
    5.1699573517e+01   -1.9795900583e+00
    5.1799713135e+01   -1.9889999628e+00
    5.1899635315e+01   -1.9983899593e+00
    5.1999603271e+01   -2.0077900887e+00
    5.2099681854e+01   -2.0172100067e+00
    5.2199657440e+01   -2.0266499519e+00
    5.2299705505e+01   -2.0361099243e+00
    5.2399719238e+01   -2.0455799103e+00
    5.2499656677e+01   -2.0550799370e+00
    5.2599555969e+01   -2.0645999908e+00
    5.2699668884e+01   -2.0741701126e+00
    5.2799690247e+01   -2.0837600231e+00
    5.2899730682e+01   -2.0934000015e+00
    5.2999561310e+01   -2.1030600071e+00
    5.3099609375e+01   -2.1127901077e+00
    5.3199691772e+01   -2.1225900650e+00
    5.3299663544e+01   -2.1324601173e+00
    5.3399745941e+01   -2.1424100399e+00
    5.3499675751e+01   -2.1524300575e+00
    5.3599544525e+01   -2.1625299454e+00
    5.3699661255e+01   -2.1727299690e+00
    5.3799629211e+01   -2.1829800606e+00
    5.3899635315e+01   -2.1933000088e+00
    5.3999565125e+01   -2.2036900520e+00
    5.4099536896e+01   -2.2141299248e+00
    5.4199623108e+01   -2.2246499062e+00
    5.4299598694e+01   -2.2352299690e+00
    5.4399536133e+01   -2.2458600998e+00
    5.4499610901e+01   -2.2565801144e+00
    5.4599662781e+01   -2.2673699856e+00
    5.4699691772e+01   -2.2782099247e+00
    5.4799571991e+01   -2.2891099453e+00
    5.4899662018e+01   -2.3001000881e+00
    5.4999626160e+01   -2.3111400604e+00
    5.5099693298e+01   -2.3222401142e+00
    5.5199710846e+01   -2.3333899975e+00
    5.5299575806e+01   -2.3445799351e+00
    5.5399593353e+01   -2.3558299541e+00
    5.5499725342e+01   -2.3671300411e+00
    5.5599666595e+01   -2.3784499168e+00
    5.5699638367e+01   -2.3898000717e+00
    5.5799564362e+01   -2.4011800289e+00
    5.5899692535e+01   -2.4126100540e+00
    5.5999519348e+01   -2.4240200520e+00
    5.6099552155e+01   -2.4354801178e+00
    5.6199508667e+01   -2.4469399452e+00
    5.6299510956e+01   -2.4584100246e+00
    5.6399520874e+01   -2.4698901176e+00
    5.6499530792e+01   -2.4813699722e+00
    5.6599666595e+01   -2.4928801060e+00
    5.6699554443e+01   -2.5043699741e+00
    5.6799636841e+01   -2.5158700943e+00
    5.6899524689e+01   -2.5273599625e+00
    5.6999656677e+01   -2.5388700962e+00
    5.7099506378e+01   -2.5503499508e+00
    5.7199676514e+01   -2.5618801117e+00
    5.7299606323e+01   -2.5733699799e+00
    5.7399631500e+01   -2.5848898888e+00
    5.7499687195e+01   -2.5964200497e+00
    5.7599567413e+01   -2.6079499722e+00
    5.7699501038e+01   -2.6195099354e+00
    5.7799549103e+01   -2.6311199665e+00
    5.7899608612e+01   -2.6427600384e+00
    5.7999618530e+01   -2.6544399261e+00
    5.8099586487e+01   -2.6661601067e+00
    5.8199668884e+01   -2.6779301167e+00
    5.8299545288e+01   -2.6897199154e+00
    5.8399646759e+01   -2.7015800476e+00
    5.8499511719e+01   -2.7134499550e+00
    5.8599620819e+01   -2.7253799438e+00
    5.8699630737e+01   -2.7373399734e+00
    5.8799545288e+01   -2.7493200302e+00
    5.8899639130e+01   -2.7613599300e+00
    5.8999530792e+01   -2.7734200954e+00
    5.9099460602e+01   -2.7855100632e+00
    5.9199504852e+01   -2.7976698875e+00
    5.9299480438e+01   -2.8098499775e+00
    5.9399562836e+01   -2.8220798969e+00
    5.9499565125e+01   -2.8343400955e+00
    5.9599658966e+01   -2.8466498852e+00
    5.9699554443e+01   -2.8589699268e+00
    5.9799472809e+01   -2.8713200092e+00
    5.9899600983e+01   -2.8837199211e+00
    5.9999465942e+01   -2.8961100578e+00
    6.0099582672e+01   -2.9085500240e+00
    6.0199554443e+01   -2.9210000038e+00
    6.0299484253e+01   -2.9334499836e+00
    6.0399536133e+01   -2.9459400177e+00
    6.0499519348e+01   -2.9584300518e+00
    6.0599563599e+01   -2.9709401131e+00
    6.0699558258e+01   -2.9834499359e+00
    6.0799499512e+01   -2.9959399700e+00
    6.0899497986e+01   -3.0084300041e+00
    6.0999469757e+01   -3.0209100246e+00
    6.1099544525e+01   -3.0333900452e+00
    6.1199432373e+01   -3.0458099842e+00
    6.1299583435e+01   -3.0582299232e+00
    6.1399444580e+01   -3.0705599785e+00
    6.1499572754e+01   -3.0828700066e+00
    6.1599548340e+01   -3.0951199532e+00
    6.1699455261e+01   -3.1073000431e+00
    6.1799560547e+01   -3.1194798946e+00
    6.1899486542e+01   -3.1316099167e+00
    6.1999435425e+01   -3.1437199116e+00
    6.2099456787e+01   -3.1558299065e+00
    6.2199558258e+01   -3.1679499149e+00
    6.2299617767e+01   -3.1800599098e+00
    6.2399425507e+01   -3.1921300888e+00
    6.2499603271e+01   -3.2042500973e+00
    6.2599567413e+01   -3.2163600922e+00
    6.2699413300e+01   -3.2284600735e+00
    6.2799507141e+01   -3.2406098843e+00
    6.2899589539e+01   -3.2527699471e+00
    6.2999412537e+01   -3.2649300098e+00
    6.3099422455e+01   -3.2771499157e+00
    6.3199455261e+01   -3.2894299030e+00
    6.3299446106e+01   -3.3017599583e+00
    6.3399456024e+01   -3.3141601086e+00
    6.3499397278e+01   -3.3266201019e+00
    6.3599533081e+01   -3.3391699791e+00
    6.3699489594e+01   -3.3517699242e+00
    6.3799480438e+01   -3.3644299507e+00
    6.3899570465e+01   -3.3771600723e+00
    6.3999572754e+01   -3.3899199963e+00
    6.4099426270e+01   -3.4027199745e+00
    6.4199584961e+01   -3.4156000614e+00
    6.4299537659e+01   -3.4284999371e+00
    6.4399421692e+01   -3.4414501190e+00
    6.4499435425e+01   -3.4544799328e+00
    6.4599548340e+01   -3.4675700665e+00
    6.4699539185e+01   -3.4807000160e+00
    6.4799568176e+01   -3.4938900471e+00
    6.4899490356e+01   -3.5071198940e+00
    6.4999450684e+01   -3.5204100609e+00
    6.5099456787e+01   -3.5337400436e+00
    6.5199470520e+01   -3.5471200943e+00
    6.5299545288e+01   -3.5605299473e+00
    6.5399368286e+01   -3.5739400387e+00
    6.5499343872e+01   -3.5873999596e+00
    6.5599479675e+01   -3.6008899212e+00
    6.5699546814e+01   -3.6143798828e+00
    6.5799415588e+01   -3.6278500557e+00
    6.5899414062e+01   -3.6413400173e+00
    6.5999420166e+01   -3.6548199654e+00
    6.6099540710e+01   -3.6683099270e+00
    6.6199424744e+01   -3.6817500591e+00
    6.6299369812e+01   -3.6951799393e+00
    6.6399436951e+01   -3.7086000443e+00
    6.6499336243e+01   -3.7219800949e+00
    6.6599365234e+01   -3.7353498936e+00
    6.6699462891e+01   -3.7487099171e+00
    6.6799446106e+01   -3.7620100975e+00
    6.6899482727e+01   -3.7753000259e+00
    6.6999427795e+01   -3.7885499001e+00
    6.7099525452e+01   -3.8017899990e+00
    6.7199378967e+01   -3.8149700165e+00
    6.7299499512e+01   -3.8281600475e+00
    6.7399513245e+01   -3.8413200378e+00
    6.7499488831e+01   -3.8544600010e+00
    6.7599449158e+01   -3.8675899506e+00
    6.7699432373e+01   -3.8807199001e+00
    6.7799400330e+01   -3.8938601017e+00
    6.7899360657e+01   -3.9070000648e+00
    6.7999481201e+01   -3.9201800823e+00
    6.8099403381e+01   -3.9333600998e+00
    6.8199508667e+01   -3.9465699196e+00
    6.8299400330e+01   -3.9597699642e+00
    6.8399353027e+01   -3.9730000496e+00
    6.8499351501e+01   -3.9862399101e+00
    6.8599487305e+01   -3.9995100498e+00
    6.8699516296e+01   -4.0127902031e+00
    6.8799362183e+01   -4.0260500908e+00
    6.8899291992e+01   -4.0393300056e+00
    6.8999465942e+01   -4.0526700020e+00
    6.9099456787e+01   -4.0659999847e+00
    6.9199325562e+01   -4.0793299675e+00
    6.9299392700e+01   -4.0927100182e+00
    6.9399482727e+01   -4.1061201096e+00
    6.9499481201e+01   -4.1195302010e+00
    6.9599464417e+01   -4.1329498291e+00
    6.9699409485e+01   -4.1463899612e+00
    6.9799278259e+01   -4.1598200798e+00
    6.9899353027e+01   -4.1732797623e+00
    6.9999443054e+01   -4.1867399216e+00
    7.0099296570e+01   -4.2001600266e+00
    7.0199432373e+01   -4.2136201859e+00
    7.0299468994e+01   -4.2270498276e+00
    7.0399482727e+01   -4.2404699326e+00
    7.0499465942e+01   -4.2538700104e+00
    7.0599403381e+01   -4.2672400475e+00
    7.0699348450e+01   -4.2805800438e+00
    7.0799446106e+01   -4.2939100266e+00
    7.0899421692e+01   -4.3071799278e+00
    7.0999412537e+01   -4.3204197884e+00
    7.1099365234e+01   -4.3335900307e+00
    7.1199287415e+01   -4.3467001915e+00
    7.1299369812e+01   -4.3597598076e+00
    7.1399360657e+01   -4.3727297783e+00
    7.1499412537e+01   -4.3856101036e+00
    7.1599433899e+01   -4.3983998299e+00
    7.1699432373e+01   -4.4111099243e+00
    7.1799446106e+01   -4.4237599373e+00
    7.1899307251e+01   -4.4363198280e+00
    7.1999305725e+01   -4.4488401413e+00
    7.2099304199e+01   -4.4613199234e+00
    7.2199462891e+01   -4.4737801552e+00
    7.2299308777e+01   -4.4861598015e+00
    7.2399261475e+01   -4.4985198975e+00
    7.2499252319e+01   -4.5108399391e+00
    7.2599418640e+01   -4.5231599808e+00
    7.2699394226e+01   -4.5354199409e+00
    7.2799438477e+01   -4.5476799011e+00
    7.2899368286e+01   -4.5598998070e+00
    7.2999374390e+01   -4.5721201897e+00
    7.3099311829e+01   -4.5843501091e+00
    7.3199356079e+01   -4.5965900421e+00
    7.3299224854e+01   -4.6088500023e+00
    7.3399345398e+01   -4.6211700439e+00
    7.3499366760e+01   -4.6335201263e+00
    7.3599327087e+01   -4.6458997726e+00
    7.3699249268e+01   -4.6583099365e+00
    7.3799324036e+01   -4.6707701683e+00
    7.3899368286e+01   -4.6832499504e+00
    7.3999382019e+01   -4.6957502365e+00
    7.4099380493e+01   -4.7082600594e+00
    7.4199363708e+01   -4.7207899094e+00
    7.4299316406e+01   -4.7333397865e+00
    7.4399253845e+01   -4.7459101677e+00
    7.4499412537e+01   -4.7585301399e+00
    7.4599296570e+01   -4.7711501122e+00
    7.4699409485e+01   -4.7838201523e+00
    7.4799354553e+01   -4.7965002060e+00
    7.4899284363e+01   -4.8091897964e+00
    7.4999206543e+01   -4.8219099045e+00
    7.5099205017e+01   -4.8346400261e+00
    7.5199317932e+01   -4.8474001884e+00
    7.5299339294e+01   -4.8601398468e+00
    7.5399337769e+01   -4.8728799820e+00
    7.5499191284e+01   -4.8856000900e+00
    7.5599342346e+01   -4.8983302116e+00
    7.5699386597e+01   -4.9110198021e+00
    7.5799392700e+01   -4.9236898422e+00
    7.5899322510e+01   -4.9362998009e+00
    7.5999389648e+01   -4.9488902092e+00
    7.6099403381e+01   -4.9614300728e+00
    7.6199203491e+01   -4.9738998413e+00
    7.6299346924e+01   -4.9863400459e+00
    7.6399261475e+01   -4.9987001419e+00
    7.6499305725e+01   -5.0110101700e+00
    7.6599304199e+01   -5.0232601166e+00
    7.6699218750e+01   -5.0354399681e+00
    7.6799270630e+01   -5.0475702286e+00
    7.6899269104e+01   -5.0596199036e+00
    7.6999343872e+01   -5.0716199875e+00
    7.7099189758e+01   -5.0835199356e+00
    7.7199188232e+01   -5.0953798294e+00
    7.7299247742e+01   -5.1071801186e+00
    7.7399238586e+01   -5.1189098358e+00
    7.7499320984e+01   -5.1306099892e+00
    7.7599205017e+01   -5.1422300339e+00
    7.7699378967e+01   -5.1538500786e+00
    7.7799186707e+01   -5.1653900146e+00
    7.7899261475e+01   -5.1769499779e+00
    7.7999320984e+01   -5.1884899139e+00
    7.8099334717e+01   -5.2000098228e+00
    7.8199234009e+01   -5.2114901543e+00
    7.8299194336e+01   -5.2229700089e+00
    7.8399345398e+01   -5.2344498634e+00
    7.8499305725e+01   -5.2458901405e+00
    7.8599227905e+01   -5.2572999001e+00
    7.8699157715e+01   -5.2687001228e+00
    7.8799179077e+01   -5.2800898552e+00
    7.8899230957e+01   -5.2914600372e+00
    7.8999183655e+01   -5.3028101921e+00
    7.9099304199e+01   -5.3141698837e+00
    7.9199295044e+01   -5.3255100250e+00
    7.9299331665e+01   -5.3368501663e+00
    7.9399345398e+01   -5.3481798172e+00
    7.9499176025e+01   -5.3594799042e+00
    7.9599327087e+01   -5.3708000183e+00
    7.9699317932e+01   -5.3821001053e+00
    7.9799293518e+01   -5.3933701515e+00
    7.9899314880e+01   -5.4046201706e+00
    7.9999259949e+01   -5.4158301353e+00
    8.0099311829e+01   -5.4270300865e+00
    8.0199172974e+01   -5.4381799698e+00
    8.0299324036e+01   -5.4493198395e+00
    8.0399116516e+01   -5.4603900909e+00
    8.0499320984e+01   -5.4714498520e+00
    8.0599327087e+01   -5.4824500084e+00
    8.0699157715e+01   -5.4933800697e+00
    8.0799247742e+01   -5.5042600632e+00
    8.0899261475e+01   -5.5150799751e+00
    8.0999305725e+01   -5.5258297920e+00
    8.1099128723e+01   -5.5364699364e+00
    8.1199234009e+01   -5.5470499992e+00
    8.1299201965e+01   -5.5575199127e+00
    8.1399314880e+01   -5.5678901672e+00
    8.1499206543e+01   -5.5781297684e+00
    8.1599288940e+01   -5.5882701874e+00
    8.1699142456e+01   -5.5982799530e+00
    8.1799148560e+01   -5.6082000732e+00
    8.1899230957e+01   -5.6180500984e+00
    8.1999237061e+01   -5.6278100014e+00
    8.2099143982e+01   -5.6374998093e+00
    8.2199150085e+01   -5.6471300125e+00
    8.2299232483e+01   -5.6567001343e+00
    8.2399261475e+01   -5.6662101746e+00
    8.2499206543e+01   -5.6756501198e+00
    8.2599227905e+01   -5.6850500107e+00
    8.2699218750e+01   -5.6943998337e+00
    8.2799079895e+01   -5.7037000656e+00
    8.2899177551e+01   -5.7129797935e+00
    8.2999290466e+01   -5.7222299576e+00
    8.3099075317e+01   -5.7314400673e+00
    8.3199264526e+01   -5.7406802177e+00
    8.3299148560e+01   -5.7499198914e+00
    8.3399276733e+01   -5.7591900826e+00
    8.3499237061e+01   -5.7684698105e+00
    8.3599136353e+01   -5.7777800560e+00
    8.3699256897e+01   -5.7871198654e+00
    8.3799087524e+01   -5.7964601517e+00
    8.3899261475e+01   -5.8058400154e+00
    8.3999275208e+01   -5.8152198792e+00
    8.4099273682e+01   -5.8246102333e+00
    8.4199188232e+01   -5.8340001106e+00
    8.4299263000e+01   -5.8434200287e+00
    8.4399230957e+01   -5.8528399467e+00
    8.4499137878e+01   -5.8622798920e+00
    8.4599258423e+01   -5.8717598915e+00
    8.4699195862e+01   -5.8812398911e+00
    8.4799247742e+01   -5.8907499313e+00
    8.4899253845e+01   -5.9002799988e+00
    8.4999198914e+01   -5.9098100662e+00
    8.5099052429e+01   -5.9193401337e+00
    8.5199050903e+01   -5.9288902283e+00
    8.5299072266e+01   -5.9384298325e+00
    8.5399154663e+01   -5.9479799271e+00
    8.5499069214e+01   -5.9574799538e+00
    8.5599258423e+01   -5.9670000076e+00
    8.5699234009e+01   -5.9764599800e+00
    8.5799194336e+01   -5.9858798981e+00
    8.5899215698e+01   -5.9952697754e+00
    8.5999221802e+01   -6.0046100616e+00
    8.6099235535e+01   -6.0138998032e+00
    8.6199050903e+01   -6.0231199265e+00
    8.6299240112e+01   -6.0322999954e+00
    8.6399192810e+01   -6.0413999557e+00
    8.6499214172e+01   -6.0504398346e+00
    8.6599220276e+01   -6.0594201088e+00
    8.6699172974e+01   -6.0683197975e+00
    8.6799232483e+01   -6.0771698952e+00
    8.6899169922e+01   -6.0859298706e+00
    8.6999031067e+01   -6.0946202278e+00
    8.7099098206e+01   -6.1032600403e+00
    8.7199157715e+01   -6.1118202209e+00
    8.7299041748e+01   -6.1203098297e+00
    8.7399177551e+01   -6.1287498474e+00
    8.7499122620e+01   -6.1371297836e+00
    8.7599082947e+01   -6.1454601288e+00
    8.7699081421e+01   -6.1537499428e+00
    8.7799179077e+01   -6.1620202065e+00
    8.7899093628e+01   -6.1702499390e+00
    8.7999046326e+01   -6.1784801483e+00
    8.8099174500e+01   -6.1866998672e+00
    8.8199073792e+01   -6.1948900223e+00
    8.8299110413e+01   -6.2030701637e+00
    8.8399017334e+01   -6.2112298012e+00
    8.8499122620e+01   -6.2193899155e+00
    8.8599021912e+01   -6.2275199890e+00
    8.8699081421e+01   -6.2356400490e+00
    8.8799148560e+01   -6.2437601089e+00
    8.8899085999e+01   -6.2518501282e+00
    8.8999099731e+01   -6.2599501610e+00
    8.9099205017e+01   -6.2680501938e+00
    8.9199028015e+01   -6.2761301994e+00
    8.9299064636e+01   -6.2842302322e+00
    8.9399162292e+01   -6.2923398018e+00
    8.9499038696e+01   -6.3004298210e+00
    8.9599075317e+01   -6.3085298538e+00
    8.9699111938e+01   -6.3166298866e+00
    8.9799064636e+01   -6.3247098923e+00
    8.9899185181e+01   -6.3327798843e+00
    8.9998992920e+01   -6.3408098221e+00
    9.0099151611e+01   -6.3488497734e+00
    9.0199119568e+01   -6.3568401337e+00
    9.0299087524e+01   -6.3648200035e+00
    9.0399124146e+01   -6.3727598190e+00
    9.0498970032e+01   -6.3806600571e+00
    9.0599006653e+01   -6.3885397911e+00
    9.0699089050e+01   -6.3963599205e+00
    9.0799148560e+01   -6.4041299820e+00
    9.0899078369e+01   -6.4118399620e+00
    9.0999145508e+01   -6.4194998741e+00
    9.1099174500e+01   -6.4270801544e+00
    9.1198959351e+01   -6.4345598221e+00
    9.1299110413e+01   -6.4419698715e+00
    9.1399162292e+01   -6.4492697716e+00
    9.1499038696e+01   -6.4564399719e+00
    9.1599006653e+01   -6.4635100365e+00
    9.1698989868e+01   -6.4704799652e+00
    9.1799064636e+01   -6.4773797989e+00
    9.1899017334e+01   -6.4841799736e+00
    9.1999015808e+01   -6.4909200668e+00
    9.2099136353e+01   -6.4976201057e+00
    9.2198966980e+01   -6.5042600632e+00
    9.2299064636e+01   -6.5108599663e+00
    9.2399040222e+01   -6.5173997879e+00
    9.2499015808e+01   -6.5239100456e+00
    9.2599029541e+01   -6.5303797722e+00
    9.2698974609e+01   -6.5368199348e+00
    9.2798995972e+01   -6.5432400703e+00
    9.2899101257e+01   -6.5496401787e+00
    9.2998962402e+01   -6.5560297966e+00
    9.3099075317e+01   -6.5624399185e+00
    9.3199119568e+01   -6.5688800812e+00
    9.3299018860e+01   -6.5753598213e+00
    9.3398986816e+01   -6.5818901062e+00
    9.3499046326e+01   -6.5884900093e+00
    9.3598922729e+01   -6.5951299667e+00
    9.3699119568e+01   -6.6018500328e+00
    9.3799003601e+01   -6.6086001396e+00
    9.3898918152e+01   -6.6153998375e+00
    9.3998939514e+01   -6.6222400665e+00
    9.4098999023e+01   -6.6291198730e+00
    9.4199104309e+01   -6.6360502243e+00
    9.4299110413e+01   -6.6430201530e+00
    9.4398994446e+01   -6.6500201225e+00
    9.4499084473e+01   -6.6570901871e+00
    9.4599082947e+01   -6.6641998291e+00
    9.4698951721e+01   -6.6713600159e+00
    9.4799072266e+01   -6.6785898209e+00
    9.4898994446e+01   -6.6858501434e+00
    9.4998962402e+01   -6.6931600571e+00
    9.5098999023e+01   -6.7005100250e+00
    9.5199066162e+01   -6.7078900337e+00
    9.5298904419e+01   -6.7152800560e+00
    9.5398895264e+01   -6.7227001190e+00
    9.5499015808e+01   -6.7301402092e+00
    9.5598899841e+01   -6.7375597954e+00
    9.5699020386e+01   -6.7449998856e+00
    9.5799041748e+01   -6.7524199486e+00
    9.5898956299e+01   -6.7598099709e+00
    9.5999015808e+01   -6.7671999931e+00
    9.6099044800e+01   -6.7745499611e+00
    9.6199089050e+01   -6.7818598747e+00
    9.6299034119e+01   -6.7891302109e+00
    9.6398971558e+01   -6.7963500023e+00
    9.6499053955e+01   -6.8035402298e+00
    9.6599029541e+01   -6.8106799126e+00
    9.6699066162e+01   -6.8177700043e+00
    9.6799049377e+01   -6.8248100281e+00
    9.6898941040e+01   -6.8317999840e+00
    9.6998970032e+01   -6.8387398720e+00
    9.7099044800e+01   -6.8456301689e+00
    9.7199058533e+01   -6.8524699211e+00
    9.7298988342e+01   -6.8592500687e+00
    9.7399009705e+01   -6.8659901619e+00
    9.7499053955e+01   -6.8727197647e+00
    9.7599075317e+01   -6.8794097900e+00
    9.7699073792e+01   -6.8860797882e+00
    9.7798919678e+01   -6.8927397728e+00
    9.7898895264e+01   -6.8994197845e+00
    9.7999069214e+01   -6.9061198235e+00
    9.8098884583e+01   -6.9128098488e+00
    9.8199005127e+01   -6.9195299149e+00
    9.8298919678e+01   -6.9262399673e+00
    9.8398910522e+01   -6.9329700470e+00
    9.8499015808e+01   -6.9397201538e+00
    9.8598884583e+01   -6.9464597702e+00
    9.8699058533e+01   -6.9532299042e+00
    9.8799003601e+01   -6.9600000381e+00
    9.8898849487e+01   -6.9667801857e+00
    9.8998855591e+01   -6.9735898972e+00
    9.9098876953e+01   -6.9804201126e+00
    9.9199005127e+01   -6.9872899055e+00
    9.9298965454e+01   -6.9941701889e+00
    9.9398902893e+01   -7.0010800362e+00
    9.9498863220e+01   -7.0080099106e+00
    9.9599044800e+01   -7.0149798393e+00
    9.9698966980e+01   -7.0219402313e+00
    9.9798950195e+01   -7.0289201736e+00
    9.9898834229e+01   -7.0358901024e+00
    9.9998825073e+01   -7.0428700447e+00
    1.0009898376e+02   -7.0498499870e+00
    1.0019901276e+02   -7.0568199158e+00
    1.0029886627e+02   -7.0637798309e+00
    1.0039890289e+02   -7.0707302094e+00
    1.0049902344e+02   -7.0776600838e+00
    1.0059900665e+02   -7.0845699310e+00
    1.0069889832e+02   -7.0914301872e+00
    1.0079897308e+02   -7.0982499123e+00
    1.0089884186e+02   -7.1050100327e+00
    1.0099902344e+02   -7.1117501259e+00
    1.0109886932e+02   -7.1183900833e+00
    1.0119885254e+02   -7.1249699593e+00
    1.0129898834e+02   -7.1314601898e+00
    1.0139900208e+02   -7.1378397942e+00
    1.0149897003e+02   -7.1441001892e+00
    1.0159896088e+02   -7.1502599716e+00
    1.0169898987e+02   -7.1563200951e+00
    1.0179892731e+02   -7.1622900963e+00
    1.0189880371e+02   -7.1681799889e+00
    1.0199880981e+02   -7.1740298271e+00
    1.0209893799e+02   -7.1798400879e+00
    1.0219882965e+02   -7.1855998039e+00
    1.0229879761e+02   -7.1913199425e+00
    1.0239878845e+02   -7.1970100403e+00
    1.0249894714e+02   -7.2026700974e+00
    1.0259896088e+02   -7.2083101273e+00
    1.0269893646e+02   -7.2139301300e+00
    1.0279888916e+02   -7.2195301056e+00
    1.0289895630e+02   -7.2251400948e+00
    1.0299890900e+02   -7.2307400703e+00
    1.0309889984e+02   -7.2363901138e+00
    1.0319882202e+02   -7.2420701981e+00
    1.0329881287e+02   -7.2478299141e+00
    1.0339878082e+02   -7.2536602020e+00
    1.0349893188e+02   -7.2596001625e+00
    1.0359895325e+02   -7.2656102180e+00
    1.0369880676e+02   -7.2716898918e+00
    1.0379884338e+02   -7.2778501511e+00
    1.0389894104e+02   -7.2840800285e+00
    1.0399894714e+02   -7.2903699875e+00
    1.0409890747e+02   -7.2967100143e+00
    1.0419888306e+02   -7.3031001091e+00
    1.0429885101e+02   -7.3095698357e+00
    1.0439877319e+02   -7.3160901070e+00
    1.0449878693e+02   -7.3226900101e+00
    1.0459877777e+02   -7.3293600082e+00
    1.0469895172e+02   -7.3361201286e+00
    1.0479891968e+02   -7.3429298401e+00
    1.0489895630e+02   -7.3498101234e+00
    1.0499881744e+02   -7.3567399979e+00
    1.0509893799e+02   -7.3637399673e+00
    1.0519880676e+02   -7.3707599640e+00
    1.0529894257e+02   -7.3778400421e+00
    1.0539895630e+02   -7.3849301338e+00
    1.0549884033e+02   -7.3920397758e+00
    1.0559873962e+02   -7.3991498947e+00
    1.0569889832e+02   -7.4062800407e+00
    1.0579895020e+02   -7.4134001732e+00
    1.0589877319e+02   -7.4204797745e+00
    1.0599878693e+02   -7.4275498390e+00
    1.0609889984e+02   -7.4345998764e+00
    1.0619886780e+02   -7.4415998459e+00
    1.0629882050e+02   -7.4485602379e+00
    1.0639894104e+02   -7.4554800987e+00
    1.0649875641e+02   -7.4623298645e+00
    1.0659877014e+02   -7.4691600800e+00
    1.0669879913e+02   -7.4759302139e+00
    1.0679876709e+02   -7.4826397896e+00
    1.0689888000e+02   -7.4892997742e+00
    1.0699890137e+02   -7.4959101677e+00
    1.0709871674e+02   -7.5024399757e+00
    1.0719885254e+02   -7.5089302063e+00
    1.0729888153e+02   -7.5153598785e+00
    1.0739882660e+02   -7.5217499733e+00
    1.0749890137e+02   -7.5281100273e+00
    1.0759877014e+02   -7.5344200134e+00
    1.0769892120e+02   -7.5407400131e+00
    1.0779872894e+02   -7.5470299721e+00
    1.0789877319e+02   -7.5533499718e+00
    1.0799880219e+02   -7.5596799850e+00
    1.0809880829e+02   -7.5660200119e+00
    1.0819882965e+02   -7.5723900795e+00
    1.0829878235e+02   -7.5787601471e+00
    1.0839881134e+02   -7.5851497650e+00
    1.0849873352e+02   -7.5915498734e+00
    1.0859876251e+02   -7.5979599953e+00
    1.0869891357e+02   -7.6043901443e+00
    1.0879875946e+02   -7.6108198166e+00
    1.0889871216e+02   -7.6172800064e+00
    1.0899878693e+02   -7.6237602234e+00
    1.0909886169e+02   -7.6302700043e+00
    1.0919888306e+02   -7.6368198395e+00
    1.0929886627e+02   -7.6433901787e+00
    1.0939882660e+02   -7.6499900818e+00
    1.0949874878e+02   -7.6566100121e+00
    1.0959880829e+02   -7.6632599831e+00
    1.0969870758e+02   -7.6699199677e+00
    1.0979886627e+02   -7.6766099930e+00
    1.0989874268e+02   -7.6832699776e+00
    1.0999870300e+02   -7.6899299622e+00
    1.1009868622e+02   -7.6965799332e+00
    1.1019883728e+02   -7.7032399178e+00
    1.1029869080e+02   -7.7098598480e+00
    1.1039888000e+02   -7.7164897919e+00
    1.1049868011e+02   -7.7230601311e+00
    1.1059870911e+02   -7.7296099663e+00
    1.1069869232e+02   -7.7361202240e+00
    1.1079868317e+02   -7.7425599098e+00
    1.1089875793e+02   -7.7489500046e+00
    1.1099880981e+02   -7.7552800179e+00
    1.1109874725e+02   -7.7615098953e+00
    1.1119875336e+02   -7.7676601410e+00
    1.1129885101e+02   -7.7736902237e+00
    1.1139875793e+02   -7.7795901299e+00
    1.1149868011e+02   -7.7853498459e+00
    1.1159880829e+02   -7.7909898758e+00
    1.1169870758e+02   -7.7965002060e+00
    1.1179866028e+02   -7.8019099236e+00
    1.1189874268e+02   -7.8072400093e+00
    1.1199868011e+02   -7.8124899864e+00
    1.1209882355e+02   -7.8177099228e+00
    1.1219883728e+02   -7.8228697777e+00
    1.1229881287e+02   -7.8279800415e+00
    1.1239875793e+02   -7.8330497742e+00
    1.1249864960e+02   -7.8380799294e+00
    1.1259873962e+02   -7.8430900574e+00
    1.1269880676e+02   -7.8480801582e+00
    1.1279872131e+02   -7.8530502319e+00
    1.1289871979e+02   -7.8580198288e+00
    1.1299864197e+02   -7.8629999161e+00
    1.1309868622e+02   -7.8680200577e+00
    1.1319875336e+02   -7.8730998039e+00
    1.1329866028e+02   -7.8782701492e+00
    1.1339881897e+02   -7.8835401535e+00
    1.1349875641e+02   -7.8889098167e+00
    1.1359870148e+02   -7.8943800926e+00
    1.1369866943e+02   -7.8999500275e+00
    1.1379882050e+02   -7.9056200981e+00
    1.1389869690e+02   -7.9113597870e+00
    1.1399880981e+02   -7.9171800613e+00
    1.1409880829e+02   -7.9230599403e+00
    1.1419876099e+02   -7.9290199280e+00
    1.1429862213e+02   -7.9350500107e+00
    1.1439881134e+02   -7.9411802292e+00
    1.1449861908e+02   -7.9473800659e+00
    1.1459861755e+02   -7.9536700249e+00
    1.1469873810e+02   -7.9600601196e+00
    1.1479866028e+02   -7.9665198326e+00
    1.1489880371e+02   -7.9730801582e+00
    1.1499874878e+02   -7.9797101021e+00
    1.1509864044e+02   -7.9863901138e+00
    1.1519866180e+02   -7.9931402206e+00
    1.1529873657e+02   -7.9999299049e+00
    1.1539862823e+02   -8.0067501068e+00
    1.1549864960e+02   -8.0136003494e+00
    1.1559864044e+02   -8.0204601288e+00
    1.1569872284e+02   -8.0273303986e+00
    1.1579876709e+02   -8.0341901779e+00
    1.1589861298e+02   -8.0410203934e+00
    1.1599858856e+02   -8.0478401184e+00
    1.1609876251e+02   -8.0546398163e+00
    1.1619873810e+02   -8.0613803864e+00
    1.1629866028e+02   -8.0680799484e+00
    1.1639871979e+02   -8.0747299194e+00
    1.1649861908e+02   -8.0813302994e+00
    1.1659861755e+02   -8.0878896713e+00
    1.1669863892e+02   -8.0943803787e+00
    1.1679866028e+02   -8.1008195877e+00
    1.1689864349e+02   -8.1071996689e+00
    1.1699877167e+02   -8.1135301590e+00
    1.1709867096e+02   -8.1197795868e+00
    1.1719860840e+02   -8.1259698868e+00
    1.1729866028e+02   -8.1321096420e+00
    1.1739859009e+02   -8.1382102966e+00
    1.1749874878e+02   -8.1442804337e+00
    1.1759866333e+02   -8.1503200531e+00
    1.1769863892e+02   -8.1563596725e+00
    1.1779869843e+02   -8.1624002457e+00
    1.1789853668e+02   -8.1684503555e+00
    1.1799865723e+02   -8.1745500565e+00
    1.1809863281e+02   -8.1806697845e+00
    1.1819859314e+02   -8.1868200302e+00
    1.1829866028e+02   -8.1930103302e+00
    1.1839856720e+02   -8.1992197037e+00
    1.1849861145e+02   -8.2054595947e+00
    1.1859871674e+02   -8.2117204666e+00
    1.1869860840e+02   -8.2180099487e+00
    1.1879866028e+02   -8.2243299484e+00
    1.1889864349e+02   -8.2306900024e+00
    1.1899855804e+02   -8.2370796204e+00
    1.1909863281e+02   -8.2435302734e+00
    1.1919860840e+02   -8.2500200272e+00
    1.1929866028e+02   -8.2565698624e+00
    1.1939856720e+02   -8.2631597519e+00
    1.1949859619e+02   -8.2698001862e+00
    1.1959854126e+02   -8.2764797211e+00
    1.1969866180e+02   -8.2832002640e+00
    1.1979857635e+02   -8.2899198532e+00
    1.1989871216e+02   -8.2966804504e+00
    1.1999859619e+02   -8.3034200668e+00
    1.2009871674e+02   -8.3101797104e+00
    1.2019866180e+02   -8.3169298172e+00
    1.2029859924e+02   -8.3236799240e+00
    1.2039862823e+02   -8.3304195404e+00
    1.2049858856e+02   -8.3371400833e+00
    1.2059854126e+02   -8.3438301086e+00
    1.2069873047e+02   -8.3505001068e+00
    1.2079866028e+02   -8.3570899963e+00
    1.2089868927e+02   -8.3636302948e+00
    1.2099851990e+02   -8.3701000214e+00
    1.2109860992e+02   -8.3764896393e+00
    1.2119869232e+02   -8.3827896118e+00
    1.2129868317e+02   -8.3889598846e+00
    1.2139851379e+02   -8.3949899673e+00
    1.2149870300e+02   -8.4008903503e+00
    1.2159864807e+02   -8.4066400528e+00
    1.2169867706e+02   -8.4122695923e+00
    1.2179866028e+02   -8.4177904129e+00
    1.2189852142e+02   -8.4232101440e+00
    1.2199868011e+02   -8.4285802841e+00
    1.2209860229e+02   -8.4338903427e+00
    1.2219854736e+02   -8.4391603470e+00
    1.2229855347e+02   -8.4443902969e+00
    1.2239852905e+02   -8.4495697021e+00
    1.2249858093e+02   -8.4547300339e+00
    1.2259857941e+02   -8.4598598480e+00
    1.2269853210e+02   -8.4649801254e+00
    1.2279856110e+02   -8.4700899124e+00
    1.2289859772e+02   -8.4752101898e+00
    1.2299862671e+02   -8.4803495407e+00
    1.2309864807e+02   -8.4855499268e+00
    1.2319857025e+02   -8.4908199310e+00
    1.2329860687e+02   -8.4961996078e+00
    1.2339853668e+02   -8.5017004013e+00
    1.2349865723e+02   -8.5073299408e+00
    1.2359864044e+02   -8.5130796432e+00
    1.2369853210e+02   -8.5189504623e+00
    1.2379850006e+02   -8.5249300003e+00
    1.2389852142e+02   -8.5310201645e+00
    1.2399861145e+02   -8.5372104645e+00
    1.2409864807e+02   -8.5434799194e+00
    1.2419862366e+02   -8.5498504639e+00
    1.2429850769e+02   -8.5563001633e+00
    1.2439851379e+02   -8.5628700256e+00
    1.2449864960e+02   -8.5695495605e+00
    1.2459854889e+02   -8.5763301849e+00
    1.2469853973e+02   -8.5832099915e+00
    1.2479853058e+02   -8.5902099609e+00
    1.2489864349e+02   -8.5973196030e+00
    1.2499861145e+02   -8.6045103073e+00
    1.2509845734e+02   -8.6117696762e+00
    1.2519853973e+02   -8.6191101074e+00
    1.2529847717e+02   -8.6265001297e+00
    1.2539862061e+02   -8.6339502335e+00
    1.2549858856e+02   -8.6414299011e+00
    1.2559847260e+02   -8.6489095688e+00
    1.2569847870e+02   -8.6564102173e+00
    1.2579856873e+02   -8.6639204025e+00
    1.2589859772e+02   -8.6714096069e+00
    1.2599864197e+02   -8.6788797379e+00
    1.2609857178e+02   -8.6863098145e+00
    1.2619854736e+02   -8.6936998367e+00
    1.2629853058e+02   -8.7010402679e+00
    1.2639855194e+02   -8.7083301544e+00
    1.2649852753e+02   -8.7155599594e+00
    1.2659863281e+02   -8.7227497101e+00
    1.2669853973e+02   -8.7298603058e+00
    1.2679846954e+02   -8.7369098663e+00
    1.2689861298e+02   -8.7439098358e+00
    1.2699861145e+02   -8.7508296967e+00
    1.2709857941e+02   -8.7576904297e+00
    1.2719846344e+02   -8.7644701004e+00
    1.2729844666e+02   -8.7712001801e+00
    1.2739855194e+02   -8.7778797150e+00
    1.2749858856e+02   -8.7845401764e+00
    1.2759851837e+02   -8.7911500931e+00
    1.2769848633e+02   -8.7977600098e+00
    1.2779853058e+02   -8.8043804169e+00
    1.2789851379e+02   -8.8110198975e+00
    1.2799857330e+02   -8.8177099228e+00
    1.2809846497e+02   -8.8244199753e+00
    1.2819851685e+02   -8.8311700821e+00
    1.2829840088e+02   -8.8379497528e+00
    1.2839857483e+02   -8.8447904587e+00
    1.2849856567e+02   -8.8516397476e+00
    1.2859848022e+02   -8.8585100174e+00
    1.2869862366e+02   -8.8654298782e+00
    1.2879861450e+02   -8.8723897934e+00
    1.2889857483e+02   -8.8793697357e+00
    1.2899856567e+02   -8.8864097595e+00
    1.2909857178e+02   -8.8935098648e+00
    1.2919848633e+02   -8.9006500244e+00
    1.2929859924e+02   -8.9078702927e+00
    1.2939862061e+02   -8.9151401520e+00
    1.2949859619e+02   -8.9224500656e+00
    1.2959858704e+02   -8.9298200607e+00
    1.2969851685e+02   -8.9372100830e+00
    1.2979862976e+02   -8.9446496964e+00
    1.2989851379e+02   -8.9520797729e+00
    1.2999856567e+02   -8.9595298767e+00
    1.3009863281e+02   -8.9669799805e+00
    1.3019854736e+02   -8.9744195938e+00
    1.3029867554e+02   -8.9818801880e+00
    1.3039869690e+02   -8.9893102646e+00
    1.3049853516e+02   -8.9967002869e+00
    1.3059858704e+02   -9.0040798187e+00
    1.3069874573e+02   -9.0114097595e+00
    1.3079864502e+02   -9.0186595917e+00
    1.3089871216e+02   -9.0258598328e+00
    1.3099859619e+02   -9.0329704285e+00
    1.3109867859e+02   -9.0399799347e+00
    1.3119868469e+02   -9.0468797684e+00
    1.3129867554e+02   -9.0536499023e+00
    1.3139868164e+02   -9.0602502823e+00
    1.3149876404e+02   -9.0666904449e+00
    1.3159870911e+02   -9.0729703903e+00
    1.3169871521e+02   -9.0790996552e+00
    1.3179875183e+02   -9.0851202011e+00
    1.3189878845e+02   -9.0910301208e+00
    1.3199882507e+02   -9.0968503952e+00
    1.3209881592e+02   -9.1026096344e+00
    1.3219877625e+02   -9.1083202362e+00
    1.3229885864e+02   -9.1139698029e+00
    1.3239872742e+02   -9.1195602417e+00
    1.3249876404e+02   -9.1251201630e+00
    1.3259877014e+02   -9.1306400299e+00
    1.3269885254e+02   -9.1361503601e+00
    1.3279881287e+02   -9.1416301727e+00
    1.3289871216e+02   -9.1471099854e+00
    1.3299882507e+02   -9.1526203156e+00
    1.3309884644e+02   -9.1581802368e+00
    1.3319874573e+02   -9.1638097763e+00
    1.3329876709e+02   -9.1695604324e+00
    1.3339883423e+02   -9.1754302979e+00
    1.3349891663e+02   -9.1814298630e+00
    1.3359892273e+02   -9.1875696182e+00
    1.3369891357e+02   -9.1938295364e+00
    1.3379879761e+02   -9.2001895905e+00
    1.3389889526e+02   -9.2066802979e+00
    1.3399893188e+02   -9.2132701874e+00
    1.3409893799e+02   -9.2199401855e+00
    1.3419888306e+02   -9.2267103195e+00
    1.3429888916e+02   -9.2335901260e+00
    1.3439895630e+02   -9.2405796051e+00
    1.3449877930e+02   -9.2476701736e+00
    1.3459895325e+02   -9.2548904419e+00
    1.3469888306e+02   -9.2622098923e+00
    1.3479887390e+02   -9.2696504593e+00
    1.3489883423e+02   -9.2771902084e+00
    1.3499888611e+02   -9.2848396301e+00
    1.3509884644e+02   -9.2925596237e+00
    1.3519883728e+02   -9.3003396988e+00
    1.3529904175e+02   -9.3082103729e+00
    1.3539883423e+02   -9.3160800934e+00
    1.3549891663e+02   -9.3240203857e+00
    1.3559904480e+02   -9.3319597244e+00
    1.3569888306e+02   -9.3398895264e+00
    1.3579893494e+02   -9.3478202820e+00
    1.3589894104e+02   -9.3557195663e+00
    1.3599896240e+02   -9.3635997772e+00
    1.3609907532e+02   -9.3714399338e+00
    1.3619900513e+02   -9.3792104721e+00
    1.3629902649e+02   -9.3869199753e+00
    1.3639903259e+02   -9.3945703506e+00
    1.3649899292e+02   -9.4021501541e+00
    1.3659890747e+02   -9.4096603394e+00
    1.3669902039e+02   -9.4171104431e+00
    1.3679898071e+02   -9.4244604111e+00
    1.3689892578e+02   -9.4317398071e+00
    1.3699899292e+02   -9.4389495850e+00
    1.3709895325e+02   -9.4460697174e+00
    1.3719900513e+02   -9.4531097412e+00
    1.3729896545e+02   -9.4600696564e+00
    1.3739909363e+02   -9.4669799805e+00
    1.3749908447e+02   -9.4738397598e+00
    1.3759912109e+02   -9.4806699753e+00
    1.3769900513e+02   -9.4874696732e+00
    1.3779905701e+02   -9.4942798615e+00
    1.3789913940e+02   -9.5011196136e+00
    1.3799914551e+02   -9.5079803467e+00
    1.3809921265e+02   -9.5148897171e+00
    1.3819912720e+02   -9.5218095779e+00
    1.3829917908e+02   -9.5287799835e+00
    1.3839921570e+02   -9.5357799530e+00
    1.3849909973e+02   -9.5427904129e+00
    1.3859922791e+02   -9.5498600006e+00
    1.3869914246e+02   -9.5569400787e+00
    1.3879920959e+02   -9.5640697479e+00
    1.3889909363e+02   -9.5712404251e+00
    1.3899905396e+02   -9.5784502029e+00
    1.3909912109e+02   -9.5857400894e+00
    1.3919912720e+02   -9.5930795670e+00
    1.3929924011e+02   -9.6004896164e+00
    1.3939915466e+02   -9.6079502106e+00
    1.3949916077e+02   -9.6154699326e+00
    1.3959921265e+02   -9.6230497360e+00
    1.3969914246e+02   -9.6306600571e+00
    1.3979931641e+02   -9.6383104324e+00
    1.3989921570e+02   -9.6459503174e+00
    1.3999931335e+02   -9.6536197662e+00
    1.4009924316e+02   -9.6612796783e+00
    1.4019920349e+02   -9.6689395905e+00
    1.4029931641e+02   -9.6766099930e+00
    1.4039915466e+02   -9.6842403412e+00
    1.4049926758e+02   -9.6918497086e+00
    1.4059916687e+02   -9.6994304657e+00
    1.4069914246e+02   -9.7069501877e+00
    1.4079936218e+02   -9.7144098282e+00
    1.4089938354e+02   -9.7217903137e+00
    1.4099920654e+02   -9.7290697098e+00
    1.4109921265e+02   -9.7362499237e+00
    1.4119923401e+02   -9.7433004379e+00
    1.4129922485e+02   -9.7502098083e+00
    1.4139936829e+02   -9.7569599152e+00
    1.4149925232e+02   -9.7635097504e+00
    1.4159930420e+02   -9.7699098587e+00
    1.4169941711e+02   -9.7761497498e+00
    1.4179934692e+02   -9.7822399139e+00
    1.4189930725e+02   -9.7882204056e+00
    1.4199929810e+02   -9.7940998077e+00
    1.4209941101e+02   -9.7999200821e+00
    1.4219932556e+02   -9.8056497574e+00
    1.4229937744e+02   -9.8113203049e+00
    1.4239932251e+02   -9.8169202805e+00
    1.4249926758e+02   -9.8224697113e+00
    1.4259930420e+02   -9.8279800415e+00
    1.4269943237e+02   -9.8334598541e+00
    1.4279931641e+02   -9.8388996124e+00
    1.4289938354e+02   -9.8443403244e+00
    1.4299946594e+02   -9.8497896194e+00
    1.4309948730e+02   -9.8552799225e+00
    1.4319940186e+02   -9.8608303070e+00
    1.4329934692e+02   -9.8664703369e+00
    1.4339938354e+02   -9.8722400665e+00
    1.4349937439e+02   -9.8781204224e+00
    1.4359938049e+02   -9.8841400146e+00
    1.4369952393e+02   -9.8902702332e+00
    1.4379939270e+02   -9.8964996338e+00
    1.4389947510e+02   -9.9028501511e+00
    1.4399946594e+02   -9.9092798233e+00
    1.4409957886e+02   -9.9158096313e+00
    1.4419941711e+02   -9.9224100113e+00
    1.4429954529e+02   -9.9291400909e+00
    1.4439955139e+02   -9.9359598160e+00
    1.4449957275e+02   -9.9428796768e+00
    1.4459959412e+02   -9.9499197006e+00
    1.4469952393e+02   -9.9570503235e+00
    1.4479948425e+02   -9.9643001556e+00
    1.4489962769e+02   -9.9716596603e+00
    1.4499945068e+02   -9.9790802002e+00
    1.4509959412e+02   -9.9865999222e+00
    1.4519946289e+02   -9.9941596985e+00
    1.4529959106e+02   -1.0001799583e+01
    1.4539945984e+02   -1.0009400368e+01
    1.4549966431e+02   -1.0017100334e+01
    1.4559956360e+02   -1.0024800301e+01
    1.4569963074e+02   -1.0032500267e+01
    1.4579951477e+02   -1.0040100098e+01
    1.4589967346e+02   -1.0047699928e+01
    1.4599957275e+02   -1.0055199623e+01
    1.4609953308e+02   -1.0062700272e+01
    1.4619955444e+02   -1.0070199966e+01
    1.4629960632e+02   -1.0077500343e+01
    1.4639965820e+02   -1.0084799767e+01
    1.4649952698e+02   -1.0091899872e+01
    1.4659968567e+02   -1.0099100113e+01
    1.4669964600e+02   -1.0105999947e+01
    1.4679971313e+02   -1.0112999916e+01
    1.4689964294e+02   -1.0119799614e+01
    1.4699958801e+02   -1.0126500130e+01
    1.4709973145e+02   -1.0133099556e+01
    1.4719960022e+02   -1.0139599800e+01
    1.4729963684e+02   -1.0145999908e+01
    1.4739965820e+02   -1.0152299881e+01
    1.4749969482e+02   -1.0158599854e+01
    1.4759976196e+02   -1.0164799690e+01
    1.4769975281e+02   -1.0170999527e+01
    1.4779966736e+02   -1.0177100182e+01
    1.4789981079e+02   -1.0183300018e+01
    1.4799972534e+02   -1.0189499855e+01
    1.4809965515e+02   -1.0195699692e+01
    1.4819975281e+02   -1.0201899529e+01
    1.4829963684e+02   -1.0208100319e+01
    1.4839968872e+02   -1.0214300156e+01
    1.4849980164e+02   -1.0220600128e+01
    1.4859971619e+02   -1.0226799965e+01
    1.4869964600e+02   -1.0233099937e+01
    1.4879972839e+02   -1.0239399910e+01
    1.4889984131e+02   -1.0245699883e+01
    1.4899986267e+02   -1.0252099991e+01
    1.4909979248e+02   -1.0258500099e+01
    1.4919982910e+02   -1.0264900208e+01
    1.4929988098e+02   -1.0271400452e+01
    1.4939978027e+02   -1.0277999878e+01
    1.4949975586e+02   -1.0284500122e+01
    1.4959983826e+02   -1.0291199684e+01
    1.4969987488e+02   -1.0297800064e+01
    1.4979989624e+02   -1.0304499626e+01
    1.4989990234e+02   -1.0311100006e+01
    1.4999984741e+02   -1.0317799568e+01
    1.5009983826e+02   -1.0324399948e+01
    1.5019975281e+02   -1.0331000328e+01
    1.5029992676e+02   -1.0337599754e+01
    1.5039976501e+02   -1.0344200134e+01
    1.5049987793e+02   -1.0350700378e+01
    1.5059982300e+02   -1.0357099533e+01
    1.5069987488e+02   -1.0363499641e+01
    1.5079989624e+02   -1.0369799614e+01
    1.5089982605e+02   -1.0376000404e+01
    1.5099981689e+02   -1.0382100105e+01
    1.5109997559e+02   -1.0387999535e+01
    1.5119987488e+02   -1.0393799782e+01
    1.5129985046e+02   -1.0399499893e+01
    1.5139999390e+02   -1.0404899597e+01
    1.5149984741e+02   -1.0410200119e+01
    1.5159997559e+02   -1.0415200233e+01
    1.5170002747e+02   -1.0420100212e+01
    1.5179992676e+02   -1.0424799919e+01
    1.5189985657e+02   -1.0429400444e+01
    1.5200000000e+02   -1.0433799744e+01
    1.5209999084e+02   -1.0438099861e+01
    1.5219987488e+02   -1.0442399979e+01
    1.5230007935e+02   -1.0446499825e+01
    1.5239991760e+02   -1.0450599670e+01
    1.5249995422e+02   -1.0454500198e+01
    1.5259997559e+02   -1.0458399773e+01
    1.5269995117e+02   -1.0462200165e+01
    1.5280003357e+02   -1.0465999603e+01
    1.5289990234e+02   -1.0469699860e+01
    1.5300004578e+02   -1.0473500252e+01
    1.5310002136e+02   -1.0477199554e+01
    1.5320010376e+02   -1.0480999947e+01
    1.5329992676e+02   -1.0484800339e+01
    1.5340005493e+02   -1.0488699913e+01
    1.5350000000e+02   -1.0492699623e+01
    1.5360012817e+02   -1.0496800423e+01
    1.5369996643e+02   -1.0500900269e+01
    1.5379998779e+02   -1.0505200386e+01
    1.5390017700e+02   -1.0509499550e+01
    1.5400004578e+02   -1.0513899803e+01
    1.5410014343e+02   -1.0518300056e+01
    1.5420007324e+02   -1.0522899628e+01
    1.5430018616e+02   -1.0527400017e+01
    1.5440008545e+02   -1.0532099724e+01
    1.5450007629e+02   -1.0536899567e+01
    1.5460011292e+02   -1.0541700363e+01
    1.5470007324e+02   -1.0546600342e+01
    1.5480014038e+02   -1.0551600456e+01
    1.5490005493e+02   -1.0556599617e+01
    1.5500007629e+02   -1.0561699867e+01
    1.5510017395e+02   -1.0566900253e+01
    1.5520025635e+02   -1.0572099686e+01
    1.5530021667e+02   -1.0577300072e+01
    1.5540017700e+02   -1.0582500458e+01
    1.5550016785e+02   -1.0587699890e+01
    1.5560009766e+02   -1.0592900276e+01
    1.5570016479e+02   -1.0597999573e+01
    1.5580010986e+02   -1.0603099823e+01
    1.5590011597e+02   -1.0608099937e+01
    1.5600010681e+02   -1.0612999916e+01
    1.5610011292e+02   -1.0617799759e+01
    1.5620016479e+02   -1.0622599602e+01
    1.5630021667e+02   -1.0627200127e+01
    1.5640025330e+02   -1.0631699562e+01
    1.5650027466e+02   -1.0636099815e+01
    1.5660029602e+02   -1.0640399933e+01
    1.5670022583e+02   -1.0644599915e+01
    1.5680029297e+02   -1.0648599625e+01
    1.5690017700e+02   -1.0652500153e+01
    1.5700033569e+02   -1.0656299591e+01
    1.5710014343e+02   -1.0659899712e+01
    1.5720018005e+02   -1.0663399696e+01
    1.5730030823e+02   -1.0666799545e+01
    1.5740031433e+02   -1.0670100212e+01
    1.5750028992e+02   -1.0673199654e+01
    1.5760029602e+02   -1.0676300049e+01
    1.5770031738e+02   -1.0679300308e+01
    1.5780032349e+02   -1.0682299614e+01
    1.5790023804e+02   -1.0685199738e+01
    1.5800042725e+02   -1.0688099861e+01
    1.5810043335e+02   -1.0690999985e+01
    1.5820036316e+02   -1.0693799973e+01
    1.5830038452e+02   -1.0696700096e+01
    1.5840040588e+02   -1.0699500084e+01
    1.5850027466e+02   -1.0702300072e+01
    1.5860029602e+02   -1.0705100060e+01
    1.5870046997e+02   -1.0707900047e+01
    1.5880035400e+02   -1.0710599899e+01
    1.5890029907e+02   -1.0713399887e+01
    1.5900044250e+02   -1.0716099739e+01
    1.5910040283e+02   -1.0718899727e+01
    1.5920036316e+02   -1.0721699715e+01
    1.5930049133e+02   -1.0724499702e+01
    1.5940037537e+02   -1.0727399826e+01
    1.5950051880e+02   -1.0730199814e+01
    1.5960041809e+02   -1.0733099937e+01
    1.5970053101e+02   -1.0735899925e+01
    1.5980047607e+02   -1.0738699913e+01
    1.5990045166e+02   -1.0741499901e+01
    1.6000053406e+02   -1.0744299889e+01
    1.6010043335e+02   -1.0746999741e+01
    1.6020042419e+02   -1.0749699593e+01
    1.6030052185e+02   -1.0752400398e+01
    1.6040037537e+02   -1.0754899979e+01
    1.6050044250e+02   -1.0757399559e+01
    1.6060049438e+02   -1.0759799957e+01
    1.6070037842e+02   -1.0762200356e+01
    1.6080056763e+02   -1.0764399529e+01
    1.6090046692e+02   -1.0766400337e+01
    1.6100050354e+02   -1.0768400192e+01
    1.6110046387e+02   -1.0770199776e+01
    1.6120057678e+02   -1.0771800041e+01
    1.6130044556e+02   -1.0773200035e+01
    1.6140055847e+02   -1.0774399757e+01
    1.6150059509e+02   -1.0775400162e+01
    1.6160049438e+02   -1.0776200294e+01
    1.6170043945e+02   -1.0776700020e+01
    1.6180058289e+02   -1.0777099609e+01
    1.6190052795e+02   -1.0777299881e+01
    1.6200045776e+02   -1.0777400017e+01
    1.6210061646e+02   -1.0777299881e+01
    1.6220057678e+02   -1.0777099609e+01
    1.6230056763e+02   -1.0776800156e+01
    1.6240068054e+02   -1.0776399612e+01
    1.6250065613e+02   -1.0775799751e+01
    1.6260058594e+02   -1.0775099754e+01
    1.6270059204e+02   -1.0774399757e+01
    1.6280067444e+02   -1.0773500443e+01
    1.6290054321e+02   -1.0772600174e+01
    1.6300061035e+02   -1.0771599770e+01
    1.6310069275e+02   -1.0770700455e+01
    1.6320057678e+02   -1.0769700050e+01
    1.6330072021e+02   -1.0768699646e+01
    1.6340071106e+02   -1.0767800331e+01
    1.6350071716e+02   -1.0766900063e+01
    1.6360061646e+02   -1.0766099930e+01
    1.6370062256e+02   -1.0765399933e+01
    1.6380067444e+02   -1.0764599800e+01
    1.6390066528e+02   -1.0763999939e+01
    1.6400064087e+02   -1.0763299942e+01
    1.6410072327e+02   -1.0762700081e+01
    1.6420068359e+02   -1.0762200356e+01
    1.6430061340e+02   -1.0761599541e+01
    1.6440063477e+02   -1.0761199951e+01
    1.6450071716e+02   -1.0760700226e+01
    1.6460063171e+02   -1.0760299683e+01
    1.6470062256e+02   -1.0760000229e+01
    1.6480078125e+02   -1.0759699821e+01
    1.6490066528e+02   -1.0759499550e+01
    1.6500064087e+02   -1.0759300232e+01
    1.6510075378e+02   -1.0759099960e+01
    1.6520079041e+02   -1.0758899689e+01
    1.6530082703e+02   -1.0758700371e+01
    1.6540084839e+02   -1.0758500099e+01
    1.6550079346e+02   -1.0758299828e+01
    1.6560072327e+02   -1.0758000374e+01
    1.6570080566e+02   -1.0757699966e+01
    1.6580082703e+02   -1.0757300377e+01
    1.6590072632e+02   -1.0756799698e+01
    1.6600082397e+02   -1.0756199837e+01
    1.6610090637e+02   -1.0755499840e+01
    1.6620089722e+02   -1.0754599571e+01
    1.6630091858e+02   -1.0753700256e+01
    1.6640074158e+02   -1.0752599716e+01
    1.6650074768e+02   -1.0751399994e+01
    1.6660087585e+02   -1.0750000000e+01
    1.6670091248e+02   -1.0748499870e+01
    1.6680075073e+02   -1.0746899605e+01
    1.6690078735e+02   -1.0745100021e+01
    1.6700077820e+02   -1.0743200302e+01
    1.6710098267e+02   -1.0741100311e+01
    1.6720088196e+02   -1.0738900185e+01
    1.6730099487e+02   -1.0736499786e+01
    1.6740097046e+02   -1.0734000206e+01
    1.6750088501e+02   -1.0731399536e+01
    1.6760090637e+02   -1.0728699684e+01
    1.6770092773e+02   -1.0725899696e+01
    1.6780085754e+02   -1.0723099709e+01
    1.6790089417e+02   -1.0720100403e+01
    1.6800096130e+02   -1.0717200279e+01
    1.6810102844e+02   -1.0714200020e+01
    1.6820086670e+02   -1.0711099625e+01
    1.6830090332e+02   -1.0708100319e+01
    1.6840097046e+02   -1.0704999924e+01
    1.6850097656e+02   -1.0701800346e+01
    1.6860101318e+02   -1.0698599815e+01
    1.6870092773e+02   -1.0695400238e+01
    1.6880107117e+02   -1.0692199707e+01
    1.6890093994e+02   -1.0689000130e+01
    1.6900097656e+02   -1.0685700417e+01
    1.6910099792e+02   -1.0682399750e+01
    1.6920108032e+02   -1.0679200172e+01
    1.6930111694e+02   -1.0675999641e+01
    1.6940095520e+02   -1.0672699928e+01
    1.6950097656e+02   -1.0669500351e+01
    1.6960104370e+02   -1.0666199684e+01
    1.6970094299e+02   -1.0663000107e+01
    1.6980094910e+02   -1.0659700394e+01
    1.6990100098e+02   -1.0656399727e+01
    1.7000102234e+02   -1.0653100014e+01
    1.7010113525e+02   -1.0649700165e+01
    1.7020103455e+02   -1.0646300316e+01
    1.7030117798e+02   -1.0642800331e+01
    1.7040100098e+02   -1.0639200211e+01
    1.7050108337e+02   -1.0635600090e+01
    1.7060098267e+02   -1.0631899834e+01
    1.7070103455e+02   -1.0628100395e+01
    1.7080119324e+02   -1.0624199867e+01
    1.7090115356e+02   -1.0620100021e+01
    1.7100102234e+02   -1.0616000175e+01
    1.7110116577e+02   -1.0611599922e+01
    1.7120106506e+02   -1.0607099533e+01
    1.7130114746e+02   -1.0602499962e+01
    1.7140109253e+02   -1.0597599983e+01
    1.7150126648e+02   -1.0592499733e+01
    1.7160119629e+02   -1.0587200165e+01
    1.7170118713e+02   -1.0581700325e+01
    1.7180108643e+02   -1.0576000214e+01
    1.7190116882e+02   -1.0570199966e+01
    1.7200112915e+02   -1.0564200401e+01
    1.7210128784e+02   -1.0558099747e+01
    1.7220123291e+02   -1.0551899910e+01
    1.7230117798e+02   -1.0545499802e+01
    1.7240127563e+02   -1.0539099693e+01
    1.7250114441e+02   -1.0532500267e+01
    1.7260130310e+02   -1.0525799751e+01
    1.7270129395e+02   -1.0519000053e+01
    1.7280126953e+02   -1.0512200356e+01
    1.7290133667e+02   -1.0505200386e+01
    1.7300115967e+02   -1.0498299599e+01
    1.7310134888e+02   -1.0491299629e+01
    1.7320132446e+02   -1.0484299660e+01
    1.7330128479e+02   -1.0477299690e+01
    1.7340130615e+02   -1.0470399857e+01
    1.7350132751e+02   -1.0463500023e+01
    1.7360119629e+02   -1.0456700325e+01
    1.7370120239e+02   -1.0449899673e+01
    1.7380119324e+02   -1.0443200111e+01
    1.7390124512e+02   -1.0436499596e+01
    1.7400134277e+02   -1.0429800034e+01
    1.7410125732e+02   -1.0423199654e+01
    1.7420120239e+02   -1.0416600227e+01
    1.7430131531e+02   -1.0410099983e+01
    1.7440132141e+02   -1.0403599739e+01
    1.7450126648e+02   -1.0397199631e+01
    1.7460130310e+02   -1.0390800476e+01
    1.7470127869e+02   -1.0384499550e+01
    1.7480128479e+02   -1.0378199577e+01
    1.7490133667e+02   -1.0371999741e+01
    1.7500144958e+02   -1.0365799904e+01
    1.7510125732e+02   -1.0359700203e+01
    1.7520132446e+02   -1.0353500366e+01
    1.7530139160e+02   -1.0347399712e+01
    1.7540130615e+02   -1.0341300011e+01
    1.7550137329e+02   -1.0335100174e+01
    1.7560130310e+02   -1.0328900337e+01
    1.7570132446e+02   -1.0322699547e+01
    1.7580137634e+02   -1.0316399574e+01
    1.7590135193e+02   -1.0310000420e+01
    1.7600132751e+02   -1.0303600311e+01
    1.7610133362e+02   -1.0297100067e+01
    1.7620152283e+02   -1.0290399551e+01
    1.7630137634e+02   -1.0283699989e+01
    1.7640150452e+02   -1.0276800156e+01
    1.7650140381e+02   -1.0269800186e+01
    1.7660156250e+02   -1.0262800217e+01
    1.7670150757e+02   -1.0255599976e+01
    1.7680145264e+02   -1.0248200417e+01
    1.7690138245e+02   -1.0240799904e+01
    1.7700144958e+02   -1.0233200073e+01
    1.7710151672e+02   -1.0225500107e+01
    1.7720141602e+02   -1.0217700005e+01
    1.7730140686e+02   -1.0209699631e+01
    1.7740159607e+02   -1.0201600075e+01
    1.7750146484e+02   -1.0193499565e+01
    1.7760159302e+02   -1.0185199738e+01
    1.7770150757e+02   -1.0176899910e+01
    1.7780163574e+02   -1.0168499947e+01
    1.7790153503e+02   -1.0160099983e+01
    1.7800151062e+02   -1.0151700020e+01
    1.7810148621e+02   -1.0143199921e+01
    1.7820147705e+02   -1.0134699821e+01
    1.7830149841e+02   -1.0126199722e+01
    1.7840151978e+02   -1.0117699623e+01
    1.7850158691e+02   -1.0109100342e+01
    1.7860153198e+02   -1.0100500107e+01
    1.7870152283e+02   -1.0091899872e+01
    1.7880154419e+02   -1.0083399773e+01
    1.7890168762e+02   -1.0074799538e+01
    1.7900161743e+02   -1.0066200256e+01
    1.7910151672e+02   -1.0057600021e+01
    1.7920166016e+02   -1.0048999786e+01
    1.7930163574e+02   -1.0040499687e+01
    1.7940164185e+02   -1.0031999588e+01
    1.7950155640e+02   -1.0023500443e+01
    1.7960156250e+02   -1.0015000343e+01
    1.7970164490e+02   -1.0006500244e+01
    1.7980175781e+02   -9.9980297089e+00
    1.7990171814e+02   -9.9895401001e+00
    1.8000172424e+02   -9.9810199738e+00
    1.8010168457e+02   -9.9724903107e+00
    1.8020159912e+02   -9.9639301300e+00
    1.8030168152e+02   -9.9553203583e+00
    1.8040162659e+02   -9.9466800690e+00
    1.8050163269e+02   -9.9379901886e+00
    1.8060162354e+02   -9.9292297363e+00
    1.8070170593e+02   -9.9203901291e+00
    1.8080172729e+02   -9.9114704132e+00
    1.8090174866e+02   -9.9024496078e+00
    1.8100163269e+02   -9.8933401108e+00
    1.8110168457e+02   -9.8840904236e+00
    1.8120182800e+02   -9.8746900558e+00
    1.8130166626e+02   -9.8651599884e+00
    1.8140174866e+02   -9.8554401398e+00
    1.8150184631e+02   -9.8455400467e+00
    1.8160169983e+02   -9.8354797363e+00
    1.8170176697e+02   -9.8252296448e+00
    1.8180181885e+02   -9.8148403168e+00
    1.8190168762e+02   -9.8043098450e+00
    1.8200175476e+02   -9.7936401367e+00
    1.8210189819e+02   -9.7828502655e+00
    1.8220170593e+02   -9.7719802856e+00
    1.8230189514e+02   -9.7609701157e+00
    1.8240176392e+02   -9.7498798370e+00
    1.8250181580e+02   -9.7386903763e+00
    1.8260179138e+02   -9.7274103165e+00
    1.8270190430e+02   -9.7160396576e+00
    1.8280181885e+02   -9.7046298981e+00
    1.8290188599e+02   -9.6931295395e+00
    1.8300192261e+02   -9.6815900803e+00
    1.8310180664e+02   -9.6700601578e+00
    1.8320184326e+02   -9.6585102081e+00
    1.8330183411e+02   -9.6469802856e+00
    1.8340185547e+02   -9.6354799271e+00
    1.8350192261e+02   -9.6240196228e+00
    1.8360183716e+02   -9.6126298904e+00
    1.8370191956e+02   -9.6012697220e+00
    1.8380184937e+02   -9.5899600983e+00
    1.8390193176e+02   -9.5786695480e+00
    1.8400187683e+02   -9.5674295425e+00
    1.8410200500e+02   -9.5562000275e+00
    1.8420191956e+02   -9.5450296402e+00
    1.8430183411e+02   -9.5339002609e+00
    1.8440185547e+02   -9.5228099823e+00
    1.8450187683e+02   -9.5117702484e+00
    1.8460192871e+02   -9.5007696152e+00
    1.8470193481e+02   -9.4898195267e+00
    1.8480201721e+02   -9.4789199829e+00
    1.8490206909e+02   -9.4680595398e+00
    1.8500204468e+02   -9.4572496414e+00
    1.8510208130e+02   -9.4464597702e+00
    1.8520201111e+02   -9.4356899261e+00
    1.8530206299e+02   -9.4249200821e+00
    1.8540197754e+02   -9.4141597748e+00
    1.8550207520e+02   -9.4033603668e+00
    1.8560198975e+02   -9.3925504684e+00
    1.8570201111e+02   -9.3816795349e+00
    1.8580198669e+02   -9.3707599640e+00
    1.8590206909e+02   -9.3597698212e+00
    1.8600193787e+02   -9.3487300873e+00
    1.8610197449e+02   -9.3375797272e+00
    1.8620196533e+02   -9.3263397217e+00
    1.8630210876e+02   -9.3149900436e+00
    1.8640197754e+02   -9.3035602570e+00
    1.8650207520e+02   -9.2919902802e+00
    1.8660215759e+02   -9.2803201675e+00
    1.8670204163e+02   -9.2685499191e+00
    1.8680215454e+02   -9.2566299438e+00
    1.8690214539e+02   -9.2446098328e+00
    1.8700213623e+02   -9.2324695587e+00
    1.8710197449e+02   -9.2202196121e+00
    1.8720205688e+02   -9.2078199387e+00
    1.8730206299e+02   -9.1953096390e+00
    1.8740220642e+02   -9.1826801300e+00
    1.8750219727e+02   -9.1699695587e+00
    1.8760205078e+02   -9.1571798325e+00
    1.8770219421e+02   -9.1442804337e+00
    1.8780206299e+02   -9.1313495636e+00
    1.8790211487e+02   -9.1183500290e+00
    1.8800212097e+02   -9.1053199768e+00
    1.8810223389e+02   -9.0922298431e+00
    1.8820210266e+02   -9.0791501999e+00
    1.8830212402e+02   -9.0660104752e+00
    1.8840222168e+02   -9.0528402328e+00
    1.8850227356e+02   -9.0396299362e+00
    1.8860226440e+02   -9.0264101028e+00
    1.8870222473e+02   -9.0131702423e+00
    1.8880227661e+02   -8.9998903275e+00
    1.8890219116e+02   -8.9866199493e+00
    1.8900224304e+02   -8.9733104706e+00
    1.8910212708e+02   -8.9600296021e+00
    1.8920227051e+02   -8.9467201233e+00
    1.8930227661e+02   -8.9334297180e+00
    1.8940231323e+02   -8.9201402664e+00
    1.8950216675e+02   -8.9068899155e+00
    1.8960224915e+02   -8.8936004639e+00
    1.8970228577e+02   -8.8803100586e+00
    1.8980224609e+02   -8.8670196533e+00
    1.8990237427e+02   -8.8536901474e+00
    1.9000231934e+02   -8.8403501511e+00
    1.9010229492e+02   -8.8269701004e+00
    1.9020236206e+02   -8.8135499954e+00
    1.9030220032e+02   -8.8001203537e+00
    1.9040231323e+02   -8.7866001129e+00
    1.9050238037e+02   -8.7730197906e+00
    1.9060223389e+02   -8.7594203949e+00
    1.9070225525e+02   -8.7457103729e+00
    1.9080227661e+02   -8.7319097519e+00
    1.9090234375e+02   -8.7180099487e+00
    1.9100224304e+02   -8.7040300369e+00
    1.9110237122e+02   -8.6898899078e+00
    1.9120234680e+02   -8.6756296158e+00
    1.9130226135e+02   -8.6612300873e+00
    1.9140226746e+02   -8.6466503143e+00
    1.9150239563e+02   -8.6318798065e+00
    1.9160238647e+02   -8.6169595718e+00
    1.9170245361e+02   -8.6018495560e+00
    1.9180235291e+02   -8.5866298676e+00
    1.9190231323e+02   -8.5712499619e+00
    1.9200248718e+02   -8.5557003021e+00
    1.9210246277e+02   -8.5400600433e+00
    1.9220239258e+02   -8.5243196487e+00
    1.9230235291e+02   -8.5084600449e+00
    1.9240243530e+02   -8.4924602509e+00
    1.9250245667e+02   -8.4763698578e+00
    1.9260253906e+02   -8.4601802826e+00
    1.9270254517e+02   -8.4439001083e+00
    1.9280252075e+02   -8.4275598526e+00
    1.9290237427e+02   -8.4111499786e+00
    1.9300250244e+02   -8.3946399689e+00
    1.9310244751e+02   -8.3781204224e+00
    1.9320237732e+02   -8.3615903854e+00
    1.9330247498e+02   -8.3450202942e+00
    1.9340249634e+02   -8.3284702301e+00
    1.9350239563e+02   -8.3119602203e+00
    1.9360250854e+02   -8.2954196930e+00
    1.9370254517e+02   -8.2789201736e+00
    1.9380242920e+02   -8.2624597549e+00
    1.9390257263e+02   -8.2459697723e+00
    1.9400250244e+02   -8.2295198441e+00
    1.9410246277e+02   -8.2130699158e+00
    1.9420251465e+02   -8.1966295242e+00
    1.9430250549e+02   -8.1801996231e+00
    1.9440252686e+02   -8.1638002396e+00
[...]
    2.5130598450e+02    2.8840401173e+00
    2.5140603638e+02    2.8933699131e+00
    2.5150593567e+02    2.9026401043e+00
    2.5160600281e+02    2.9118900299e+00
    2.5170596313e+02    2.9210898876e+00
    2.5180598450e+02    2.9302599430e+00
    2.5190614319e+02    2.9393999577e+00
    2.5200605774e+02    2.9484798908e+00
    2.5210604858e+02    2.9575099945e+00
    2.5220616150e+02    2.9665100574e+00
    2.5230618286e+02    2.9754600525e+00
    2.5240599060e+02    2.9843399525e+00
    2.5250610352e+02    2.9932000637e+00
    2.5260606384e+02    3.0020000935e+00
    2.5270614624e+02    3.0107600689e+00
    2.5280613708e+02    3.0194599628e+00
    2.5290600586e+02    3.0280900002e+00
    2.5300604248e+02    3.0366699696e+00
    2.5310621643e+02    3.0452098846e+00
    2.5320605469e+02    3.0536499023e+00
    2.5330607605e+02    3.0620400906e+00
    2.5340608215e+02    3.0703699589e+00
    2.5350611877e+02    3.0786199570e+00
    2.5360610962e+02    3.0868000984e+00
    2.5370616150e+02    3.0949099064e+00
    2.5380621338e+02    3.1029500961e+00
    2.5390612793e+02    3.1109099388e+00
    2.5400627136e+02    3.1187999249e+00
    2.5410617065e+02    3.1266100407e+00
    2.5420613098e+02    3.1343300343e+00
    2.5430621338e+02    3.1419899464e+00
    2.5440611267e+02    3.1495499611e+00
    2.5450610352e+02    3.1570401192e+00
    2.5460621643e+02    3.1644499302e+00
    2.5470620728e+02    3.1717600822e+00
    2.5480632019e+02    3.1789999008e+00
    2.5490626526e+02    3.1861300468e+00
    2.5500634766e+02    3.1932001114e+00
    2.5510621643e+02    3.2001600266e+00
    2.5520634460e+02    3.2070500851e+00
    2.5530621338e+02    3.2138500214e+00
    2.5540626526e+02    3.2205700874e+00
    2.5550617981e+02    3.2272100449e+00
    2.5560632324e+02    3.2337799072e+00
    2.5570622253e+02    3.2402598858e+00
    2.5580630493e+02    3.2466900349e+00
    2.5590635681e+02    3.2530400753e+00
    2.5600637817e+02    3.2593300343e+00
    2.5610623169e+02    3.2655398846e+00
    2.5620623779e+02    3.2716898918e+00
    2.5630624390e+02    3.2777900696e+00
    2.5640643311e+02    3.2838399410e+00
    2.5650631714e+02    3.2898199558e+00
    2.5660638428e+02    3.2957499027e+00
    2.5670639038e+02    3.3016200066e+00
    2.5680639648e+02    3.3074400425e+00
    2.5690643311e+02    3.3131999969e+00
    2.5700643921e+02    3.3189098835e+00
    2.5710641479e+02    3.3245599270e+00
    2.5720632935e+02    3.3301498890e+00
    2.5730627441e+02    3.3356900215e+00
    2.5740637207e+02    3.3411800861e+00
    2.5750640869e+02    3.3466200829e+00
    2.5760644531e+02    3.3519899845e+00
    2.5770648193e+02    3.3573100567e+00
    2.5780645752e+02    3.3625600338e+00
    2.5790652466e+02    3.3677499294e+00
    2.5800640869e+02    3.3728699684e+00
    2.5810641479e+02    3.3779299259e+00
    2.5820648193e+02    3.3829300404e+00
    2.5830639648e+02    3.3878500462e+00
    2.5840637207e+02    3.3926999569e+00
    2.5850643921e+02    3.3974900246e+00
    2.5860644531e+02    3.4022099972e+00
    2.5870654297e+02    3.4068601131e+00
    2.5880642700e+02    3.4114298820e+00
    2.5890637207e+02    3.4159300327e+00
    2.5900653076e+02    3.4203600883e+00
    2.5910641479e+02    3.4247100353e+00
    2.5920657349e+02    3.4289898872e+00
    2.5930645752e+02    3.4331700802e+00
    2.5940652466e+02    3.4372799397e+00
    2.5950643921e+02    3.4412999153e+00
    2.5960641479e+02    3.4452300072e+00
    2.5970651245e+02    3.4490900040e+00
    2.5980661011e+02    3.4528698921e+00
    2.5990652466e+02    3.4565498829e+00
    2.6000662231e+02    3.4601600170e+00
    2.6010653687e+02    3.4636800289e+00
    2.6020663452e+02    3.4671199322e+00
    2.6030645752e+02    3.4704699516e+00
    2.6040661621e+02    3.4737598896e+00
    2.6050650024e+02    3.4769599438e+00
    2.6060650635e+02    3.4800798893e+00
    2.6070663452e+02    3.4831299782e+00
    2.6080661011e+02    3.4861099720e+00
    2.6090649414e+02    3.4890100956e+00
    2.6100668335e+02    3.4918498993e+00
    2.6110653687e+02    3.4946200848e+00
    2.6120657349e+02    3.4973199368e+00
    2.6130657959e+02    3.4999699593e+00
    2.6140658569e+02    3.5025498867e+00
    2.6150659180e+02    3.5050699711e+00
    2.6160662842e+02    3.5075399876e+00
    2.6170672607e+02    3.5099499226e+00
    2.6180654907e+02    3.5122900009e+00
    2.6190661621e+02    3.5145900249e+00
    2.6200671387e+02    3.5168299675e+00
    2.6210659790e+02    3.5190000534e+00
    2.6220672607e+02    3.5211200714e+00
    2.6230661011e+02    3.5231800079e+00
    2.6240667725e+02    3.5251901150e+00
    2.6250677490e+02    3.5271399021e+00
    2.6260668945e+02    3.5290200710e+00
    2.6270672607e+02    3.5308599472e+00
    2.6280679321e+02    3.5326299667e+00
    2.6290667725e+02    3.5343298912e+00
    2.6300674438e+02    3.5359799862e+00
    2.6310675049e+02    3.5375599861e+00
    2.6320681763e+02    3.5390899181e+00
    2.6330676270e+02    3.5405399799e+00
    2.6340679932e+02    3.5419299603e+00
    2.6350671387e+02    3.5432600975e+00
    2.6360665894e+02    3.5445098877e+00
    2.6370678711e+02    3.5457000732e+00
    2.6380676270e+02    3.5468099117e+00
    2.6390673828e+02    3.5478599072e+00
    2.6400674438e+02    3.5488300323e+00
    2.6410678101e+02    3.5497300625e+00
    2.6420675659e+02    3.5505599976e+00
    2.6430685425e+02    3.5513100624e+00
    2.6440676880e+02    3.5519800186e+00
    2.6450671387e+02    3.5525801182e+00
    2.6460671997e+02    3.5531001091e+00
    2.6470672607e+02    3.5535500050e+00
    2.6480679321e+02    3.5539100170e+00
    2.6490682983e+02    3.5541999340e+00
    2.6500683594e+02    3.5544099808e+00
    2.6510684204e+02    3.5545399189e+00
    2.6520681763e+02    3.5546000004e+00
    2.6530691528e+02    3.5545799732e+00
    2.6540692139e+02    3.5544900894e+00
    2.6550683594e+02    3.5543200970e+00
    2.6560681152e+02    3.5540800095e+00
    2.6570687866e+02    3.5537700653e+00
    2.6580688477e+02    3.5534000397e+00
    2.6590686035e+02    3.5529499054e+00
    2.6600683594e+02    3.5524399281e+00
    2.6610699463e+02    3.5518701077e+00
    2.6620697021e+02    3.5512299538e+00
    2.6630682373e+02    3.5505399704e+00
    2.6640689087e+02    3.5497899055e+00
    2.6650701904e+02    3.5489699841e+00
    2.6660702515e+02    3.5481100082e+00
    2.6670697021e+02    3.5471799374e+00
    2.6680700684e+02    3.5462000370e+00
    2.6690698242e+02    3.5451700687e+00
    2.6700708008e+02    3.5440700054e+00
    2.6710687256e+02    3.5429298878e+00
    2.6720690918e+02    3.5417399406e+00
    2.6730694580e+02    3.5404899120e+00
    2.6740695190e+02    3.5391800404e+00
    2.6750695801e+02    3.5378301144e+00
    2.6760699463e+02    3.5364201069e+00
    2.6770690918e+02    3.5349700451e+00
    2.6780697632e+02    3.5334498882e+00
    2.6790707397e+02    3.5318899155e+00
    2.6800701904e+02    3.5302700996e+00
    2.6810699463e+02    3.5285899639e+00
    2.6820697021e+02    3.5268599987e+00
    2.6830712891e+02    3.5250699520e+00
    2.6840704346e+02    3.5232300758e+00
    2.6850704956e+02    3.5213301182e+00
    2.6860702515e+02    3.5193800926e+00
    2.6870706177e+02    3.5173599720e+00
    2.6880697632e+02    3.5152900219e+00
    2.6890713501e+02    3.5131599903e+00
    2.6900714111e+02    3.5109701157e+00
    2.6910705566e+02    3.5087099075e+00
    2.6920709229e+02    3.5064001083e+00
    2.6930712891e+02    3.5040099621e+00
    2.6940713501e+02    3.5015699863e+00
    2.6950701904e+02    3.4990599155e+00
    2.6960708618e+02    3.4964900017e+00
    2.6970706177e+02    3.4938499928e+00
    2.6980718994e+02    3.4911398888e+00
    2.6990719604e+02    3.4883699417e+00
    2.7000717163e+02    3.4855298996e+00
    2.7010711670e+02    3.4826300144e+00
    2.7020706177e+02    3.4796700478e+00
    2.7030706787e+02    3.4766399860e+00
    2.7040725708e+02    3.4735400677e+00
    2.7050726318e+02    3.4703800678e+00
    2.7060723877e+02    3.4671599865e+00
    2.7070727539e+02    3.4638800621e+00
    2.7080709839e+02    3.4605500698e+00
    2.7090725708e+02    3.4571499825e+00
    2.7100717163e+02    3.4537000656e+00
    2.7110714722e+02    3.4502000809e+00
    2.7120730591e+02    3.4466400146e+00
    2.7130725098e+02    3.4430301189e+00
    2.7140725708e+02    3.4393599033e+00
    2.7150714111e+02    3.4356400967e+00
    2.7160723877e+02    3.4318699837e+00
    2.7170718384e+02    3.4280500412e+00
    2.7180725098e+02    3.4241800308e+00
    2.7190716553e+02    3.4202699661e+00
    2.7200726318e+02    3.4163000584e+00
    2.7210723877e+02    3.4123001099e+00
    2.7220721436e+02    3.4082601070e+00
    2.7230737305e+02    3.4041700363e+00
    2.7240725708e+02    3.4000499249e+00
    2.7250720215e+02    3.3958899975e+00
    2.7260736084e+02    3.3916900158e+00
    2.7270724487e+02    3.3874499798e+00
    2.7280740356e+02    3.3831601143e+00
    2.7290719604e+02    3.3788499832e+00
    2.7300732422e+02    3.3744900227e+00
    2.7310733032e+02    3.3700900078e+00
    2.7320724487e+02    3.3656699657e+00
    2.7330728149e+02    3.3612000942e+00
    2.7340737915e+02    3.3567099571e+00
    2.7350735474e+02    3.3521900177e+00
    2.7360733032e+02    3.3476300240e+00
    2.7370730591e+02    3.3430399895e+00
    2.7380749512e+02    3.3383998871e+00
    2.7390737915e+02    3.3337299824e+00
    2.7400741577e+02    3.3290200233e+00
    2.7410729980e+02    3.3242800236e+00
    2.7420745850e+02    3.3194799423e+00
    2.7430749512e+02    3.3146500587e+00
    2.7440740967e+02    3.3097798824e+00
    2.7450732422e+02    3.3048698902e+00
    2.7460751343e+02    3.2999000549e+00
    2.7470739746e+02    3.2948999405e+00
    2.7480749512e+02    3.2898499966e+00
    2.7490737915e+02    3.2847700119e+00
    2.7500738525e+02    3.2796499729e+00
    2.7510754395e+02    3.2744700909e+00
    2.7520748901e+02    3.2692599297e+00
    2.7530749512e+02    3.2639999390e+00
    2.7540737915e+02    3.2586998940e+00
    2.7550750732e+02    3.2533500195e+00
    2.7560745239e+02    3.2479600906e+00
    2.7570739746e+02    3.2425301075e+00
    2.7580743408e+02    3.2370600700e+00
    2.7590744019e+02    3.2315499783e+00
    2.7600759888e+02    3.2259900570e+00
    2.7610745239e+02    3.2204000950e+00
    2.7620742798e+02    3.2147800922e+00
    2.7630764771e+02    3.2091000080e+00
    2.7640756226e+02    3.2033998966e+00
    2.7650750732e+02    3.1976599693e+00
    2.7660754395e+02    3.1918900013e+00
    2.7670764160e+02    3.1860699654e+00
    2.7680761719e+02    3.1802299023e+00
    2.7690759277e+02    3.1743600368e+00
    2.7700753784e+02    3.1684501171e+00
    2.7710754395e+02    3.1624999046e+00
    2.7720748901e+02    3.1565299034e+00
    2.7730767822e+02    3.1505100727e+00
    2.7740768433e+02    3.1444699764e+00
    2.7750756836e+02    3.1384100914e+00
    2.7760769653e+02    3.1323099136e+00
    2.7770770264e+02    3.1261899471e+00
    2.7780755615e+02    3.1200499535e+00
    2.7790771484e+02    3.1138699055e+00
    2.7800765991e+02    3.1076800823e+00
    2.7810766602e+02    3.1014599800e+00
    2.7820755005e+02    3.0952200890e+00
    2.7830758667e+02    3.0889399052e+00
    2.7840759277e+02    3.0826399326e+00
    2.7850759888e+02    3.0763199329e+00
    2.7860763550e+02    3.0699601173e+00
    2.7870758057e+02    3.0635800362e+00
    2.7880758667e+02    3.0571699142e+00
    2.7890765381e+02    3.0507299900e+00
    2.7900765991e+02    3.0442600250e+00
    2.7910766602e+02    3.0377600193e+00
    2.7920770264e+02    3.0312299728e+00
    2.7930770874e+02    3.0246698856e+00
    2.7940774536e+02    3.0180799961e+00
    2.7950781250e+02    3.0114400387e+00
    2.7960778809e+02    3.0047800541e+00
    2.7970773315e+02    2.9980900288e+00
    2.7980776978e+02    2.9913599491e+00
    2.7990774536e+02    2.9845900536e+00
    2.8000778198e+02    2.9777801037e+00
    2.8010775757e+02    2.9709401131e+00
    2.8020779419e+02    2.9640600681e+00
    2.8030767822e+02    2.9571499825e+00
    2.8040780640e+02    2.9501900673e+00
    2.8050784302e+02    2.9432001114e+00
    2.8060775757e+02    2.9361801147e+00
    2.8070785522e+02    2.9291100502e+00
    2.8080780029e+02    2.9220099449e+00
    2.8090774536e+02    2.9148800373e+00
    2.8100790405e+02    2.9077000618e+00
    2.8110791016e+02    2.9004900455e+00
    2.8120773315e+02    2.8932600021e+00
    2.8130786133e+02    2.8859701157e+00
    2.8140789795e+02    2.8786299229e+00
    2.8150775146e+02    2.8712699413e+00
    2.8160781860e+02    2.8638501167e+00
    2.8170776367e+02    2.8564000130e+00
    2.8180780029e+02    2.8489100933e+00
    2.8190792847e+02    2.8413798809e+00
    2.8200796509e+02    2.8338301182e+00
    2.8210791016e+02    2.8262600899e+00
    2.8220794678e+02    2.8186600208e+00
    2.8230780029e+02    2.8110499382e+00
    2.8240792847e+02    2.8034000397e+00
    2.8250793457e+02    2.7957301140e+00
    2.8260791016e+02    2.7880499363e+00
    2.8270791626e+02    2.7803499699e+00
    2.8280786133e+02    2.7726299763e+00
    2.8290783691e+02    2.7648999691e+00
    2.8300793457e+02    2.7571399212e+00
    2.8310803223e+02    2.7493600845e+00
    2.8320788574e+02    2.7416000366e+00
    2.8330786133e+02    2.7338299751e+00
    2.8340789795e+02    2.7260599136e+00
    2.8350793457e+02    2.7182800770e+00
    2.8360806274e+02    2.7104899883e+00
    2.8370791626e+02    2.7027199268e+00
    2.8380801392e+02    2.6949200630e+00
    2.8390805054e+02    2.6871199608e+00
    2.8400793457e+02    2.6793100834e+00
    2.8410812378e+02    2.6714699268e+00
    2.8420800781e+02    2.6636300087e+00
    2.8430810547e+02    2.6557600498e+00
    2.8440805054e+02    2.6479001045e+00
    2.8450796509e+02    2.6400198936e+00
    2.8460794067e+02    2.6321198940e+00
    2.8470803833e+02    2.6242001057e+00
    2.8480801392e+02    2.6162700653e+00
    2.8490808105e+02    2.6083300114e+00
    2.8500805664e+02    2.6003799438e+00
    2.8510797119e+02    2.5924100876e+00
    2.8520797729e+02    2.5844199657e+00
    2.8530807495e+02    2.5764100552e+00
    2.8540808105e+02    2.5683801174e+00
    2.8550808716e+02    2.5603199005e+00
    2.8560815430e+02    2.5522398949e+00
    2.8570809937e+02    2.5441501141e+00
    2.8580807495e+02    2.5360300541e+00
    2.8590811157e+02    2.5278899670e+00
    2.8600805664e+02    2.5197300911e+00
    2.8610815430e+02    2.5115299225e+00
    2.8620803833e+02    2.5033199787e+00
    2.8630813599e+02    2.4950699806e+00
    2.8640817261e+02    2.4867999554e+00
    2.8650808716e+02    2.4785099030e+00
    2.8660806274e+02    2.4702000618e+00
    2.8670806885e+02    2.4618599415e+00
    2.8680810547e+02    2.4534900188e+00
    2.8690823364e+02    2.4450800419e+00
    2.8700811768e+02    2.4366800785e+00
    2.8710818481e+02    2.4282300472e+00
    2.8720822144e+02    2.4197700024e+00
    2.8730810547e+02    2.4112899303e+00
    2.8740820312e+02    2.4027900696e+00
    2.8750833130e+02    2.3942599297e+00
    2.8760818481e+02    2.3857400417e+00
    2.8770831299e+02    2.3771901131e+00
    2.8780822754e+02    2.3686399460e+00
    2.8790814209e+02    2.3600800037e+00
    2.8800827026e+02    2.3515100479e+00
    2.8810815430e+02    2.3429400921e+00
    2.8820828247e+02    2.3343501091e+00
    2.8830819702e+02    2.3257699013e+00
    2.8840832520e+02    2.3171598911e+00
    2.8850827026e+02    2.3085598946e+00
    2.8860818481e+02    2.2999498844e+00
    2.8870834351e+02    2.2913100719e+00
    2.8880822754e+02    2.2826800346e+00
    2.8890838623e+02    2.2740199566e+00
    2.8900830078e+02    2.2653698921e+00
    2.8910824585e+02    2.2567000389e+00
    2.8920840454e+02    2.2480099201e+00
    2.8930831909e+02    2.2393300533e+00
    2.8940823364e+02    2.2306399345e+00
    2.8950839233e+02    2.2219200134e+00
    2.8960830688e+02    2.2132000923e+00
    2.8970846558e+02    2.2044498920e+00
    2.8980834961e+02    2.1957099438e+00
    2.8990829468e+02    2.1869399548e+00
    2.9000836182e+02    2.1781499386e+00
    2.9010833740e+02    2.1693398952e+00
    2.9020840454e+02    2.1605100632e+00
    2.9030841064e+02    2.1516599655e+00
    2.9040832520e+02    2.1428000927e+00
    2.9050845337e+02    2.1338999271e+00
    2.9060827637e+02    2.1250100136e+00
    2.9070840454e+02    2.1160700321e+00
    2.9080834961e+02    2.1071100235e+00
    2.9090835571e+02    2.0981299877e+00
    2.9100851440e+02    2.0891199112e+00
    2.9110842896e+02    2.0800900459e+00
    2.9120846558e+02    2.0710299015e+00
    2.9130847168e+02    2.0619399548e+00
    2.9140844727e+02    2.0528099537e+00
    2.9150842285e+02    2.0436499119e+00
    2.9160839844e+02    2.0344400406e+00
    2.9170843506e+02    2.0251998901e+00
    2.9180853271e+02    2.0159199238e+00
    2.9190841675e+02    2.0066399574e+00
    2.9200839233e+02    1.9973299503e+00
    2.9210852051e+02    1.9880000353e+00
    2.9220852661e+02    1.9786599874e+00
    2.9230844116e+02    1.9693200588e+00
    2.9240863037e+02    1.9599399567e+00
    2.9250854492e+02    1.9505800009e+00
    2.9260845947e+02    1.9412100315e+00
    2.9270864868e+02    1.9318100214e+00
    2.9280862427e+02    1.9224300385e+00
    2.9290859985e+02    1.9130500555e+00
    2.9300851440e+02    1.9036699533e+00
    2.9310848999e+02    1.8942999840e+00
    2.9320849609e+02    1.8849400282e+00
    2.9330847168e+02    1.8755999804e+00
    2.9340853882e+02    1.8662699461e+00
    2.9350866699e+02    1.8569600582e+00
    2.9360855103e+02    1.8476999998e+00
    2.9370861816e+02    1.8384399414e+00
    2.9380853271e+02    1.8292000294e+00
    2.9390853882e+02    1.8199800253e+00
    2.9400866699e+02    1.8107500076e+00
    2.9410858154e+02    1.8015500307e+00
    2.9420864868e+02    1.7923500538e+00
    2.9430865479e+02    1.7831599712e+00
    2.9440856934e+02    1.7740000486e+00
    2.9450872803e+02    1.7648199797e+00
    2.9460861206e+02    1.7556799650e+00
    2.9470855713e+02    1.7465499640e+00
    2.9480856323e+02    1.7374199629e+00
    2.9490869141e+02    1.7282899618e+00
    2.9500866699e+02    1.7191900015e+00
    2.9510858154e+02    1.7101099491e+00
    2.9520877075e+02    1.7009999752e+00
    2.9530877686e+02    1.6919200420e+00
    2.9540869141e+02    1.6828399897e+00
    2.9550872803e+02    1.6737600565e+00
    2.9560864258e+02    1.6646800041e+00
    2.9570877075e+02    1.6555900574e+00
    2.9580877686e+02    1.6464999914e+00
    2.9590866089e+02    1.6374200583e+00
    2.9600863647e+02    1.6283299923e+00
    2.9610879517e+02    1.6192100048e+00
    2.9620883179e+02    1.6100900173e+00
    2.9630868530e+02    1.6009800434e+00
    2.9640875244e+02    1.5918400288e+00
    2.9650881958e+02    1.5826900005e+00
    2.9660870361e+02    1.5735499859e+00
    2.9670880127e+02    1.5643700361e+00
    2.9680868530e+02    1.5552099943e+00
    2.9690878296e+02    1.5460200310e+00
    2.9700872803e+02    1.5368299484e+00
    2.9710888672e+02    1.5276099443e+00
    2.9720883179e+02    1.5183999538e+00
    2.9730877686e+02    1.5091899633e+00
    2.9740884399e+02    1.4999599457e+00
    2.9750878906e+02    1.4907499552e+00
    2.9760891724e+02    1.4815200567e+00
    2.9770877075e+02    1.4723199606e+00
    2.9780892944e+02    1.4630999565e+00
    2.9790890503e+02    1.4539200068e+00
    2.9800891113e+02    1.4447400570e+00
    2.9810876465e+02    1.4356000423e+00
    2.9820877075e+02    1.4264600277e+00
    2.9830877686e+02    1.4173400402e+00
    2.9840884399e+02    1.4082200527e+00
    2.9850891113e+02    1.3991199732e+00
    2.9860897827e+02    1.3900300264e+00
    2.9870892334e+02    1.3809700012e+00
    2.9880880737e+02    1.3719199896e+00
    2.9890884399e+02    1.3628699780e+00
    2.9900900269e+02    1.3538299799e+00
    2.9910882568e+02    1.3448300362e+00
    2.9920892334e+02    1.3358199596e+00
    2.9930899048e+02    1.3268300295e+00
    2.9940893555e+02    1.3178700209e+00
    2.9950900269e+02    1.3089100122e+00
    2.9960900879e+02    1.2999700308e+00
    2.9970889282e+02    1.2910499573e+00
    2.9980902100e+02    1.2821199894e+00
    2.9990893555e+02    1.2732199430e+00
endcurve
