Curveplot
LS-DYNA keyword deck by LS-PrePost
Abscissa
Ordinate
XY data
CHOP_EAMX_mo-1 #pts=3000
* Minval=    -3.4750061035e+00 at time=       266.3068237305
* Maxval=     1.1269004822e+01 at time=       164.6006317139
    0.0000000000e+00    0.0000000000e+00
    9.9971257150e-02    1.5628499677e-03
    1.9997157156e-01    3.1261427794e-03
    2.9983949661e-01    4.6873684041e-03
    3.9980411530e-01    6.2501467764e-03
    4.9986100197e-01    7.8145079315e-03
    5.9982681274e-01    9.3764979392e-03
    6.9986909628e-01    1.0941199958e-02
    7.9996424913e-01    1.2508670799e-02
    8.9999699593e-01    1.4073250815e-02
    9.9983048439e-01    1.5630891547e-02
    1.0998057127e+00    1.7188537866e-02
    1.1997965574e+00    1.8745763227e-02
    1.2998238802e+00    2.0305357873e-02
    1.3998663425e+00    2.1868944168e-02
    1.4999084473e+00    2.3436820135e-02
    1.5998848677e+00    2.5007521734e-02
    1.6998517513e+00    2.6582043618e-02
    1.7998569012e+00    2.8159949929e-02
    1.8999532461e+00    2.9742173851e-02
    1.9998379946e+00    3.1322933733e-02
    2.0999476910e+00    3.2906677574e-02
    2.1999177933e+00    3.4486651421e-02
    2.2999169827e+00    3.6066010594e-02
    2.3998513222e+00    3.7642046809e-02
    2.4999043941e+00    3.9215132594e-02
    2.5998687744e+00    4.0780670941e-02
    2.6998603344e+00    4.2339969426e-02
    2.7999703884e+00    4.3894413859e-02
    2.8998289108e+00    4.5439537615e-02
    2.9999125004e+00    4.6982426196e-02
    3.0998518467e+00    4.8516254872e-02
    3.1999235153e+00    5.0043366849e-02
    3.2998852730e+00    5.1557682455e-02
    3.3999664783e+00    5.3062122315e-02
    3.4999496937e+00    5.4553985596e-02
    3.5999453068e+00    5.6035164744e-02
    3.6998658180e+00    5.7504031807e-02
    3.7998898029e+00    5.8964461088e-02
    3.8998456001e+00    6.0415353626e-02
    3.9997999668e+00    6.1857748777e-02
    4.0997948647e+00    6.3292481005e-02
    4.1999564171e+00    6.4721755683e-02
    4.2998638153e+00    6.6140219569e-02
    4.3998351097e+00    6.7552700639e-02
    4.4997935295e+00    6.8958640099e-02
    4.5999145508e+00    7.0360280573e-02
    4.6998620033e+00    7.1752160788e-02
    4.7999286652e+00    7.3136597872e-02
    4.8998680115e+00    7.4508450925e-02
    4.9999794960e+00    7.5871989131e-02
    5.0997986794e+00    7.7221602201e-02
    5.1997833252e+00    7.8563906252e-02
    5.2998895645e+00    7.9899050295e-02
    5.3998904228e+00    8.1225007772e-02
    5.4997935295e+00    8.2542240620e-02
    5.5999422073e+00    8.3854876459e-02
    5.6997799873e+00    8.5155345500e-02
    5.7998991013e+00    8.6451545358e-02
    5.8999552727e+00    8.7739348412e-02
    5.9998483658e+00    8.9017629623e-02
    6.0998144150e+00    9.0290553868e-02
    6.1999297142e+00    9.1559298337e-02
    6.2999696732e+00    9.2820771039e-02
    6.3998751640e+00    9.4073586166e-02
    6.4998874664e+00    9.5321848989e-02
    6.5999126434e+00    9.6562907100e-02
    6.6999530792e+00    9.7799584270e-02
    6.7997941971e+00    9.9029161036e-02
    6.8999919891e+00    1.0025893897e-01
    6.9999003410e+00    1.0147949308e-01
    7.0998325348e+00    1.0269685835e-01
    7.1999907494e+00    1.0390847176e-01
    7.2999491692e+00    1.0511048138e-01
    7.3997888565e+00    1.0630124062e-01
    7.4999084473e+00    1.0748471320e-01
    7.5999560356e+00    1.0865680128e-01
    7.6998777390e+00    1.0981609672e-01
    7.7999305725e+00    1.1096499860e-01
    7.8999834061e+00    1.1210109293e-01
    7.9997878075e+00    1.1322170496e-01
    8.0999040604e+00    1.1433140188e-01
    8.1998615265e+00    1.1542569846e-01
    8.2998313904e+00    1.1650839448e-01
    8.3999738693e+00    1.1758060753e-01
    8.4998607635e+00    1.1863620579e-01
    8.5999755859e+00    1.1968199909e-01
    8.6999568939e+00    1.2071380019e-01
    8.7998018265e+00    1.2173129618e-01
    8.8997955322e+00    1.2273699045e-01
    8.9999752045e+00    1.2372980267e-01
    9.0999126434e+00    1.2470670044e-01
    9.1999273300e+00    1.2567129731e-01
    9.2998275757e+00    1.2662409246e-01
    9.3998746872e+00    1.2756618857e-01
    9.4999370575e+00    1.2849670649e-01
    9.5998249054e+00    1.2941139936e-01
    9.6999921799e+00    1.3031700253e-01
    9.7999610901e+00    1.3120839000e-01
    9.8998632431e+00    1.3208729029e-01
    9.9998216629e+00    1.3295368850e-01
    1.0099919319e+01    1.3629649580e-01
    1.0199834824e+01    1.3962459564e-01
    1.0299937248e+01    1.4294490218e-01
    1.0399831772e+01    1.4624570310e-01
    1.0499958038e+01    1.4954239130e-01
    1.0599818230e+01    1.5281510353e-01
    1.0700003624e+01    1.5608960390e-01
    1.0799938202e+01    1.5934909880e-01
    1.0899888992e+01    1.6259631515e-01
    1.0999879837e+01    1.6583050787e-01
    1.1099910736e+01    1.6905330122e-01
    1.1199938774e+01    1.7226499319e-01
    1.1299847603e+01    1.7546729743e-01
    1.1399874687e+01    1.7867030203e-01
    1.1499861717e+01    1.8187159300e-01
    1.1599894524e+01    1.8507330120e-01
    1.1699989319e+01    1.8827518821e-01
    1.1799953461e+01    1.9146789610e-01
    1.1899891853e+01    1.9465659559e-01
    1.2000000000e+01    1.9784501195e-01
    1.2099945068e+01    2.0101810992e-01
    1.2199983597e+01    2.0418289304e-01
    1.2299942017e+01    2.0733420551e-01
    1.2399961472e+01    2.1047380567e-01
    1.2499838829e+01    2.1359169483e-01
    1.2599983215e+01    2.1669819951e-01
    1.2699993134e+01    2.1977899969e-01
    1.2799806595e+01    2.2283101082e-01
    1.2899923325e+01    2.2587060928e-01
    1.2999868393e+01    2.2888308764e-01
    1.3099847794e+01    2.3187309504e-01
    1.3200003624e+01    2.3484410346e-01
    1.3299923897e+01    2.3777841032e-01
    1.3399838448e+01    2.4068211019e-01
    1.3499816895e+01    2.4355740845e-01
    1.3599921227e+01    2.4640810490e-01
    1.3699827194e+01    2.4922369421e-01
    1.3799995422e+01    2.5201991200e-01
    1.3899859428e+01    2.5478279591e-01
    1.3999837875e+01    2.5752377510e-01
    1.4099941254e+01    2.6024550200e-01
    1.4199989319e+01    2.6294118166e-01
    1.4299903870e+01    2.6561069489e-01
    1.4399898529e+01    2.6825940609e-01
    1.4499859810e+01    2.7088519931e-01
    1.4599869728e+01    2.7349010110e-01
    1.4699887276e+01    2.7607142925e-01
    1.4799889565e+01    2.7862882614e-01
    1.4899987221e+01    2.8116038442e-01
    1.4999958992e+01    2.8366088867e-01
    1.5099836349e+01    2.8613311052e-01
    1.5199943542e+01    2.8858441114e-01
    1.5300018311e+01    2.9101219773e-01
    1.5399898529e+01    2.9341170192e-01
    1.5499902725e+01    2.9579347372e-01
    1.5599830627e+01    2.9815077782e-01
    1.5699997902e+01    3.0049210787e-01
    1.5799925804e+01    3.0280682445e-01
    1.5899937630e+01    3.0510410666e-01
    1.5999978065e+01    3.0738300085e-01
    1.6099813461e+01    3.0964061618e-01
    1.6199831009e+01    3.1188651919e-01
    1.6299974442e+01    3.1412053108e-01
    1.6399808884e+01    3.1633210182e-01
    1.6499980927e+01    3.1853699684e-01
    1.6599952698e+01    3.2072198391e-01
    1.6700012207e+01    3.2289600372e-01
    1.6799825668e+01    3.2504901290e-01
    1.6899862289e+01    3.2719600201e-01
    1.6999843597e+01    3.2932999730e-01
    1.7099895477e+01    3.3144998550e-01
    1.7199947357e+01    3.3355298638e-01
    1.7300010681e+01    3.3563697338e-01
    1.7399953842e+01    3.3769899607e-01
    1.7500017166e+01    3.3974000812e-01
    1.7599971771e+01    3.4175699949e-01
    1.7699850082e+01    3.4374701977e-01
    1.7799871445e+01    3.4571701288e-01
    1.7899984360e+01    3.4766197205e-01
    1.7999977112e+01    3.4957700968e-01
    1.8099954605e+01    3.5146498680e-01
    1.8199918747e+01    3.5332399607e-01
    1.8299877167e+01    3.5515701771e-01
    1.8399894714e+01    3.5696399212e-01
    1.8499883652e+01    3.5874298215e-01
    1.8599895477e+01    3.6049798131e-01
    1.8699947357e+01    3.6222797632e-01
    1.8799995422e+01    3.6392998695e-01
    1.8899908066e+01    3.6560499668e-01
    1.8999912262e+01    3.6725398898e-01
    1.9099878311e+01    3.6887603998e-01
    1.9199895859e+01    3.7047401071e-01
    1.9299985886e+01    3.7204897404e-01
    1.9399915695e+01    3.7359601259e-01
    1.9499938965e+01    3.7511900067e-01
    1.9599990845e+01    3.7661701441e-01
    1.9699922562e+01    3.7808796763e-01
    1.9799840927e+01    3.7953299284e-01
    1.9899946213e+01    3.8095599413e-01
    1.9999959946e+01    3.8235402107e-01
    2.0100019455e+01    3.8642001152e-01
    2.0199895859e+01    3.9045497775e-01
    2.0299819946e+01    3.9446800947e-01
    2.0400011063e+01    3.9846700430e-01
    2.0500034332e+01    4.0243700147e-01
    2.0599992752e+01    4.0637999773e-01
    2.0699909210e+01    4.1030198336e-01
    2.0800039291e+01    4.1421800852e-01
    2.0899879456e+01    4.1810303926e-01
    2.0999946594e+01    4.2197400331e-01
    2.1099977493e+01    4.2582499981e-01
    2.1199871063e+01    4.2965596914e-01
    2.1299833298e+01    4.3347704411e-01
    2.1399942398e+01    4.3729802966e-01
    2.1500043869e+01    4.4111302495e-01
    2.1599878311e+01    4.4491502643e-01
    2.1700033188e+01    4.4872400165e-01
    2.1799928665e+01    4.5251500607e-01
    2.1899951935e+01    4.5630300045e-01
    2.1999855042e+01    4.6007597446e-01
    2.2099929810e+01    4.6384200454e-01
    2.2199851990e+01    4.6758502722e-01
    2.2299959183e+01    4.7131901979e-01
    2.2399913788e+01    4.7502800822e-01
    2.2499876022e+01    4.7871601582e-01
    2.2599878311e+01    4.8237997293e-01
    2.2699953079e+01    4.8601698875e-01
    2.2800016403e+01    4.8962402344e-01
    2.2899847031e+01    4.9319502711e-01
    2.2999860764e+01    4.9674299359e-01
    2.3099845886e+01    5.0025796890e-01
    2.3199947357e+01    5.0374698639e-01
    2.3300029755e+01    5.0719803572e-01
    2.3399887085e+01    5.1060402393e-01
    2.3499977112e+01    5.1397997141e-01
    2.3599868774e+01    5.1731503010e-01
    2.3699998856e+01    5.2061998844e-01
    2.3799953461e+01    5.2388799191e-01
    2.3899904251e+01    5.2712404728e-01
    2.3999948502e+01    5.3033101559e-01
    2.4099872589e+01    5.3350502253e-01
    2.4199996948e+01    5.3665494919e-01
    2.4299957275e+01    5.3977096081e-01
    2.4400026321e+01    5.4286098480e-01
    2.4499980927e+01    5.4591798782e-01
    2.4599922180e+01    5.4894602299e-01
    2.4699985504e+01    5.5194699764e-01
    2.4799831390e+01    5.5491197109e-01
    2.4900058746e+01    5.5785501003e-01
    2.4999998093e+01    5.6075704098e-01
    2.5100049973e+01    5.6362801790e-01
    2.5199964523e+01    5.6646502018e-01
    2.5299905777e+01    5.6927400827e-01
    2.5399843216e+01    5.7205605507e-01
    2.5499858856e+01    5.7481300831e-01
    2.5600000381e+01    5.7755100727e-01
    2.5700012207e+01    5.8025896549e-01
    2.5800022125e+01    5.8294498920e-01
    2.5900035858e+01    5.8561098576e-01
    2.5999860764e+01    5.8825099468e-01
    2.6100000381e+01    5.9088301659e-01
    2.6199943542e+01    5.9349405766e-01
    2.6300024033e+01    5.9609496593e-01
    2.6400058746e+01    5.9868198633e-01
    2.6499961853e+01    6.0125195980e-01
    2.6599887848e+01    6.0380697250e-01
    2.6699939728e+01    6.0635894537e-01
    2.6800029755e+01    6.0889708996e-01
    2.6899930954e+01    6.1142098904e-01
    2.6999984741e+01    6.1393904686e-01
    2.7099874496e+01    6.1643099785e-01
    2.7199977875e+01    6.1891996861e-01
    2.7300050735e+01    6.2139093876e-01
    2.7399965286e+01    6.2384003401e-01
    2.7499931335e+01    6.2626504898e-01
    2.7599922180e+01    6.2866795063e-01
    2.7699968338e+01    6.3105398417e-01
    2.7799972534e+01    6.3340795040e-01
    2.7899881363e+01    6.3574004173e-01
    2.8000001907e+01    6.3804602623e-01
    2.8099903107e+01    6.4032399654e-01
    2.8200061798e+01    6.4258301258e-01
    2.8300027847e+01    6.4480400085e-01
    2.8399848938e+01    6.4699494839e-01
    2.8499996185e+01    6.4916408062e-01
    2.8599878311e+01    6.5131002665e-01
    2.8699928284e+01    6.5343403816e-01
    2.8799922943e+01    6.5552598238e-01
    2.8899953842e+01    6.5759795904e-01
    2.8999998093e+01    6.5963393450e-01
    2.9099895477e+01    6.6165006161e-01
    2.9200056076e+01    6.6363805532e-01
    2.9299957275e+01    6.6560399532e-01
    2.9399951935e+01    6.6754096746e-01
    2.9499929428e+01    6.6946297884e-01
    2.9599899292e+01    6.7134904861e-01
    2.9699974060e+01    6.7321503162e-01
    2.9799854279e+01    6.7504602671e-01
    2.9900075912e+01    6.7686498165e-01
    3.0000061035e+01    6.7866098881e-01
    3.0099876404e+01    6.8639093637e-01
    3.0200061798e+01    6.9413000345e-01
    3.0300052643e+01    7.0183598995e-01
    3.0400020599e+01    7.0950996876e-01
    3.0499977112e+01    7.1717399359e-01
    3.0600040436e+01    7.2480797768e-01
    3.0699951172e+01    7.3242694139e-01
    3.0799909592e+01    7.4003493786e-01
    3.0899894714e+01    7.4763095379e-01
    3.1000030518e+01    7.5520396233e-01
    3.1099969864e+01    7.6274698973e-01
    3.1200069427e+01    7.7029097080e-01
    3.1299901962e+01    7.7781593800e-01
    3.1399974823e+01    7.8536599874e-01
    3.1500015259e+01    7.9291599989e-01
    3.1599910736e+01    8.0046397448e-01
    3.1699909210e+01    8.0803495646e-01
    3.1800012589e+01    8.1561493874e-01
    3.1900062561e+01    8.2320100069e-01
    3.1999864578e+01    8.3075994253e-01
    3.2099925995e+01    8.3833497763e-01
    3.2200077057e+01    8.4588998556e-01
    3.2299915314e+01    8.5341793299e-01
    3.2399955750e+01    8.6093693972e-01
    3.2499919891e+01    8.6843198538e-01
    3.2600017548e+01    8.7589597702e-01
    3.2699851990e+01    8.8329702616e-01
    3.2799995422e+01    8.9069294930e-01
    3.2899856567e+01    8.9802795649e-01
    3.3000007629e+01    9.0534996986e-01
    3.3099979401e+01    9.1260993481e-01
    3.3200016022e+01    9.1983097792e-01
    3.3299987793e+01    9.2699998617e-01
    3.3399864197e+01    9.3409603834e-01
    3.3499961853e+01    9.4115293026e-01
    3.3599975586e+01    9.4814997911e-01
    3.3700000763e+01    9.5509094000e-01
    3.3799991608e+01    9.6198195219e-01
    3.3900009155e+01    9.6882593632e-01
    3.4000007629e+01    9.7562599182e-01
    3.4099880219e+01    9.8236995935e-01
    3.4200004578e+01    9.8908495903e-01
    3.4299964905e+01    9.9575793743e-01
    3.4399917603e+01    1.0023798943e+00
    3.4499828339e+01    1.0089540482e+00
    3.4599933624e+01    1.0155049562e+00
    3.4699954987e+01    1.0220179558e+00
    3.4799873352e+01    1.0284590721e+00
    3.4899955750e+01    1.0348669291e+00
    3.4999908447e+01    1.0412100554e+00
    3.5099910736e+01    1.0475080013e+00
    3.5199901581e+01    1.0537569523e+00
    3.5299911499e+01    1.0599619150e+00
    3.5399845123e+01    1.0661200285e+00
    3.5499839783e+01    1.0722360611e+00
    3.5599937439e+01    1.0783270597e+00
    3.5699993134e+01    1.0843819380e+00
    3.5799934387e+01    1.0903890133e+00
    3.5899810791e+01    1.0963571072e+00
    3.5999977112e+01    1.1023149490e+00
    3.6099861145e+01    1.1082251072e+00
    3.6200016022e+01    1.1141339540e+00
    3.6299839020e+01    1.1200040579e+00
    3.6399993896e+01    1.1258579493e+00
    3.6499908447e+01    1.1316870451e+00
    3.6599979401e+01    1.1375038624e+00
    3.6699825287e+01    1.1432880163e+00
    3.6799823761e+01    1.1490539312e+00
    3.6899974823e+01    1.1548221111e+00
    3.6999916077e+01    1.1605589390e+00
    3.7099925995e+01    1.1662831306e+00
    3.7199920654e+01    1.1719819307e+00
    3.7299957275e+01    1.1776471138e+00
    3.7399879456e+01    1.1832728386e+00
    3.7499877930e+01    1.1888600588e+00
    3.7599975586e+01    1.1944199800e+00
    3.7699924469e+01    1.1999200583e+00
    3.7799831390e+01    1.2053699493e+00
    3.7899868011e+01    1.2107800245e+00
    3.7999893188e+01    1.2161399126e+00
    3.8099914551e+01    1.2214500904e+00
    3.8199794769e+01    1.2266899347e+00
    3.8299816132e+01    1.2318900824e+00
    3.8399826050e+01    1.2370399237e+00
    3.8499778748e+01    1.2421400547e+00
    3.8599788666e+01    1.2471798658e+00
    3.8699916840e+01    1.2522000074e+00
    3.8799854279e+01    1.2571399212e+00
    3.8899909973e+01    1.2620300055e+00
    3.8999935150e+01    1.2668699026e+00
    3.9099838257e+01    1.2716500759e+00
    3.9199783325e+01    1.2763799429e+00
    3.9299758911e+01    1.2810499668e+00
    3.9399883270e+01    1.2856999636e+00
    3.9499965668e+01    1.2902801037e+00
    3.9599819183e+01    1.2947999239e+00
    3.9699924469e+01    1.2992800474e+00
    3.9799835205e+01    1.3036899567e+00
    3.9899757385e+01    1.3080600500e+00
    3.9999778748e+01    1.3123798370e+00
    4.0099807739e+01    1.3244301081e+00
    4.0199932098e+01    1.3364400864e+00
    4.0299900055e+01    1.3483901024e+00
    4.0399944305e+01    1.3602900505e+00
    4.0499847412e+01    1.3721299171e+00
    4.0599800110e+01    1.3839199543e+00
    4.0699798584e+01    1.3956898451e+00
    4.0799919128e+01    1.4074301720e+00
    4.0899780273e+01    1.4191100597e+00
    4.0999797821e+01    1.4307500124e+00
    4.1099735260e+01    1.4423400164e+00
    4.1199829102e+01    1.4539200068e+00
    4.1299777985e+01    1.4654499292e+00
    4.1399822235e+01    1.4769998789e+00
    4.1499774933e+01    1.4885200262e+00
    4.1599792480e+01    1.5000600815e+00
    4.1699855804e+01    1.5116000175e+00
    4.1799743652e+01    1.5231000185e+00
    4.1899883270e+01    1.5346199274e+00
    4.1999763489e+01    1.5460898876e+00
    4.2099826813e+01    1.5575499535e+00
    4.2199840546e+01    1.5689700842e+00
    4.2299713135e+01    1.5803400278e+00
    4.2399791718e+01    1.5916900635e+00
    4.2499843597e+01    1.6029800177e+00
    4.2599903107e+01    1.6141999960e+00
    4.2699798584e+01    1.6253398657e+00
    4.2799884796e+01    1.6364198923e+00
    4.2899871826e+01    1.6474101543e+00
    4.2999790192e+01    1.6583300829e+00
    4.3099830627e+01    1.6691900492e+00
    4.3199855804e+01    1.6799600124e+00
    4.3299774170e+01    1.6906199455e+00
    4.3399753571e+01    1.7011898756e+00
    4.3499862671e+01    1.7116699219e+00
    4.3599750519e+01    1.7220300436e+00
    4.3699890137e+01    1.7323300838e+00
    4.3799900055e+01    1.7425100803e+00
    4.3899784088e+01    1.7526099682e+00
    4.3999893188e+01    1.7626299858e+00
    4.4099800110e+01    1.7725598812e+00
    4.4199703217e+01    1.7824101448e+00
    4.4299705505e+01    1.7921800613e+00
    4.4399883270e+01    1.8018901348e+00
    4.4499885559e+01    1.8115000725e+00
    4.4599761963e+01    1.8210200071e+00
    4.4699752808e+01    1.8304699659e+00
    4.4799789429e+01    1.8398399353e+00
    4.4899738312e+01    1.8490998745e+00
    4.4999687195e+01    1.8582700491e+00
    4.5099723816e+01    1.8673400879e+00
    4.5199756622e+01    1.8763400316e+00
    4.5299682617e+01    1.8852399588e+00
    4.5399795532e+01    1.8940699100e+00
    4.5499702454e+01    1.9028098583e+00
    4.5599853516e+01    1.9114998579e+00
    4.5699703217e+01    1.9200900793e+00
    4.5799716949e+01    1.9286100864e+00
    4.5899711609e+01    1.9370700121e+00
    4.5999744415e+01    1.9454799891e+00
    4.6099735260e+01    1.9538199902e+00
    4.6199752808e+01    1.9621099234e+00
    4.6299736023e+01    1.9703599215e+00
    4.6399768829e+01    1.9785600901e+00
    4.6499744415e+01    1.9867000580e+00
    4.6599681854e+01    1.9947999716e+00
    4.6699802399e+01    2.0028600693e+00
    4.6799652100e+01    2.0108599663e+00
    4.6899806976e+01    2.0188498497e+00
    4.6999652863e+01    2.0267601013e+00
    4.7099697113e+01    2.0346500874e+00
    4.7199802399e+01    2.0424799919e+00
    4.7299671173e+01    2.0502400398e+00
    4.7399833679e+01    2.0579497814e+00
    4.7499713898e+01    2.0655598640e+00
    4.7599830627e+01    2.0731201172e+00
    4.7699699402e+01    2.0805797577e+00
    4.7799736023e+01    2.0879800320e+00
    4.7899791718e+01    2.0952799320e+00
    4.7999740601e+01    2.1024999619e+00
    4.8099731445e+01    2.1096103191e+00
    4.8199649811e+01    2.1166398525e+00
    4.8299701691e+01    2.1235802174e+00
    4.8399677277e+01    2.1304199696e+00
    4.8499656677e+01    2.1371800900e+00
    4.8599678040e+01    2.1438498497e+00
    4.8699718475e+01    2.1504399776e+00
    4.8799751282e+01    2.1569302082e+00
    4.8899623871e+01    2.1633298397e+00
    4.8999767303e+01    2.1696400642e+00
    4.9099685669e+01    2.1758499146e+00
    4.9199615479e+01    2.1819701195e+00
    4.9299808502e+01    2.1880197525e+00
    4.9399639130e+01    2.1939599514e+00
    4.9499610901e+01    2.1998202801e+00
    4.9599811554e+01    2.2055900097e+00
    4.9699596405e+01    2.2112500668e+00
    4.9799747467e+01    2.2168397903e+00
    4.9899719238e+01    2.2223300934e+00
    4.9999626160e+01    2.2277197838e+00
    5.0099685669e+01    2.2426102161e+00
    5.0199676514e+01    2.2574300766e+00
    5.0299667358e+01    2.2721698284e+00
    5.0399646759e+01    2.2868096828e+00
    5.0499629974e+01    2.3013701439e+00
    5.0599639893e+01    2.3158500195e+00
    5.0699691772e+01    2.3302600384e+00
    5.0799648285e+01    2.3445997238e+00
    5.0899631500e+01    2.3588702679e+00
    5.0999614716e+01    2.3730599880e+00
    5.1099700928e+01    2.3872098923e+00
    5.1199695587e+01    2.4012699127e+00
    5.1299648285e+01    2.4152903557e+00
    5.1399738312e+01    2.4292900562e+00
    5.1499694824e+01    2.4432699680e+00
    5.1599666595e+01    2.4572298527e+00
    5.1699573517e+01    2.4711496830e+00
    5.1799713135e+01    2.4850702286e+00
    5.1899635315e+01    2.4989399910e+00
    5.1999603271e+01    2.5127699375e+00
    5.2099681854e+01    2.5265698433e+00
    5.2199657440e+01    2.5402801037e+00
    5.2299705505e+01    2.5539500713e+00
    5.2399719238e+01    2.5675399303e+00
    5.2499656677e+01    2.5810399055e+00
    5.2599555969e+01    2.5944302082e+00
    5.2699668884e+01    2.6077501774e+00
    5.2799690247e+01    2.6209399700e+00
    5.2899730682e+01    2.6340398788e+00
    5.2999561310e+01    2.6470098495e+00
    5.3099609375e+01    2.6598801613e+00
    5.3199691772e+01    2.6726400852e+00
    5.3299663544e+01    2.6852600574e+00
    5.3399745941e+01    2.6977398396e+00
    5.3499675751e+01    2.7100701332e+00
    5.3599544525e+01    2.7222599983e+00
    5.3699661255e+01    2.7343499660e+00
    5.3799629211e+01    2.7462899685e+00
    5.3899635315e+01    2.7581098080e+00
    5.3999565125e+01    2.7698101997e+00
    5.4099536896e+01    2.7813899517e+00
    5.4199623108e+01    2.7928698063e+00
    5.4299598694e+01    2.8042197227e+00
    5.4399536133e+01    2.8154501915e+00
    5.4499610901e+01    2.8265800476e+00
    5.4599662781e+01    2.8375899792e+00
    5.4699691772e+01    2.8484897614e+00
    5.4799571991e+01    2.8592503071e+00
    5.4899662018e+01    2.8698902130e+00
    5.4999626160e+01    2.8803899288e+00
    5.5099693298e+01    2.8907699585e+00
    5.5199710846e+01    2.9010298252e+00
    5.5299575806e+01    2.9111502171e+00
    5.5399593353e+01    2.9211699963e+00
    5.5499725342e+01    2.9310998917e+00
    5.5599666595e+01    2.9409098625e+00
    5.5699638367e+01    2.9506101608e+00
    5.5799564362e+01    2.9602200985e+00
    5.5899692535e+01    2.9697499275e+00
    5.5999519348e+01    2.9791798592e+00
    5.6099552155e+01    2.9885401726e+00
    5.6199508667e+01    2.9978201389e+00
    5.6299510956e+01    3.0070500374e+00
    5.6399520874e+01    3.0162098408e+00
    5.6499530792e+01    3.0253102779e+00
    5.6599666595e+01    3.0343501568e+00
    5.6699554443e+01    3.0433099270e+00
    5.6799636841e+01    3.0522298813e+00
    5.6899524689e+01    3.0610697269e+00
    5.6999656677e+01    3.0698802471e+00
    5.7099506378e+01    3.0786099434e+00
    5.7199676514e+01    3.0872800350e+00
    5.7299606323e+01    3.0958697796e+00
    5.7399631500e+01    3.1043603420e+00
    5.7499687195e+01    3.1127800941e+00
    5.7599567413e+01    3.1210799217e+00
    5.7699501038e+01    3.1292798519e+00
    5.7799549103e+01    3.1373801231e+00
    5.7899608612e+01    3.1453902721e+00
    5.7999618530e+01    3.1532599926e+00
    5.8099586487e+01    3.1610198021e+00
    5.8199668884e+01    3.1686699390e+00
    5.8299545288e+01    3.1761901379e+00
    5.8399646759e+01    3.1836202145e+00
    5.8499511719e+01    3.1909098625e+00
    5.8599620819e+01    3.1981098652e+00
    5.8699630737e+01    3.2052001953e+00
    5.8799545288e+01    3.2121601105e+00
    5.8899639130e+01    3.2190299034e+00
    5.8999530792e+01    3.2257499695e+00
    5.9099460602e+01    3.2323603630e+00
    5.9199504852e+01    3.2388701439e+00
    5.9299480438e+01    3.2452697754e+00
    5.9399562836e+01    3.2515597343e+00
    5.9499565125e+01    3.2577300072e+00
    5.9599658966e+01    3.2637801170e+00
    5.9699554443e+01    3.2697200775e+00
    5.9799472809e+01    3.2755298615e+00
    5.9899600983e+01    3.2812399864e+00
    5.9999465942e+01    3.2868399620e+00
    6.0099582672e+01    3.3035001755e+00
    6.0199554443e+01    3.3200998306e+00
    6.0299484253e+01    3.3365802765e+00
    6.0399536133e+01    3.3529701233e+00
    6.0499519348e+01    3.3692498207e+00
    6.0599563599e+01    3.3854298592e+00
    6.0699558258e+01    3.4015197754e+00
    6.0799499512e+01    3.4175300598e+00
    6.0899497986e+01    3.4334697723e+00
    6.0999469757e+01    3.4492998123e+00
    6.1099544525e+01    3.4650697708e+00
    6.1199432373e+01    3.4807400703e+00
    6.1299583435e+01    3.4964094162e+00
    6.1399444580e+01    3.5119996071e+00
    6.1499572754e+01    3.5276103020e+00
    6.1599548340e+01    3.5431799889e+00
    6.1699455261e+01    3.5587100983e+00
    6.1799560547e+01    3.5742402077e+00
    6.1899486542e+01    3.5897097588e+00
    6.1999435425e+01    3.6051397324e+00
    6.2099456787e+01    3.6205306053e+00
    6.2199558258e+01    3.6358504295e+00
    6.2299617767e+01    3.6510996819e+00
    6.2399425507e+01    3.6662302017e+00
    6.2499603271e+01    3.6813302040e+00
    6.2599567413e+01    3.6962699890e+00
    6.2699413300e+01    3.7110795975e+00
    6.2799507141e+01    3.7258200645e+00
    6.2899589539e+01    3.7404093742e+00
    6.2999412537e+01    3.7548499107e+00
    6.3099422455e+01    3.7691903114e+00
    6.3199455261e+01    3.7834000587e+00
    6.3299446106e+01    3.7974500656e+00
    6.3399456024e+01    3.8113403320e+00
    6.3499397278e+01    3.8250603676e+00
    6.3599533081e+01    3.8386502266e+00
    6.3699489594e+01    3.8520598412e+00
    6.3799480438e+01    3.8653297424e+00
    6.3899570465e+01    3.8784699440e+00
    6.3999572754e+01    3.8914699554e+00
    6.4099426270e+01    3.9043097496e+00
    6.4199584961e+01    3.9170503616e+00
    6.4299537659e+01    3.9296398163e+00
    6.4399421692e+01    3.9420800209e+00
    6.4499435425e+01    3.9544005394e+00
    6.4599548340e+01    3.9665999413e+00
    6.4699539185e+01    3.9786596298e+00
    6.4799568176e+01    3.9905796051e+00
    6.4899490356e+01    4.0023198128e+00
    6.4999450684e+01    4.0139303207e+00
    6.5099456787e+01    4.0253801346e+00
    6.5199470520e+01    4.0366897583e+00
    6.5299545288e+01    4.0478806496e+00
    6.5399368286e+01    4.0589098930e+00
    6.5499343872e+01    4.0698399544e+00
    6.5599479675e+01    4.0806598663e+00
    6.5699546814e+01    4.0913701057e+00
    6.5799415588e+01    4.1019396782e+00
    6.5899414062e+01    4.1124596596e+00
    6.5999420166e+01    4.1228203773e+00
    6.6099540710e+01    4.1331405640e+00
    6.6199424744e+01    4.1433701515e+00
    6.6299369812e+01    4.1535100937e+00
    6.6399436951e+01    4.1636400223e+00
    6.6499336243e+01    4.1736497879e+00
    6.6599365234e+01    4.1836595535e+00
    6.6699462891e+01    4.1934795380e+00
    6.6799446106e+01    4.2033796310e+00
    6.6899482727e+01    4.2130904198e+00
    6.6999427795e+01    4.2228803635e+00
    6.7099525452e+01    4.2324600220e+00
    6.7199378967e+01    4.2420496941e+00
    6.7299499512e+01    4.2515497208e+00
    6.7399513245e+01    4.2609996796e+00
    6.7499488831e+01    4.2702598572e+00
    6.7599449158e+01    4.2794103622e+00
    6.7699432373e+01    4.2885503769e+00
    6.7799400330e+01    4.2974700928e+00
    6.7899360657e+01    4.3062801361e+00
    6.7999481201e+01    4.3150100708e+00
    6.8099403381e+01    4.3235697746e+00
    6.8199508667e+01    4.3320498466e+00
    6.8299400330e+01    4.3403596878e+00
    6.8399353027e+01    4.3485302925e+00
    6.8499351501e+01    4.3566503525e+00
    6.8599487305e+01    4.3646101952e+00
    6.8699516296e+01    4.3723802567e+00
    6.8799362183e+01    4.3800797462e+00
    6.8899291992e+01    4.3876295090e+00
    6.8999465942e+01    4.3951597214e+00
    6.9099456787e+01    4.4024195671e+00
    6.9199325562e+01    4.4095802307e+00
    6.9299392700e+01    4.4166603088e+00
    6.9399482727e+01    4.4235000610e+00
    6.9499481201e+01    4.4303402901e+00
    6.9599464417e+01    4.4369497299e+00
    6.9699409485e+01    4.4434399605e+00
    6.9799278259e+01    4.4498295784e+00
    6.9899353027e+01    4.4561195374e+00
    6.9999443054e+01    4.4622702599e+00
    7.0099296570e+01    4.4792699814e+00
    7.0199432373e+01    4.4962496758e+00
    7.0299468994e+01    4.5131406784e+00
    7.0399482727e+01    4.5298099518e+00
    7.0499465942e+01    4.5464797020e+00
    7.0599403381e+01    4.5629506111e+00
    7.0699348450e+01    4.5793099403e+00
    7.0799446106e+01    4.5956397057e+00
    7.0899421692e+01    4.6118202209e+00
    7.0999412537e+01    4.6279902458e+00
    7.1099365234e+01    4.6439800262e+00
    7.1199287415e+01    4.6599202156e+00
    7.1299369812e+01    4.6758403778e+00
    7.1399360657e+01    4.6916599274e+00
    7.1499412537e+01    4.7075295448e+00
    7.1599433899e+01    4.7233805656e+00
    7.1699432373e+01    4.7391099930e+00
    7.1799446106e+01    4.7548999786e+00
    7.1899307251e+01    4.7705101967e+00
    7.1999305725e+01    4.7862200737e+00
    7.2099304199e+01    4.8017597198e+00
    7.2199462891e+01    4.8172702789e+00
    7.2299308777e+01    4.8327198029e+00
    7.2399261475e+01    4.8480396271e+00
    7.2499252319e+01    4.8633403778e+00
    7.2599418640e+01    4.8784599304e+00
    7.2699394226e+01    4.8934297562e+00
    7.2799438477e+01    4.9083309174e+00
    7.2899368286e+01    4.9230499268e+00
    7.2999374390e+01    4.9377002716e+00
    7.3099311829e+01    4.9521303177e+00
    7.3199356079e+01    4.9664802551e+00
    7.3299224854e+01    4.9805297852e+00
    7.3399345398e+01    4.9945106506e+00
    7.3499366760e+01    5.0083599091e+00
    7.3599327087e+01    5.0219602585e+00
    7.3699249268e+01    5.0354108810e+00
    7.3799324036e+01    5.0487403870e+00
    7.3899368286e+01    5.0619297028e+00
    7.3999382019e+01    5.0748796463e+00
    7.4099380493e+01    5.0877799988e+00
    7.4199363708e+01    5.1004400253e+00
    7.4299316406e+01    5.1129598618e+00
    7.4399253845e+01    5.1254405975e+00
    7.4499412537e+01    5.1376800537e+00
    7.4599296570e+01    5.1497793198e+00
    7.4699409485e+01    5.1617298126e+00
    7.4799354553e+01    5.1734905243e+00
    7.4899284363e+01    5.1850900650e+00
    7.4999206543e+01    5.1965208054e+00
    7.5099205017e+01    5.2077503204e+00
    7.5199317932e+01    5.2189798355e+00
    7.5299339294e+01    5.2298908234e+00
    7.5399337769e+01    5.2407598495e+00
    7.5499191284e+01    5.2513694763e+00
    7.5599342346e+01    5.2620096207e+00
    7.5699386597e+01    5.2723703384e+00
    7.5799392700e+01    5.2827196121e+00
    7.5899322510e+01    5.2928895950e+00
    7.5999389648e+01    5.3030004501e+00
    7.6099403381e+01    5.3129396439e+00
    7.6199203491e+01    5.3228797913e+00
    7.6299346924e+01    5.3326902390e+00
    7.6399261475e+01    5.3424301147e+00
    7.6499305725e+01    5.3520298004e+00
    7.6599304199e+01    5.3616704941e+00
    7.6699218750e+01    5.3711700439e+00
    7.6799270630e+01    5.3806495667e+00
    7.6899269104e+01    5.3899707794e+00
    7.6999343872e+01    5.3992900848e+00
    7.7099189758e+01    5.4084997177e+00
    7.7199188232e+01    5.4176006317e+00
    7.7299247742e+01    5.4267005920e+00
    7.7399238586e+01    5.4355993271e+00
    7.7499320984e+01    5.4444999695e+00
    7.7599205017e+01    5.4532003403e+00
    7.7699378967e+01    5.4616994858e+00
    7.7799186707e+01    5.4701995850e+00
    7.7899261475e+01    5.4786005020e+00
    7.7999320984e+01    5.4867000580e+00
    7.8099334717e+01    5.4946994781e+00
    7.8199234009e+01    5.5026006699e+00
    7.8299194336e+01    5.5103006363e+00
    7.8399345398e+01    5.5179004669e+00
    7.8499305725e+01    5.5255002975e+00
    7.8599227905e+01    5.5327987671e+00
    7.8699157715e+01    5.5398998260e+00
    7.8799179077e+01    5.5468997955e+00
    7.8899230957e+01    5.5537996292e+00
    7.8999183655e+01    5.5606002808e+00
    7.9099304199e+01    5.5671005249e+00
    7.9199295044e+01    5.5735998154e+00
    7.9299331665e+01    5.5799999237e+00
    7.9399345398e+01    5.5861005783e+00
    7.9499176025e+01    5.5920991898e+00
    7.9599327087e+01    5.5979003906e+00
    7.9699317932e+01    5.6034994125e+00
    7.9799293518e+01    5.6090993881e+00
    7.9899314880e+01    5.6145000458e+00
    7.9999259949e+01    5.6197004318e+00
    8.0099311829e+01    5.6365003586e+00
    8.0199172974e+01    5.6531000137e+00
    8.0299324036e+01    5.6697006226e+00
    8.0399116516e+01    5.6860990524e+00
    8.0499320984e+01    5.7023000717e+00
    8.0599327087e+01    5.7184991837e+00
    8.0699157715e+01    5.7344989777e+00
    8.0799247742e+01    5.7503004074e+00
    8.0899261475e+01    5.7660999298e+00
    8.0999305725e+01    5.7818002701e+00
    8.1099128723e+01    5.7973003387e+00
    8.1199234009e+01    5.8128004074e+00
    8.1299201965e+01    5.8281993866e+00
    8.1399314880e+01    5.8436002731e+00
    8.1499206543e+01    5.8589010239e+00
    8.1599288940e+01    5.8740997314e+00
    8.1699142456e+01    5.8893003464e+00
    8.1799148560e+01    5.9045000076e+00
    8.1899230957e+01    5.9196004868e+00
    8.1999237061e+01    5.9347000122e+00
    8.2099143982e+01    5.9496002197e+00
    8.2199150085e+01    5.9644994736e+00
    8.2299232483e+01    5.9793004990e+00
    8.2399261475e+01    5.9939994812e+00
    8.2499206543e+01    6.0085010529e+00
    8.2599227905e+01    6.0229005814e+00
    8.2699218750e+01    6.0371999741e+00
    8.2799079895e+01    6.0513000488e+00
    8.2899177551e+01    6.0651998520e+00
    8.2999290466e+01    6.0789995193e+00
    8.3099075317e+01    6.0927000046e+00
    8.3199264526e+01    6.1061010361e+00
    8.3299148560e+01    6.1193990707e+00
    8.3399276733e+01    6.1324996948e+00
    8.3499237061e+01    6.1453990936e+00
    8.3599136353e+01    6.1579990387e+00
    8.3699256897e+01    6.1704998016e+00
    8.3799087524e+01    6.1828002930e+00
    8.3899261475e+01    6.1950006485e+00
    8.3999275208e+01    6.2069005966e+00
    8.4099273682e+01    6.2186994553e+00
    8.4199188232e+01    6.2301998138e+00
    8.4299263000e+01    6.2417001724e+00
    8.4399230957e+01    6.2528009415e+00
    8.4499137878e+01    6.2638998032e+00
    8.4599258423e+01    6.2747993469e+00
    8.4699195862e+01    6.2854986191e+00
    8.4799247742e+01    6.2960004807e+00
    8.4899253845e+01    6.3063001633e+00
    8.4999198914e+01    6.3163995743e+00
    8.5099052429e+01    6.3262996674e+00
    8.5199050903e+01    6.3360013962e+00
    8.5299072266e+01    6.3456001282e+00
    8.5399154663e+01    6.3550004959e+00
    8.5499069214e+01    6.3640995026e+00
    8.5599258423e+01    6.3731994629e+00
    8.5699234009e+01    6.3820991516e+00
    8.5799194336e+01    6.3908004761e+00
    8.5899215698e+01    6.3993997574e+00
    8.5999221802e+01    6.4078998566e+00
    8.6099235535e+01    6.4162006378e+00
    8.6199050903e+01    6.4243993759e+00
    8.6299240112e+01    6.4326000214e+00
    8.6399192810e+01    6.4405994415e+00
    8.6499214172e+01    6.4485006332e+00
    8.6599220276e+01    6.4562997818e+00
    8.6699172974e+01    6.4640007019e+00
    8.6799232483e+01    6.4717006683e+00
    8.6899169922e+01    6.4790992737e+00
    8.6999031067e+01    6.4865989685e+00
    8.7099098206e+01    6.4940004349e+00
    8.7199157715e+01    6.5011997223e+00
    8.7299041748e+01    6.5081996918e+00
    8.7399177551e+01    6.5152006149e+00
    8.7499122620e+01    6.5220994949e+00
    8.7599082947e+01    6.5287990570e+00
    8.7699081421e+01    6.5353002548e+00
    8.7799179077e+01    6.5417003632e+00
    8.7899093628e+01    6.5478992462e+00
    8.7999046326e+01    6.5538997650e+00
    8.8099174500e+01    6.5598001480e+00
    8.8199073792e+01    6.5655002594e+00
    8.8299110413e+01    6.5710992813e+00
    8.8399017334e+01    6.5763988495e+00
    8.8499122620e+01    6.5816001892e+00
    8.8599021912e+01    6.5866003036e+00
    8.8699081421e+01    6.5913991928e+00
    8.8799148560e+01    6.5960998535e+00
    8.8899085999e+01    6.6006011963e+00
    8.8999099731e+01    6.6049003601e+00
    8.9099205017e+01    6.6090011597e+00
    8.9199028015e+01    6.6130008698e+00
    8.9299064636e+01    6.6168003082e+00
    8.9399162292e+01    6.6204013824e+00
    8.9499038696e+01    6.6238002777e+00
    8.9599075317e+01    6.6270008087e+00
    8.9699111938e+01    6.6299991608e+00
    8.9799064636e+01    6.6328983307e+00
    8.9899185181e+01    6.6355991364e+00
    8.9998992920e+01    6.6380996704e+00
    9.0099151611e+01    6.6547985077e+00
    9.0199119568e+01    6.6714992523e+00
    9.0299087524e+01    6.6878986359e+00
    9.0399124146e+01    6.7042007446e+00
    9.0498970032e+01    6.7203998566e+00
    9.0599006653e+01    6.7362995148e+00
    9.0699089050e+01    6.7522010803e+00
    9.0799148560e+01    6.7679004669e+00
    9.0899078369e+01    6.7835006714e+00
    9.0999145508e+01    6.7989006042e+00
    9.1099174500e+01    6.8140983582e+00
    9.1198959351e+01    6.8292999268e+00
    9.1299110413e+01    6.8444004059e+00
    9.1399162292e+01    6.8592987061e+00
    9.1499038696e+01    6.8743000031e+00
    9.1599006653e+01    6.8892002106e+00
    9.1698989868e+01    6.9040012360e+00
    9.1799064636e+01    6.9187011719e+00
    9.1899017334e+01    6.9333000183e+00
    9.1999015808e+01    6.9478988647e+00
    9.2099136353e+01    6.9624004364e+00
    9.2198966980e+01    6.9766998291e+00
    9.2299064636e+01    6.9910011292e+00
    9.2399040222e+01    7.0049991608e+00
    9.2499015808e+01    7.0188999176e+00
    9.2599029541e+01    7.0326004028e+00
    9.2698974609e+01    7.0462017059e+00
    9.2798995972e+01    7.0595989227e+00
    9.2899101257e+01    7.0727996826e+00
    9.2998962402e+01    7.0856990814e+00
    9.3099075317e+01    7.0986003876e+00
    9.3199119568e+01    7.1110992432e+00
    9.3299018860e+01    7.1235008240e+00
    9.3398986816e+01    7.1354999542e+00
    9.3499046326e+01    7.1473999023e+00
    9.3598922729e+01    7.1590003967e+00
    9.3699119568e+01    7.1703987122e+00
    9.3799003601e+01    7.1813983917e+00
    9.3898918152e+01    7.1923999786e+00
    9.3998939514e+01    7.2031002045e+00
    9.4098999023e+01    7.2134990692e+00
    9.4199104309e+01    7.2239017487e+00
    9.4299110413e+01    7.2339000702e+00
    9.4398994446e+01    7.2437000275e+00
    9.4499084473e+01    7.2532997131e+00
    9.4599082947e+01    7.2627010345e+00
    9.4698951721e+01    7.2718009949e+00
    9.4799072266e+01    7.2807998657e+00
    9.4898994446e+01    7.2894992828e+00
    9.4998962402e+01    7.2979011536e+00
    9.5098999023e+01    7.3062000275e+00
    9.5199066162e+01    7.3141994476e+00
    9.5298904419e+01    7.3219013214e+00
    9.5398895264e+01    7.3293991089e+00
    9.5499015808e+01    7.3367004395e+00
    9.5598899841e+01    7.3438987732e+00
    9.5699020386e+01    7.3508987427e+00
    9.5799041748e+01    7.3577003479e+00
    9.5898956299e+01    7.3642005920e+00
    9.5999015808e+01    7.3705997467e+00
    9.6099044800e+01    7.3768997192e+00
    9.6199089050e+01    7.3829994202e+00
    9.6299034119e+01    7.3889999390e+00
    9.6398971558e+01    7.3948993683e+00
    9.6499053955e+01    7.4006004333e+00
    9.6599029541e+01    7.4062004089e+00
    9.6699066162e+01    7.4117012024e+00
    9.6799049377e+01    7.4169998169e+00
    9.6898941040e+01    7.4223003387e+00
    9.6998970032e+01    7.4272994995e+00
    9.7099044800e+01    7.4323005676e+00
    9.7199058533e+01    7.4372005463e+00
    9.7298988342e+01    7.4419002533e+00
    9.7399009705e+01    7.4463996887e+00
    9.7499053955e+01    7.4507007599e+00
    9.7599075317e+01    7.4547996521e+00
    9.7699073792e+01    7.4589004517e+00
    9.7798919678e+01    7.4626007080e+00
    9.7898895264e+01    7.4661998749e+00
    9.7999069214e+01    7.4696006775e+00
    9.8098884583e+01    7.4727001190e+00
    9.8199005127e+01    7.4757003784e+00
    9.8298919678e+01    7.4783000946e+00
    9.8398910522e+01    7.4808998108e+00
    9.8499015808e+01    7.4832000732e+00
    9.8598884583e+01    7.4853000641e+00
    9.8699058533e+01    7.4871997833e+00
    9.8799003601e+01    7.4888992310e+00
    9.8898849487e+01    7.4903984070e+00
    9.8998855591e+01    7.4916000366e+00
    9.9098876953e+01    7.4927005768e+00
    9.9199005127e+01    7.4934005737e+00
    9.9298965454e+01    7.4939994812e+00
    9.9398902893e+01    7.4944000244e+00
    9.9498863220e+01    7.4946002960e+00
    9.9599044800e+01    7.4945983887e+00
    9.9698966980e+01    7.4943008423e+00
    9.9798950195e+01    7.4937992096e+00
    9.9898834229e+01    7.4930000305e+00
    9.9998825073e+01    7.4921989441e+00
    1.0009898376e+02    7.5083999634e+00
    1.0019901276e+02    7.5245990753e+00
    1.0029886627e+02    7.5405998230e+00
    1.0039890289e+02    7.5564002991e+00
    1.0049902344e+02    7.5720996857e+00
    1.0059900665e+02    7.5874996185e+00
    1.0069889832e+02    7.6027011871e+00
    1.0079897308e+02    7.6178016663e+00
    1.0089884186e+02    7.6326999664e+00
    1.0099902344e+02    7.6474018097e+00
    1.0109886932e+02    7.6620006561e+00
    1.0119885254e+02    7.6763973236e+00
    1.0129898834e+02    7.6906986237e+00
    1.0139900208e+02    7.7049007416e+00
    1.0149897003e+02    7.7189979553e+00
    1.0159896088e+02    7.7331008911e+00
    1.0169898987e+02    7.7469997406e+00
    1.0179892731e+02    7.7610015869e+00
    1.0189880371e+02    7.7747993469e+00
    1.0199880981e+02    7.7885017395e+00
    1.0209893799e+02    7.8020992279e+00
    1.0219882965e+02    7.8155021667e+00
    1.0229879761e+02    7.8288002014e+00
    1.0239878845e+02    7.8418979645e+00
    1.0249894714e+02    7.8547992706e+00
    1.0259896088e+02    7.8675994873e+00
    1.0269893646e+02    7.8801021576e+00
    1.0279888916e+02    7.8923015594e+00
    1.0289895630e+02    7.9043979645e+00
    1.0299890900e+02    7.9162998199e+00
    1.0309889984e+02    7.9277992249e+00
    1.0319882202e+02    7.9392013550e+00
    1.0329881287e+02    7.9501991272e+00
    1.0339878082e+02    7.9610004425e+00
    1.0349893188e+02    7.9715003967e+00
    1.0359895325e+02    7.9816989899e+00
    1.0369880676e+02    7.9915981293e+00
    1.0379884338e+02    8.0011997223e+00
    1.0389894104e+02    8.0106010437e+00
    1.0399894714e+02    8.0196990967e+00
    1.0409890747e+02    8.0286006927e+00
    1.0419888306e+02    8.0371990204e+00
    1.0429885101e+02    8.0456008911e+00
    1.0439877319e+02    8.0536003113e+00
    1.0449878693e+02    8.0616016388e+00
    1.0459877777e+02    8.0692005157e+00
    1.0469895172e+02    8.0764999390e+00
    1.0479891968e+02    8.0835990906e+00
    1.0489895630e+02    8.0904006958e+00
    1.0499881744e+02    8.0968990326e+00
    1.0509893799e+02    8.1031990051e+00
    1.0519880676e+02    8.1090984344e+00
    1.0529894257e+02    8.1147994995e+00
    1.0539895630e+02    8.1204013824e+00
    1.0549884033e+02    8.1256008148e+00
    1.0559873962e+02    8.1305999756e+00
    1.0569889832e+02    8.1353988647e+00
    1.0579895020e+02    8.1400012970e+00
    1.0589877319e+02    8.1443004608e+00
    1.0599878693e+02    8.1485977173e+00
    1.0609889984e+02    8.1525993347e+00
    1.0619886780e+02    8.1565017700e+00
    1.0629882050e+02    8.1602001190e+00
    1.0639894104e+02    8.1637001038e+00
    1.0649875641e+02    8.1671009064e+00
    1.0659877014e+02    8.1703987122e+00
    1.0669879913e+02    8.1735000610e+00
    1.0679876709e+02    8.1764984131e+00
    1.0689888000e+02    8.1793994904e+00
    1.0699890137e+02    8.1821002960e+00
    1.0709871674e+02    8.1847000122e+00
    1.0719885254e+02    8.1871013641e+00
    1.0729888153e+02    8.1893978119e+00
    1.0739882660e+02    8.1914005280e+00
    1.0749890137e+02    8.1932983398e+00
    1.0759877014e+02    8.1950016022e+00
    1.0769892120e+02    8.1964988708e+00
    1.0779872894e+02    8.1977024078e+00
    1.0789877319e+02    8.1986999512e+00
    1.0799880219e+02    8.1995010376e+00
    1.0809880829e+02    8.1999988556e+00
    1.0819882965e+02    8.2003002167e+00
    1.0829878235e+02    8.2002983093e+00
    1.0839881134e+02    8.2002010345e+00
    1.0849873352e+02    8.1996994019e+00
    1.0859876251e+02    8.1991004944e+00
    1.0869891357e+02    8.1982021332e+00
    1.0879875946e+02    8.1971015930e+00
    1.0889871216e+02    8.1956996918e+00
    1.0899878693e+02    8.1940994263e+00
    1.0909886169e+02    8.1923007965e+00
    1.0919888306e+02    8.1900997162e+00
    1.0929886627e+02    8.1879005432e+00
    1.0939882660e+02    8.1851997375e+00
    1.0949874878e+02    8.1824035645e+00
    1.0959880829e+02    8.1793975830e+00
    1.0969870758e+02    8.1759986877e+00
    1.0979886627e+02    8.1724967957e+00
    1.0989874268e+02    8.1687011719e+00
    1.0999870300e+02    8.1646995544e+00
    1.1009868622e+02    8.1814994812e+00
    1.1019883728e+02    8.1984024048e+00
    1.1029869080e+02    8.2149963379e+00
    1.1039888000e+02    8.2313995361e+00
    1.1049868011e+02    8.2476005554e+00
    1.1059870911e+02    8.2635993958e+00
    1.1069869232e+02    8.2793006897e+00
    1.1079868317e+02    8.2948989868e+00
    1.1089875793e+02    8.3104019165e+00
    1.1099880981e+02    8.3255996704e+00
    1.1109874725e+02    8.3406982422e+00
    1.1119875336e+02    8.3554992676e+00
    1.1129885101e+02    8.3704032898e+00
    1.1139875793e+02    8.3851013184e+00
    1.1149868011e+02    8.3997001648e+00
    1.1159880829e+02    8.4142990112e+00
    1.1169870758e+02    8.4288024902e+00
    1.1179866028e+02    8.4433021545e+00
    1.1189874268e+02    8.4575996399e+00
    1.1199868011e+02    8.4718017578e+00
    1.1209882355e+02    8.4858970642e+00
    1.1219883728e+02    8.4999008179e+00
    1.1229881287e+02    8.5136985779e+00
    1.1239875793e+02    8.5271987915e+00
    1.1249864960e+02    8.5406990051e+00
    1.1259873962e+02    8.5539016724e+00
    1.1269880676e+02    8.5667991638e+00
    1.1279872131e+02    8.5795021057e+00
    1.1289871979e+02    8.5918998718e+00
    1.1299864197e+02    8.6040992737e+00
    1.1309868622e+02    8.6161003113e+00
    1.1319875336e+02    8.6277008057e+00
    1.1329866028e+02    8.6389999390e+00
    1.1339881897e+02    8.6501007080e+00
    1.1349875641e+02    8.6606979370e+00
    1.1359870148e+02    8.6709976196e+00
    1.1369866943e+02    8.6811027527e+00
    1.1379882050e+02    8.6908035278e+00
    1.1389869690e+02    8.7001991272e+00
    1.1399880981e+02    8.7094001770e+00
    1.1409880829e+02    8.7182998657e+00
    1.1419876099e+02    8.7268028259e+00
    1.1429862213e+02    8.7351989746e+00
    1.1439881134e+02    8.7432022095e+00
    1.1449861908e+02    8.7510032654e+00
    1.1459861755e+02    8.7584991455e+00
    1.1469873810e+02    8.7657012939e+00
    1.1479866028e+02    8.7726020813e+00
    1.1489880371e+02    8.7791976929e+00
    1.1499874878e+02    8.7854995728e+00
    1.1509864044e+02    8.7915000916e+00
    1.1519866180e+02    8.7971000671e+00
    1.1529873657e+02    8.8025016785e+00
    1.1539862823e+02    8.8077011108e+00
    1.1549864960e+02    8.8125000000e+00
    1.1559864044e+02    8.8171005249e+00
    1.1569872284e+02    8.8214988708e+00
    1.1579876709e+02    8.8257026672e+00
    1.1589861298e+02    8.8297004700e+00
    1.1599858856e+02    8.8333015442e+00
    1.1609876251e+02    8.8370018005e+00
    1.1619873810e+02    8.8403015137e+00
    1.1629866028e+02    8.8435974121e+00
    1.1639871979e+02    8.8466033936e+00
    1.1649861908e+02    8.8495025635e+00
    1.1659861755e+02    8.8522987366e+00
    1.1669863892e+02    8.8549995422e+00
    1.1679866028e+02    8.8574981689e+00
    1.1689864349e+02    8.8598976135e+00
    1.1699877167e+02    8.8619995117e+00
    1.1709867096e+02    8.8641014099e+00
    1.1719860840e+02    8.8660011292e+00
    1.1729866028e+02    8.8678016663e+00
    1.1739859009e+02    8.8693008423e+00
    1.1749874878e+02    8.8706016541e+00
    1.1759866333e+02    8.8717002869e+00
    1.1769863892e+02    8.8726005554e+00
    1.1779869843e+02    8.8733024597e+00
    1.1789853668e+02    8.8736000061e+00
    1.1799865723e+02    8.8737983704e+00
    1.1809863281e+02    8.8736000061e+00
    1.1819859314e+02    8.8731994629e+00
    1.1829866028e+02    8.8724975586e+00
    1.1839856720e+02    8.8715019226e+00
    1.1849861145e+02    8.8703002930e+00
    1.1859871674e+02    8.8689002991e+00
    1.1869860840e+02    8.8670997620e+00
    1.1879866028e+02    8.8651008606e+00
    1.1889864349e+02    8.8629035950e+00
    1.1899855804e+02    8.8604011536e+00
    1.1909863281e+02    8.8575973511e+00
    1.1919860840e+02    8.8544998169e+00
    1.1929866028e+02    8.8511009216e+00
    1.1939856720e+02    8.8474998474e+00
    1.1949859619e+02    8.8437004089e+00
    1.1959854126e+02    8.8395996094e+00
    1.1969866180e+02    8.8352012634e+00
    1.1979857635e+02    8.8305015564e+00
    1.1989871216e+02    8.8255004883e+00
    1.1999859619e+02    8.8202972412e+00
    1.2009871674e+02    8.8381004333e+00
    1.2019866180e+02    8.8560028076e+00
    1.2029859924e+02    8.8736000061e+00
    1.2039862823e+02    8.8908996582e+00
    1.2049858856e+02    8.9080009460e+00
    1.2059854126e+02    8.9249000549e+00
    1.2069873047e+02    8.9415969849e+00
    1.2079866028e+02    8.9580993652e+00
    1.2089868927e+02    8.9743003845e+00
    1.2099851990e+02    8.9902992249e+00
    1.2109860992e+02    9.0062026978e+00
    1.2119869232e+02    9.0219993591e+00
    1.2129868317e+02    9.0376014709e+00
    1.2139851379e+02    9.0531005859e+00
    1.2149870300e+02    9.0687026978e+00
    1.2159864807e+02    9.0840988159e+00
    1.2169867706e+02    9.0993995667e+00
    1.2179866028e+02    9.1146011353e+00
    1.2189852142e+02    9.1297988892e+00
    1.2199868011e+02    9.1449012756e+00
    1.2209860229e+02    9.1598014832e+00
    1.2219854736e+02    9.1745986938e+00
    1.2229855347e+02    9.1891975403e+00
    1.2239852905e+02    9.2036018372e+00
    1.2249858093e+02    9.2178001404e+00
    1.2259857941e+02    9.2318000793e+00
    1.2269853210e+02    9.2455024719e+00
    1.2279856110e+02    9.2588996887e+00
    1.2289859772e+02    9.2719993591e+00
    1.2299862671e+02    9.2849006653e+00
    1.2309864807e+02    9.2975006104e+00
    1.2319857025e+02    9.3097991943e+00
    1.2329860687e+02    9.3215980530e+00
    1.2339853668e+02    9.3331985474e+00
    1.2349865723e+02    9.3443984985e+00
    1.2359864044e+02    9.3553009033e+00
    1.2369853210e+02    9.3658027649e+00
    1.2379850006e+02    9.3759002686e+00
    1.2389852142e+02    9.3859024048e+00
    1.2399861145e+02    9.3954010010e+00
    1.2409864807e+02    9.4046020508e+00
    1.2419862366e+02    9.4134979248e+00
    1.2429850769e+02    9.4221000671e+00
    1.2439851379e+02    9.4305000305e+00
    1.2449864960e+02    9.4384994507e+00
    1.2459854889e+02    9.4462013245e+00
    1.2469853973e+02    9.4536018372e+00
    1.2479853058e+02    9.4607009888e+00
    1.2489864349e+02    9.4673995972e+00
    1.2499861145e+02    9.4738006592e+00
    1.2509845734e+02    9.4798011780e+00
    1.2519853973e+02    9.4855995178e+00
    1.2529847717e+02    9.4910011292e+00
    1.2539862061e+02    9.4962005615e+00
    1.2549858856e+02    9.5009994507e+00
    1.2559847260e+02    9.5055007935e+00
    1.2569847870e+02    9.5099029541e+00
    1.2579856873e+02    9.5139007568e+00
    1.2589859772e+02    9.5178031921e+00
    1.2599864197e+02    9.5214004517e+00
    1.2609857178e+02    9.5247993469e+00
    1.2619854736e+02    9.5280990601e+00
    1.2629853058e+02    9.5312004089e+00
    1.2639855194e+02    9.5340995789e+00
    1.2649852753e+02    9.5369987488e+00
    1.2659863281e+02    9.5396003723e+00
    1.2669853973e+02    9.5419998169e+00
    1.2679846954e+02    9.5443000793e+00
    1.2689861298e+02    9.5466003418e+00
    1.2699861145e+02    9.5486030579e+00
    1.2709857941e+02    9.5504989624e+00
    1.2719846344e+02    9.5522003174e+00
    1.2729844666e+02    9.5538024902e+00
    1.2739855194e+02    9.5550994873e+00
    1.2749858856e+02    9.5562019348e+00
    1.2759851837e+02    9.5571022034e+00
    1.2769848633e+02    9.5575981140e+00
    1.2779853058e+02    9.5580024719e+00
    1.2789851379e+02    9.5580978394e+00
    1.2799857330e+02    9.5578994751e+00
    1.2809846497e+02    9.5573005676e+00
    1.2819851685e+02    9.5566024780e+00
    1.2829840088e+02    9.5555000305e+00
    1.2839857483e+02    9.5541038513e+00
    1.2849856567e+02    9.5525016785e+00
    1.2859848022e+02    9.5504989624e+00
    1.2869862366e+02    9.5484008789e+00
    1.2879861450e+02    9.5458984375e+00
    1.2889857483e+02    9.5431022644e+00
    1.2899856567e+02    9.5399971008e+00
    1.2909857178e+02    9.5366020203e+00
    1.2919848633e+02    9.5330009460e+00
    1.2929859924e+02    9.5290031433e+00
    1.2939862061e+02    9.5247001648e+00
    1.2949859619e+02    9.5200958252e+00
    1.2959858704e+02    9.5153007507e+00
    1.2969851685e+02    9.5101966858e+00
    1.2979862976e+02    9.5048027039e+00
    1.2989851379e+02    9.4990997314e+00
    1.2999856567e+02    9.4931030273e+00
    1.3009863281e+02    9.5120964050e+00
    1.3019854736e+02    9.5311012268e+00
    1.3029867554e+02    9.5499992371e+00
    1.3039869690e+02    9.5683975220e+00
    1.3049853516e+02    9.5866012573e+00
    1.3059858704e+02    9.6046028137e+00
    1.3069874573e+02    9.6223983765e+00
    1.3079864502e+02    9.6401023865e+00
    1.3089871216e+02    9.6574020386e+00
    1.3099859619e+02    9.6746025085e+00
    1.3109867859e+02    9.6915016174e+00
    1.3119868469e+02    9.7083015442e+00
    1.3129867554e+02    9.7248954773e+00
    1.3139868164e+02    9.7415962219e+00
    1.3149876404e+02    9.7581024170e+00
    1.3159870911e+02    9.7744979858e+00
    1.3169871521e+02    9.7909965515e+00
    1.3179875183e+02    9.8072967529e+00
    1.3189878845e+02    9.8234977722e+00
    1.3199882507e+02    9.8396987915e+00
    1.3209881592e+02    9.8556976318e+00
    1.3219877625e+02    9.8713989258e+00
    1.3229885864e+02    9.8871002197e+00
    1.3239872742e+02    9.9025993347e+00
    1.3249876404e+02    9.9177017212e+00
    1.3259877014e+02    9.9327011108e+00
    1.3269885254e+02    9.9474029541e+00
    1.3279881287e+02    9.9617042542e+00
    1.3289871216e+02    9.9757957458e+00
    1.3299882507e+02    9.9896049500e+00
    1.3309884644e+02    1.0003002167e+01
    1.3319874573e+02    1.0016197205e+01
    1.3329876709e+02    1.0028896332e+01
    1.3339883423e+02    1.0041198730e+01
    1.3349891663e+02    1.0053298950e+01
    1.3359892273e+02    1.0064899445e+01
    1.3369891357e+02    1.0076099396e+01
    1.3379879761e+02    1.0086898804e+01
    1.3389889526e+02    1.0097499847e+01
    1.3399893188e+02    1.0107700348e+01
    1.3409893799e+02    1.0117500305e+01
    1.3419888306e+02    1.0127002716e+01
    1.3429888916e+02    1.0136203766e+01
    1.3439895630e+02    1.0145099640e+01
    1.3449877930e+02    1.0153594971e+01
    1.3459895325e+02    1.0161804199e+01
    1.3469888306e+02    1.0169593811e+01
    1.3479887390e+02    1.0177093506e+01
    1.3489883423e+02    1.0184196472e+01
    1.3499888611e+02    1.0190895081e+01
    1.3509884644e+02    1.0197296143e+01
    1.3519883728e+02    1.0203201294e+01
    1.3529904175e+02    1.0208999634e+01
    1.3539883423e+02    1.0214401245e+01
    1.3549891663e+02    1.0219398499e+01
    1.3559904480e+02    1.0224296570e+01
    1.3569888306e+02    1.0228698730e+01
    1.3579893494e+02    1.0233001709e+01
    1.3589894104e+02    1.0236999512e+01
    1.3599896240e+02    1.0240699768e+01
    1.3609907532e+02    1.0244201660e+01
    1.3619900513e+02    1.0247604370e+01
    1.3629902649e+02    1.0250900269e+01
    1.3639903259e+02    1.0253906250e+01
    1.3649899292e+02    1.0256698608e+01
    1.3659890747e+02    1.0259399414e+01
    1.3669902039e+02    1.0262001038e+01
    1.3679898071e+02    1.0264396667e+01
    1.3689892578e+02    1.0266700745e+01
    1.3699899292e+02    1.0268699646e+01
    1.3709895325e+02    1.0270599365e+01
    1.3719900513e+02    1.0272399902e+01
    1.3729896545e+02    1.0273902893e+01
    1.3739909363e+02    1.0275299072e+01
    1.3749908447e+02    1.0276397705e+01
    1.3759912109e+02    1.0277297974e+01
    1.3769900513e+02    1.0277801514e+01
    1.3779905701e+02    1.0278106689e+01
    1.3789913940e+02    1.0278106689e+01
    1.3799914551e+02    1.0277702332e+01
    1.3809921265e+02    1.0277206421e+01
    1.3819912720e+02    1.0276199341e+01
    1.3829917908e+02    1.0274894714e+01
    1.3839921570e+02    1.0273399353e+01
    1.3849909973e+02    1.0271499634e+01
    1.3859922791e+02    1.0269393921e+01
    1.3869914246e+02    1.0266899109e+01
    1.3879920959e+02    1.0264099121e+01
    1.3889909363e+02    1.0261001587e+01
    1.3899905396e+02    1.0257598877e+01
    1.3909912109e+02    1.0253799438e+01
    1.3919912720e+02    1.0249702454e+01
    1.3929924011e+02    1.0245399475e+01
    1.3939915466e+02    1.0240699768e+01
    1.3949916077e+02    1.0235694885e+01
    1.3959921265e+02    1.0230392456e+01
    1.3969914246e+02    1.0224700928e+01
    1.3979931641e+02    1.0218704224e+01
    1.3989921570e+02    1.0212394714e+01
    1.3999931335e+02    1.0205795288e+01
    1.4009924316e+02    1.0223701477e+01
    1.4019920349e+02    1.0241401672e+01
    1.4029931641e+02    1.0258796692e+01
    1.4039915466e+02    1.0275894165e+01
    1.4049926758e+02    1.0292694092e+01
    1.4059916687e+02    1.0309204102e+01
    1.4069914246e+02    1.0325500488e+01
    1.4079936218e+02    1.0341598511e+01
    1.4089938354e+02    1.0357498169e+01
    1.4099920654e+02    1.0373100281e+01
    1.4109921265e+02    1.0388504028e+01
    1.4119923401e+02    1.0403800964e+01
    1.4129922485e+02    1.0418998718e+01
    1.4139936829e+02    1.0433998108e+01
    1.4149925232e+02    1.0448905945e+01
    1.4159930420e+02    1.0463798523e+01
    1.4169941711e+02    1.0478698730e+01
    1.4179934692e+02    1.0493499756e+01
    1.4189930725e+02    1.0508102417e+01
    1.4199929810e+02    1.0522598267e+01
    1.4209941101e+02    1.0537002563e+01
    1.4219932556e+02    1.0551101685e+01
    1.4229937744e+02    1.0565101624e+01
    1.4239932251e+02    1.0578994751e+01
    1.4249926758e+02    1.0592597961e+01
    1.4259930420e+02    1.0605804443e+01
    1.4269943237e+02    1.0618904114e+01
    1.4279931641e+02    1.0631500244e+01
    1.4289938354e+02    1.0643905640e+01
    1.4299946594e+02    1.0656105042e+01
    1.4309948730e+02    1.0667800903e+01
    1.4319940186e+02    1.0679199219e+01
    1.4329934692e+02    1.0690200806e+01
    1.4339938354e+02    1.0700798035e+01
    1.4349937439e+02    1.0711097717e+01
    1.4359938049e+02    1.0720901489e+01
    1.4369952393e+02    1.0730300903e+01
    1.4379939270e+02    1.0739395142e+01
    1.4389947510e+02    1.0748199463e+01
    1.4399946594e+02    1.0756599426e+01
    1.4409957886e+02    1.0764602661e+01
    1.4419941711e+02    1.0772201538e+01
    1.4429954529e+02    1.0779602051e+01
    1.4439955139e+02    1.0786499023e+01
    1.4449957275e+02    1.0793197632e+01
    1.4459959412e+02    1.0799400330e+01
    1.4469952393e+02    1.0805297852e+01
    1.4479948425e+02    1.0810798645e+01
    1.4489962769e+02    1.0816001892e+01
    1.4499945068e+02    1.0820800781e+01
    1.4509959412e+02    1.0825202942e+01
    1.4519946289e+02    1.0829299927e+01
    1.4529959106e+02    1.0833000183e+01
    1.4539945984e+02    1.0836303711e+01
    1.4549966431e+02    1.0839401245e+01
    1.4559956360e+02    1.0842201233e+01
    1.4569963074e+02    1.0844604492e+01
    1.4579951477e+02    1.0846801758e+01
    1.4589967346e+02    1.0848701477e+01
    1.4599957275e+02    1.0850601196e+01
    1.4609953308e+02    1.0851997375e+01
    1.4619955444e+02    1.0853401184e+01
    1.4629960632e+02    1.0854499817e+01
    1.4639965820e+02    1.0855499268e+01
    1.4649952698e+02    1.0856300354e+01
    1.4659968567e+02    1.0857002258e+01
    1.4669964600e+02    1.0857398987e+01
    1.4679971313e+02    1.0857803345e+01
    1.4689964294e+02    1.0857994080e+01
    1.4699958801e+02    1.0858100891e+01
    1.4709973145e+02    1.0858001709e+01
    1.4719960022e+02    1.0857696533e+01
    1.4729963684e+02    1.0857101440e+01
    1.4739965820e+02    1.0856399536e+01
    1.4749969482e+02    1.0855499268e+01
    1.4759976196e+02    1.0854202271e+01
    1.4769975281e+02    1.0852798462e+01
    1.4779966736e+02    1.0850997925e+01
    1.4789981079e+02    1.0848999023e+01
    1.4799972534e+02    1.0846496582e+01
    1.4809965515e+02    1.0843902588e+01
    1.4819975281e+02    1.0840904236e+01
    1.4829963684e+02    1.0837699890e+01
    1.4839968872e+02    1.0833999634e+01
    1.4849980164e+02    1.0830101013e+01
    1.4859971619e+02    1.0825897217e+01
    1.4869964600e+02    1.0821601868e+01
    1.4879972839e+02    1.0816802979e+01
    1.4889984131e+02    1.0811599731e+01
    1.4899986267e+02    1.0806304932e+01
    1.4909979248e+02    1.0799797058e+01
    1.4919982910e+02    1.0793800354e+01
    1.4929988098e+02    1.0787399292e+01
    1.4939978027e+02    1.0780998230e+01
    1.4949975586e+02    1.0774200439e+01
    1.4959983826e+02    1.0765800476e+01
    1.4969987488e+02    1.0758094788e+01
    1.4979989624e+02    1.0750198364e+01
    1.4989990234e+02    1.0742004395e+01
    1.4999984741e+02    1.0733604431e+01
    1.5009983826e+02    1.0747802734e+01
    1.5019975281e+02    1.0762802124e+01
    1.5029992676e+02    1.0777000427e+01
    1.5039976501e+02    1.0791603088e+01
    1.5049987793e+02    1.0805397034e+01
    1.5059982300e+02    1.0818199158e+01
    1.5069987488e+02    1.0831596375e+01
    1.5079989624e+02    1.0844802856e+01
    1.5089982605e+02    1.0857994080e+01
    1.5099981689e+02    1.0869796753e+01
    1.5109997559e+02    1.0882102966e+01
    1.5119987488e+02    1.0894798279e+01
    1.5129985046e+02    1.0907203674e+01
    1.5139999390e+02    1.0919097900e+01
    1.5149984741e+02    1.0930603027e+01
    1.5159997559e+02    1.0942497253e+01
    1.5170002747e+02    1.0954399109e+01
    1.5179992676e+02    1.0966598511e+01
    1.5189985657e+02    1.0977600098e+01
    1.5200000000e+02    1.0989097595e+01
    1.5209999084e+02    1.1000701904e+01
    1.5219987488e+02    1.1012397766e+01
    1.5230007935e+02    1.1023200989e+01
    1.5239991760e+02    1.1033599854e+01
    1.5249995422e+02    1.1044403076e+01
    1.5259997559e+02    1.1054901123e+01
    1.5269995117e+02    1.1065299988e+01
    1.5280003357e+02    1.1075103760e+01
    1.5289990234e+02    1.1084098816e+01
    1.5300004578e+02    1.1093200684e+01
    1.5310002136e+02    1.1102294922e+01
    1.5320010376e+02    1.1110900879e+01
    1.5329992676e+02    1.1118698120e+01
    1.5340005493e+02    1.1126403809e+01
    1.5350000000e+02    1.1134094238e+01
    1.5360012817e+02    1.1141098022e+01
    1.5369996643e+02    1.1148300171e+01
    1.5379998779e+02    1.1153800964e+01
    1.5390017700e+02    1.1159606934e+01
    1.5400004578e+02    1.1166000366e+01
    1.5410014343e+02    1.1171005249e+01
    1.5420007324e+02    1.1175994873e+01
    1.5430018616e+02    1.1180999756e+01
    1.5440008545e+02    1.1183998108e+01
    1.5450007629e+02    1.1189002991e+01
    1.5460011292e+02    1.1191993713e+01
    1.5470007324e+02    1.1194999695e+01
    1.5480014038e+02    1.1197998047e+01
    1.5490005493e+02    1.1199996948e+01
    1.5500007629e+02    1.1202995300e+01
    1.5510017395e+02    1.1204002380e+01
    1.5520025635e+02    1.1206001282e+01
    1.5530021667e+02    1.1206001282e+01
    1.5540017700e+02    1.1207000732e+01
    1.5550016785e+02    1.1208000183e+01
    1.5560009766e+02    1.1207000732e+01
    1.5570016479e+02    1.1207000732e+01
    1.5580010986e+02    1.1207000732e+01
    1.5590011597e+02    1.1207000732e+01
    1.5600010681e+02    1.1206001282e+01
    1.5610011292e+02    1.1203994751e+01
    1.5620016479e+02    1.1203002930e+01
    1.5630021667e+02    1.1201995850e+01
    1.5640025330e+02    1.1199996948e+01
    1.5650027466e+02    1.1199005127e+01
    1.5660029602e+02    1.1196998596e+01
    1.5670022583e+02    1.1194000244e+01
    1.5680029297e+02    1.1192001343e+01
    1.5690017700e+02    1.1190002441e+01
    1.5700033569e+02    1.1187995911e+01
    1.5710014343e+02    1.1185005188e+01
    1.5720018005e+02    1.1181999207e+01
    1.5730030823e+02    1.1179000854e+01
    1.5740031433e+02    1.1175994873e+01
    1.5750028992e+02    1.1172004700e+01
    1.5760029602e+02    1.1168998718e+01
    1.5770031738e+02    1.1165000916e+01
    1.5780032349e+02    1.1160995483e+01
    1.5790023804e+02    1.1155998230e+01
    1.5800042725e+02    1.1152000427e+01
    1.5810043335e+02    1.1145996094e+01
    1.5820036316e+02    1.1141006470e+01
    1.5830038452e+02    1.1136001587e+01
    1.5840040588e+02    1.1130004883e+01
    1.5850027466e+02    1.1123001099e+01
    1.5860029602e+02    1.1117004395e+01
    1.5870046997e+02    1.1110000610e+01
    1.5880035400e+02    1.1103004456e+01
    1.5890029907e+02    1.1094993591e+01
    1.5900044250e+02    1.1086997986e+01
    1.5910040283e+02    1.1079994202e+01
    1.5920036316e+02    1.1071998596e+01
    1.5930049133e+02    1.1063003540e+01
    1.5940037537e+02    1.1054000854e+01
    1.5950051880e+02    1.1044006348e+01
    1.5960041809e+02    1.1034996033e+01
    1.5970053101e+02    1.1025001526e+01
    1.5980047607e+02    1.1014999390e+01
    1.5990045166e+02    1.1004005432e+01
    1.6000053406e+02    1.0992996216e+01
    1.6010043335e+02    1.1003997803e+01
    1.6020042419e+02    1.1013999939e+01
    1.6030052185e+02    1.1024002075e+01
    1.6040037537e+02    1.1035003662e+01
    1.6050044250e+02    1.1044998169e+01
    1.6060049438e+02    1.1053001404e+01
    1.6070037842e+02    1.1062995911e+01
    1.6080056763e+02    1.1071998596e+01
    1.6090046692e+02    1.1079994202e+01
    1.6100050354e+02    1.1088996887e+01
    1.6110046387e+02    1.1097000122e+01
    1.6120057678e+02    1.1106002808e+01
    1.6130044556e+02    1.1112998962e+01
    1.6140055847e+02    1.1121002197e+01
    1.6150059509e+02    1.1128997803e+01
    1.6160049438e+02    1.1137008667e+01
    1.6170043945e+02    1.1144996643e+01
    1.6180058289e+02    1.1152008057e+01
    1.6190052795e+02    1.1159004211e+01
    1.6200045776e+02    1.1166992188e+01
    1.6210061646e+02    1.1175003052e+01
    1.6220057678e+02    1.1180999756e+01
    1.6230056763e+02    1.1187995911e+01
    1.6240068054e+02    1.1194999695e+01
    1.6250065613e+02    1.1202003479e+01
    1.6260058594e+02    1.1208007812e+01
    1.6270059204e+02    1.1213996887e+01
    1.6280067444e+02    1.1220001221e+01
    1.6290054321e+02    1.1226005554e+01
    1.6300061035e+02    1.1230995178e+01
    1.6310069275e+02    1.1236000061e+01
    1.6320057678e+02    1.1239997864e+01
    1.6330072021e+02    1.1244010925e+01
    1.6340071106e+02    1.1249000549e+01
    1.6350071716e+02    1.1253005981e+01
    1.6360061646e+02    1.1255004883e+01
    1.6370062256e+02    1.1257995605e+01
    1.6380067444e+02    1.1259994507e+01
    1.6390066528e+02    1.1263000488e+01
    1.6400064087e+02    1.1264991760e+01
    1.6410072327e+02    1.1265998840e+01
    1.6420068359e+02    1.1266998291e+01
    1.6430061340e+02    1.1268005371e+01
    1.6440063477e+02    1.1268005371e+01
    1.6450071716e+02    1.1267997742e+01
    1.6460063171e+02    1.1269004822e+01
    1.6470062256e+02    1.1268005371e+01
    1.6480078125e+02    1.1266998291e+01
    1.6490066528e+02    1.1265998840e+01
    1.6500064087e+02    1.1263999939e+01
    1.6510075378e+02    1.1262008667e+01
    1.6520079041e+02    1.1260002136e+01
    1.6530082703e+02    1.1258003235e+01
    1.6540084839e+02    1.1254997253e+01
    1.6550079346e+02    1.1250999451e+01
    1.6560072327e+02    1.1248001099e+01
    1.6570080566e+02    1.1244995117e+01
    1.6580082703e+02    1.1239990234e+01
    1.6590072632e+02    1.1236000061e+01
    1.6600082397e+02    1.1232009888e+01
    1.6610090637e+02    1.1227996826e+01
    1.6620089722e+02    1.1222000122e+01
    1.6630091858e+02    1.1217002869e+01
    1.6640074158e+02    1.1212005615e+01
    1.6650074768e+02    1.1207000732e+01
    1.6660087585e+02    1.1201995850e+01
    1.6670091248e+02    1.1195999146e+01
    1.6680075073e+02    1.1190002441e+01
    1.6690078735e+02    1.1184997559e+01
    1.6700077820e+02    1.1177993774e+01
    1.6710098267e+02    1.1172012329e+01
    1.6720088196e+02    1.1166000366e+01
    1.6730099487e+02    1.1160003662e+01
    1.6740097046e+02    1.1152999878e+01
    1.6750088501e+02    1.1145996094e+01
    1.6760090637e+02    1.1139007568e+01
    1.6770092773e+02    1.1130996704e+01
    1.6780085754e+02    1.1124008179e+01
    1.6790089417e+02    1.1117004395e+01
    1.6800096130e+02    1.1109008789e+01
    1.6810102844e+02    1.1098999023e+01
    1.6820086670e+02    1.1090988159e+01
    1.6830090332e+02    1.1082000732e+01
    1.6840097046e+02    1.1072998047e+01
    1.6850097656e+02    1.1062988281e+01
    1.6860101318e+02    1.1054000854e+01
    1.6870092773e+02    1.1042999268e+01
    1.6880107117e+02    1.1033004761e+01
    1.6890093994e+02    1.1022994995e+01
    1.6900097656e+02    1.1011001587e+01
    1.6910099792e+02    1.1000000000e+01
    1.6920108032e+02    1.0987991333e+01
    1.6930111694e+02    1.0977005005e+01
    1.6940095520e+02    1.0964004517e+01
    1.6950097656e+02    1.0952011108e+01
    1.6960104370e+02    1.0938995361e+01
    1.6970094299e+02    1.0925994873e+01
    1.6980094910e+02    1.0913009644e+01
    1.6990100098e+02    1.0898010254e+01
    1.7000102234e+02    1.0884002686e+01
    1.7010113525e+02    1.0890991211e+01
    1.7020103455e+02    1.0895996094e+01
    1.7030117798e+02    1.0902008057e+01
    1.7040100098e+02    1.0906997681e+01
    1.7050108337e+02    1.0912002563e+01
    1.7060098267e+02    1.0916000366e+01
    1.7070103455e+02    1.0921005249e+01
    1.7080119324e+02    1.0925003052e+01
    1.7090115356e+02    1.0928985596e+01
    1.7100102234e+02    1.0932998657e+01
    1.7110116577e+02    1.0936004639e+01
    1.7120106506e+02    1.0940002441e+01
    1.7130114746e+02    1.0943008423e+01
    1.7140109253e+02    1.0945999146e+01
    1.7150126648e+02    1.0948989868e+01
    1.7160119629e+02    1.0951995850e+01
    1.7170118713e+02    1.0955001831e+01
    1.7180108643e+02    1.0958999634e+01
    1.7190116882e+02    1.0960998535e+01
    1.7200112915e+02    1.0964004517e+01
    1.7210128784e+02    1.0966995239e+01
    1.7220123291e+02    1.0968994141e+01
    1.7230117798e+02    1.0970993042e+01
    1.7240127563e+02    1.0973999023e+01
    1.7250114441e+02    1.0975006104e+01
    1.7260130310e+02    1.0977005005e+01
    1.7270129395e+02    1.0977996826e+01
    1.7280126953e+02    1.0979995728e+01
    1.7290133667e+02    1.0980010986e+01
    1.7300115967e+02    1.0979995728e+01
    1.7310134888e+02    1.0980987549e+01
    1.7320132446e+02    1.0981002808e+01
    1.7330128479e+02    1.0981002808e+01
    1.7340130615e+02    1.0979995728e+01
    1.7350132751e+02    1.0978988647e+01
    1.7360119629e+02    1.0977996826e+01
    1.7370120239e+02    1.0975997925e+01
    1.7380119324e+02    1.0973999023e+01
    1.7390124512e+02    1.0971008301e+01
    1.7400134277e+02    1.0968002319e+01
    1.7410125732e+02    1.0964996338e+01
    1.7420120239e+02    1.0961990356e+01
    1.7430131531e+02    1.0958007812e+01
    1.7440132141e+02    1.0953994751e+01
    1.7450126648e+02    1.0949996948e+01
    1.7460130310e+02    1.0945007324e+01
    1.7470127869e+02    1.0940002441e+01
    1.7480128479e+02    1.0933990479e+01
    1.7490133667e+02    1.0929000854e+01
    1.7500144958e+02    1.0922988892e+01
    1.7510125732e+02    1.0916000366e+01
    1.7520132446e+02    1.0908996582e+01
    1.7530139160e+02    1.0902999878e+01
    1.7540130615e+02    1.0895004272e+01
    1.7550137329e+02    1.0888000488e+01
    1.7560130310e+02    1.0879013062e+01
    1.7570132446e+02    1.0871002197e+01
    1.7580137634e+02    1.0863998413e+01
    1.7590135193e+02    1.0854995728e+01
    1.7600132751e+02    1.0845993042e+01
    1.7610133362e+02    1.0836990356e+01
    1.7620152283e+02    1.0826995850e+01
    1.7630137634e+02    1.0817993164e+01
    1.7640150452e+02    1.0807998657e+01
    1.7650140381e+02    1.0799011230e+01
    1.7660156250e+02    1.0789001465e+01
    1.7670150757e+02    1.0778991699e+01
    1.7680145264e+02    1.0769012451e+01
    1.7690138245e+02    1.0759002686e+01
    1.7700144958e+02    1.0748001099e+01
    1.7710151672e+02    1.0736999512e+01
    1.7720141602e+02    1.0727005005e+01
    1.7730140686e+02    1.0716003418e+01
    1.7740159607e+02    1.0705001831e+01
    1.7750146484e+02    1.0693008423e+01
    1.7760159302e+02    1.0681991577e+01
    1.7770150757e+02    1.0669998169e+01
    1.7780163574e+02    1.0658996582e+01
    1.7790153503e+02    1.0646011353e+01
    1.7800151062e+02    1.0632995605e+01
    1.7810148621e+02    1.0619995117e+01
    1.7820147705e+02    1.0607009888e+01
    1.7830149841e+02    1.0594009399e+01
    1.7840151978e+02    1.0581008911e+01
    1.7850158691e+02    1.0567001343e+01
    1.7860153198e+02    1.0552993774e+01
    1.7870152283e+02    1.0538009644e+01
    1.7880154419e+02    1.0524002075e+01
    1.7890168762e+02    1.0507995605e+01
    1.7900161743e+02    1.0492996216e+01
    1.7910151672e+02    1.0478012085e+01
    1.7920166016e+02    1.0462005615e+01
    1.7930163574e+02    1.0444992065e+01
    1.7940164185e+02    1.0429000854e+01
    1.7950155640e+02    1.0412002563e+01
    1.7960156250e+02    1.0395004272e+01
    1.7970164490e+02    1.0377990723e+01
    1.7980175781e+02    1.0360000610e+01
    1.7990171814e+02    1.0341995239e+01
    1.8000172424e+02    1.0324005127e+01
    1.8010168457e+02    1.0322998047e+01
    1.8020159912e+02    1.0320999146e+01
    1.8030168152e+02    1.0320007324e+01
    1.8040162659e+02    1.0318008423e+01
    1.8050163269e+02    1.0316009521e+01
    1.8060162354e+02    1.0312988281e+01
    1.8070170593e+02    1.0310989380e+01
    1.8080172729e+02    1.0307006836e+01
    1.8090174866e+02    1.0305007935e+01
    1.8100163269e+02    1.0300994873e+01
    1.8110168457e+02    1.0298004150e+01
    1.8120182800e+02    1.0293991089e+01
    1.8130166626e+02    1.0290008545e+01
    1.8140174866e+02    1.0287002563e+01
    1.8150184631e+02    1.0283004761e+01
    1.8160169983e+02    1.0279006958e+01
    1.8170176697e+02    1.0274002075e+01
    1.8180181885e+02    1.0269989014e+01
    1.8190168762e+02    1.0266006470e+01
    1.8200175476e+02    1.0262008667e+01
    1.8210189819e+02    1.0258010864e+01
    1.8220170593e+02    1.0251998901e+01
    1.8230189514e+02    1.0246994019e+01
    1.8240176392e+02    1.0242996216e+01
    1.8250181580e+02    1.0238006592e+01
    1.8260179138e+02    1.0233001709e+01
    1.8270190430e+02    1.0225997925e+01
    1.8280181885e+02    1.0219985962e+01
    1.8290188599e+02    1.0213989258e+01
    1.8300192261e+02    1.0207992554e+01
    1.8310180664e+02    1.0202011108e+01
    1.8320184326e+02    1.0194000244e+01
    1.8330183411e+02    1.0186996460e+01
    1.8340185547e+02    1.0179000854e+01
    1.8350192261e+02    1.0171997070e+01
    1.8360183716e+02    1.0164001465e+01
    1.8370191956e+02    1.0154998779e+01
    1.8380184937e+02    1.0145996094e+01
    1.8390193176e+02    1.0136993408e+01
    1.8400187683e+02    1.0127990723e+01
    1.8410200500e+02    1.0117996216e+01
    1.8420191956e+02    1.0108001709e+01
    1.8430183411e+02    1.0097991943e+01
    1.8440185547e+02    1.0087997437e+01
    1.8450187683e+02    1.0076004028e+01
    1.8460192871e+02    1.0064987183e+01
    1.8470193481e+02    1.0053009033e+01
    1.8480201721e+02    1.0042007446e+01
    1.8490206909e+02    1.0029998779e+01
    1.8500204468e+02    1.0016998291e+01
    1.8510208130e+02    1.0004013062e+01
    1.8520201111e+02    9.9919891357e+00
    1.8530206299e+02    9.9779968262e+00
    1.8540197754e+02    9.9649963379e+00
    1.8550207520e+02    9.9499969482e+00
    1.8560198975e+02    9.9360046387e+00
    1.8570201111e+02    9.9220123291e+00
    1.8580198669e+02    9.9069976807e+00
    1.8590206909e+02    9.8930053711e+00
    1.8600193787e+02    9.8779907227e+00
    1.8610197449e+02    9.8629913330e+00
    1.8620196533e+02    9.8470001221e+00
    1.8630210876e+02    9.8320007324e+00
    1.8640197754e+02    9.8159942627e+00
    1.8650207520e+02    9.8009948730e+00
    1.8660215759e+02    9.7839965820e+00
    1.8670204163e+02    9.7689971924e+00
    1.8680215454e+02    9.7519989014e+00
    1.8690214539e+02    9.7369995117e+00
    1.8700213623e+02    9.7200012207e+00
    1.8710197449e+02    9.7029876709e+00
    1.8720205688e+02    9.6869964600e+00
    1.8730206299e+02    9.6699981689e+00
    1.8740220642e+02    9.6529998779e+00
    1.8750219727e+02    9.6360015869e+00
    1.8760205078e+02    9.6190032959e+00
    1.8770219421e+02    9.6009979248e+00
    1.8780206299e+02    9.5839996338e+00
    1.8790211487e+02    9.5650024414e+00
    1.8800212097e+02    9.5480041504e+00
    1.8810223389e+02    9.5279998779e+00
    1.8820210266e+02    9.5099945068e+00
    1.8830212402e+02    9.4909973145e+00
    1.8840222168e+02    9.4720001221e+00
    1.8850227356e+02    9.4520111084e+00
    1.8860226440e+02    9.4329986572e+00
    1.8870222473e+02    9.4129943848e+00
    1.8880227661e+02    9.3939971924e+00
    1.8890219116e+02    9.3730010986e+00
    1.8900224304e+02    9.3520050049e+00
    1.8910212708e+02    9.3320007324e+00
    1.8920227051e+02    9.3099975586e+00
    1.8930227661e+02    9.2890014648e+00
    1.8940231323e+02    9.2669982910e+00
    1.8950216675e+02    9.2449951172e+00
    1.8960224915e+02    9.2230072021e+00
    1.8970228577e+02    9.2010040283e+00
    1.8980224609e+02    9.1779937744e+00
    1.8990237427e+02    9.1560058594e+00
    1.9000231934e+02    9.1319885254e+00
    1.9010229492e+02    9.1240081787e+00
    1.9020236206e+02    9.1150054932e+00
    1.9030220032e+02    9.1050109863e+00
    1.9040231323e+02    9.0960083008e+00
    1.9050238037e+02    9.0859985352e+00
    1.9060223389e+02    9.0770111084e+00
    1.9070225525e+02    9.0670013428e+00
    1.9080227661e+02    9.0560150146e+00
    1.9090234375e+02    9.0469970703e+00
    1.9100224304e+02    9.0349884033e+00
    1.9110237122e+02    9.0249938965e+00
    1.9120234680e+02    9.0140075684e+00
    1.9130226135e+02    9.0029907227e+00
    1.9140226746e+02    8.9920043945e+00
    1.9150239563e+02    8.9799957275e+00
    1.9160238647e+02    8.9700012207e+00
    1.9170245361e+02    8.9589996338e+00
    1.9180235291e+02    8.9479980469e+00
    1.9190231323e+02    8.9359893799e+00
    1.9200248718e+02    8.9239959717e+00
    1.9210246277e+02    8.9129943848e+00
    1.9220239258e+02    8.9010009766e+00
    1.9230235291e+02    8.8889923096e+00
    1.9240243530e+02    8.8779907227e+00
    1.9250245667e+02    8.8660125732e+00
    1.9260253906e+02    8.8529968262e+00
    1.9270254517e+02    8.8409881592e+00
    1.9280252075e+02    8.8280029297e+00
    1.9290237427e+02    8.8149871826e+00
    1.9300250244e+02    8.8029937744e+00
    1.9310244751e+02    8.7900085449e+00
    1.9320237732e+02    8.7760009766e+00
    1.9330247498e+02    8.7620086670e+00
    1.9340249634e+02    8.7480010986e+00
    1.9350239563e+02    8.7340087891e+00
    1.9360250854e+02    8.7189941406e+00
    1.9370254517e+02    8.7050018311e+00
    1.9380242920e+02    8.6889953613e+00
    1.9390257263e+02    8.6750030518e+00
    1.9400250244e+02    8.6589965820e+00
    1.9410246277e+02    8.6439971924e+00
    1.9420251465e+02    8.6269989014e+00
    1.9430250549e+02    8.6110076904e+00
    1.9440252686e+02    8.5950012207e+00
[...]
    2.5130598450e+02   -2.6990051270e+00
    2.5140603638e+02   -2.7089843750e+00
    2.5150593567e+02   -2.7189941406e+00
    2.5160600281e+02   -2.7279968262e+00
    2.5170596313e+02   -2.7369995117e+00
    2.5180598450e+02   -2.7460021973e+00
    2.5190614319e+02   -2.7560119629e+00
    2.5200605774e+02   -2.7640075684e+00
    2.5210604858e+02   -2.7740173340e+00
    2.5220616150e+02   -2.7820129395e+00
    2.5230618286e+02   -2.7909851074e+00
    2.5240599060e+02   -2.8000183105e+00
    2.5250610352e+02   -2.8089904785e+00
    2.5260606384e+02   -2.8170166016e+00
    2.5270614624e+02   -2.8259887695e+00
    2.5280613708e+02   -2.8349914551e+00
    2.5290600586e+02   -2.8430175781e+00
    2.5300604248e+02   -2.8520202637e+00
    2.5310621643e+02   -2.8609924316e+00
    2.5320605469e+02   -2.8680114746e+00
    2.5330607605e+02   -2.8780212402e+00
    2.5340608215e+02   -2.8860168457e+00
    2.5350611877e+02   -2.8940124512e+00
    2.5360610962e+02   -2.9020080566e+00
    2.5370616150e+02   -2.9100036621e+00
    2.5380621338e+02   -2.9179992676e+00
    2.5390612793e+02   -2.9259948730e+00
    2.5400627136e+02   -2.9340209961e+00
    2.5410617065e+02   -2.9430236816e+00
    2.5420613098e+02   -2.9510192871e+00
    2.5430621338e+02   -2.9590148926e+00
    2.5440611267e+02   -2.9660034180e+00
    2.5450610352e+02   -2.9749755859e+00
    2.5460621643e+02   -2.9819946289e+00
    2.5470620728e+02   -2.9899902344e+00
    2.5480632019e+02   -2.9970092773e+00
    2.5490626526e+02   -3.0060119629e+00
    2.5500634766e+02   -3.0130004883e+00
    2.5510621643e+02   -3.0210266113e+00
    2.5520634460e+02   -3.0280151367e+00
    2.5530621338e+02   -3.0350036621e+00
    2.5540626526e+02   -3.0439758301e+00
    2.5550617981e+02   -3.0509948730e+00
    2.5560632324e+02   -3.0589904785e+00
    2.5570622253e+02   -3.0659790039e+00
    2.5580630493e+02   -3.0730285645e+00
    2.5590635681e+02   -3.0810241699e+00
    2.5600637817e+02   -3.0880126953e+00
    2.5610623169e+02   -3.0959777832e+00
    2.5620623779e+02   -3.1029968262e+00
    2.5630624390e+02   -3.1099853516e+00
    2.5640643311e+02   -3.1169738770e+00
    2.5650631714e+02   -3.1239929199e+00
    2.5660638428e+02   -3.1309814453e+00
    2.5670639038e+02   -3.1369934082e+00
    2.5680639648e+02   -3.1449890137e+00
    2.5690643311e+02   -3.1519775391e+00
    2.5700643921e+02   -3.1579895020e+00
    2.5710641479e+02   -3.1649780273e+00
    2.5720632935e+02   -3.1709899902e+00
    2.5730627441e+02   -3.1780090332e+00
    2.5740637207e+02   -3.1839904785e+00
    2.5750640869e+02   -3.1900024414e+00
    2.5760644531e+02   -3.1969909668e+00
    2.5770648193e+02   -3.2030029297e+00
    2.5780645752e+02   -3.2089843750e+00
    2.5790652466e+02   -3.2149963379e+00
    2.5800640869e+02   -3.2210083008e+00
    2.5810641479e+02   -3.2269897461e+00
    2.5820648193e+02   -3.2330017090e+00
    2.5830639648e+02   -3.2380065918e+00
    2.5840637207e+02   -3.2439880371e+00
    2.5850643921e+02   -3.2500000000e+00
    2.5860644531e+02   -3.2550048828e+00
    2.5870654297e+02   -3.2609863281e+00
    2.5880642700e+02   -3.2669982910e+00
    2.5890637207e+02   -3.2720031738e+00
    2.5900653076e+02   -3.2779846191e+00
    2.5910641479e+02   -3.2819824219e+00
    2.5920657349e+02   -3.2879943848e+00
    2.5930645752e+02   -3.2940063477e+00
    2.5940652466e+02   -3.2990112305e+00
    2.5950643921e+02   -3.3039855957e+00
    2.5960641479e+02   -3.3089904785e+00
    2.5970651245e+02   -3.3139953613e+00
    2.5980661011e+02   -3.3190002441e+00
    2.5990652466e+02   -3.3240051270e+00
    2.6000662231e+02   -3.3290100098e+00
    2.6010653687e+02   -3.3339843750e+00
    2.6020663452e+02   -3.3379821777e+00
    2.6030645752e+02   -3.3419799805e+00
    2.6040661621e+02   -3.3460083008e+00
    2.6050650024e+02   -3.3500061035e+00
    2.6060650635e+02   -3.3540039062e+00
    2.6070663452e+02   -3.3580017090e+00
    2.6080661011e+02   -3.3619995117e+00
    2.6090649414e+02   -3.3659973145e+00
    2.6100668335e+02   -3.3700256348e+00
    2.6110653687e+02   -3.3740234375e+00
    2.6120657349e+02   -3.3770141602e+00
    2.6130657959e+02   -3.3800048828e+00
    2.6140658569e+02   -3.3840026855e+00
    2.6150659180e+02   -3.3869934082e+00
    2.6160662842e+02   -3.3909912109e+00
    2.6170672607e+02   -3.3940124512e+00
    2.6180654907e+02   -3.3980102539e+00
    2.6190661621e+02   -3.3999938965e+00
    2.6200671387e+02   -3.4029846191e+00
    2.6210659790e+02   -3.4069824219e+00
    2.6220672607e+02   -3.4089965820e+00
    2.6230661011e+02   -3.4119873047e+00
    2.6240667725e+02   -3.4150085449e+00
    2.6250677490e+02   -3.4179992676e+00
    2.6260668945e+02   -3.4200134277e+00
    2.6270672607e+02   -3.4230041504e+00
    2.6280679321e+02   -3.4259948730e+00
    2.6290667725e+02   -3.4270019531e+00
    2.6300674438e+02   -3.4300231934e+00
    2.6310675049e+02   -3.4320068359e+00
    2.6320681763e+02   -3.4339904785e+00
    2.6330676270e+02   -3.4370117188e+00
    2.6340679932e+02   -3.4389953613e+00
    2.6350671387e+02   -3.4409790039e+00
    2.6360665894e+02   -3.4429931641e+00
    2.6370678711e+02   -3.4450073242e+00
    2.6380676270e+02   -3.4460144043e+00
    2.6390673828e+02   -3.4490051270e+00
    2.6400674438e+02   -3.4499816895e+00
    2.6410678101e+02   -3.4519958496e+00
    2.6420675659e+02   -3.4529724121e+00
    2.6430685425e+02   -3.4550170898e+00
    2.6440676880e+02   -3.4559936523e+00
    2.6450671387e+02   -3.4580078125e+00
    2.6460671997e+02   -3.4589843750e+00
    2.6470672607e+02   -3.4609985352e+00
    2.6480679321e+02   -3.4620056152e+00
    2.6490682983e+02   -3.4630126953e+00
    2.6500683594e+02   -3.4650268555e+00
    2.6510684204e+02   -3.4649963379e+00
    2.6520681763e+02   -3.4670104980e+00
    2.6530691528e+02   -3.4679870605e+00
    2.6540692139e+02   -3.4679870605e+00
    2.6550683594e+02   -3.4689941406e+00
    2.6560681152e+02   -3.4700012207e+00
    2.6570687866e+02   -3.4710083008e+00
    2.6580688477e+02   -3.4720153809e+00
    2.6590686035e+02   -3.4729919434e+00
    2.6600683594e+02   -3.4729919434e+00
    2.6610699463e+02   -3.4729919434e+00
    2.6620697021e+02   -3.4739990234e+00
    2.6630682373e+02   -3.4750061035e+00
    2.6640689087e+02   -3.4750061035e+00
    2.6650701904e+02   -3.4750061035e+00
    2.6660702515e+02   -3.4750061035e+00
    2.6670697021e+02   -3.4749755859e+00
    2.6680700684e+02   -3.4750061035e+00
    2.6690698242e+02   -3.4750061035e+00
    2.6700708008e+02   -3.4750061035e+00
    2.6710687256e+02   -3.4750061035e+00
    2.6720690918e+02   -3.4739990234e+00
    2.6730694580e+02   -3.4739990234e+00
    2.6740695190e+02   -3.4739990234e+00
    2.6750695801e+02   -3.4739990234e+00
    2.6760699463e+02   -3.4730224609e+00
    2.6770690918e+02   -3.4720153809e+00
    2.6780697632e+02   -3.4710083008e+00
    2.6790707397e+02   -3.4700012207e+00
    2.6800701904e+02   -3.4700012207e+00
    2.6810699463e+02   -3.4680175781e+00
    2.6820697021e+02   -3.4680175781e+00
    2.6830712891e+02   -3.4670104980e+00
    2.6840704346e+02   -3.4660034180e+00
    2.6850704956e+02   -3.4639892578e+00
    2.6860702515e+02   -3.4639892578e+00
    2.6870706177e+02   -3.4619750977e+00
    2.6880697632e+02   -3.4609985352e+00
    2.6890713501e+02   -3.4590148926e+00
    2.6900714111e+02   -3.4570007324e+00
    2.6910705566e+02   -3.4559936523e+00
    2.6920709229e+02   -3.4540100098e+00
    2.6930712891e+02   -3.4519958496e+00
    2.6940713501e+02   -3.4509887695e+00
    2.6950701904e+02   -3.4489746094e+00
    2.6960708618e+02   -3.4470214844e+00
    2.6970706177e+02   -3.4440002441e+00
    2.6980718994e+02   -3.4419860840e+00
    2.6990719604e+02   -3.4409790039e+00
    2.7000717163e+02   -3.4389953613e+00
    2.7010711670e+02   -3.4379882812e+00
    2.7020706177e+02   -3.4370117188e+00
    2.7030706787e+02   -3.4370117188e+00
    2.7040725708e+02   -3.4359741211e+00
    2.7050726318e+02   -3.4349975586e+00
    2.7060723877e+02   -3.4349975586e+00
    2.7070727539e+02   -3.4339904785e+00
    2.7080709839e+02   -3.4329833984e+00
    2.7090725708e+02   -3.4309997559e+00
    2.7100717163e+02   -3.4309997559e+00
    2.7110714722e+02   -3.4299926758e+00
    2.7120730591e+02   -3.4280090332e+00
    2.7130725098e+02   -3.4270019531e+00
    2.7140725708e+02   -3.4259948730e+00
    2.7150714111e+02   -3.4240112305e+00
    2.7160723877e+02   -3.4230041504e+00
    2.7170718384e+02   -3.4210205078e+00
    2.7180725098e+02   -3.4189758301e+00
    2.7190716553e+02   -3.4179992676e+00
    2.7200726318e+02   -3.4160156250e+00
    2.7210723877e+02   -3.4140014648e+00
    2.7220721436e+02   -3.4129943848e+00
    2.7230737305e+02   -3.4100036621e+00
    2.7240725708e+02   -3.4089965820e+00
    2.7250720215e+02   -3.4060058594e+00
    2.7260736084e+02   -3.4039916992e+00
    2.7270724487e+02   -3.4010009766e+00
    2.7280740356e+02   -3.3999938965e+00
    2.7290719604e+02   -3.3959960938e+00
    2.7300732422e+02   -3.3940124512e+00
    2.7310733032e+02   -3.3909912109e+00
    2.7320724487e+02   -3.3890075684e+00
    2.7330728149e+02   -3.3860168457e+00
    2.7340737915e+02   -3.3829956055e+00
    2.7350735474e+02   -3.3809814453e+00
    2.7360733032e+02   -3.3779907227e+00
    2.7370730591e+02   -3.3739929199e+00
    2.7380749512e+02   -3.3699951172e+00
    2.7390737915e+02   -3.3679809570e+00
    2.7400741577e+02   -3.3639831543e+00
    2.7410729980e+02   -3.3609924316e+00
    2.7420745850e+02   -3.3580017090e+00
    2.7430749512e+02   -3.3540039062e+00
    2.7440740967e+02   -3.3499755859e+00
    2.7450732422e+02   -3.3470153809e+00
    2.7460751343e+02   -3.3429870605e+00
    2.7470739746e+02   -3.3390197754e+00
    2.7480749512e+02   -3.3350219727e+00
    2.7490737915e+02   -3.3309936523e+00
    2.7500738525e+02   -3.3269958496e+00
    2.7510754395e+02   -3.3229980469e+00
    2.7520748901e+02   -3.3190002441e+00
    2.7530749512e+02   -3.3150024414e+00
    2.7540737915e+02   -3.3099975586e+00
    2.7550750732e+02   -3.3059997559e+00
    2.7560745239e+02   -3.3009948730e+00
    2.7570739746e+02   -3.2969970703e+00
    2.7580743408e+02   -3.2929992676e+00
    2.7590744019e+02   -3.2879943848e+00
    2.7600759888e+02   -3.2829895020e+00
    2.7610745239e+02   -3.2779846191e+00
    2.7620742798e+02   -3.2729797363e+00
    2.7630764771e+02   -3.2680053711e+00
    2.7640756226e+02   -3.2640075684e+00
    2.7650750732e+02   -3.2580261230e+00
    2.7660754395e+02   -3.2529907227e+00
    2.7670764160e+02   -3.2479858398e+00
    2.7680761719e+02   -3.2430114746e+00
    2.7690759277e+02   -3.2369995117e+00
    2.7700753784e+02   -3.2310180664e+00
    2.7710754395e+02   -3.2269897461e+00
    2.7720748901e+02   -3.2210083008e+00
    2.7730767822e+02   -3.2149963379e+00
    2.7740768433e+02   -3.2090148926e+00
    2.7750756836e+02   -3.2039794922e+00
    2.7760769653e+02   -3.1979980469e+00
    2.7770770264e+02   -3.1920166016e+00
    2.7780755615e+02   -3.1860046387e+00
    2.7790771484e+02   -3.1799926758e+00
    2.7800765991e+02   -3.1730041504e+00
    2.7810766602e+02   -3.1669921875e+00
    2.7820755005e+02   -3.1610107422e+00
    2.7830758667e+02   -3.1549987793e+00
    2.7840759277e+02   -3.1479797363e+00
    2.7850759888e+02   -3.1409912109e+00
    2.7860763550e+02   -3.1350097656e+00
    2.7870758057e+02   -3.1280212402e+00
    2.7880758667e+02   -3.1210021973e+00
    2.7890765381e+02   -3.1139831543e+00
    2.7900765991e+02   -3.1069946289e+00
    2.7910766602e+02   -3.1000061035e+00
    2.7920770264e+02   -3.0920104980e+00
    2.7930770874e+02   -3.0849914551e+00
    2.7940774536e+02   -3.0780029297e+00
    2.7950781250e+02   -3.0710144043e+00
    2.7960778809e+02   -3.0630187988e+00
    2.7970773315e+02   -3.0559997559e+00
    2.7980776978e+02   -3.0490112305e+00
    2.7990774536e+02   -3.0410156250e+00
    2.8000778198e+02   -3.0330200195e+00
    2.8010775757e+02   -3.0289916992e+00
    2.8020779419e+02   -3.0240173340e+00
    2.8030767822e+02   -3.0199890137e+00
    2.8040780640e+02   -3.0159912109e+00
    2.8050784302e+02   -3.0109863281e+00
    2.8060775757e+02   -3.0069885254e+00
    2.8070785522e+02   -3.0029907227e+00
    2.8080780029e+02   -2.9989929199e+00
    2.8090774536e+02   -2.9930114746e+00
    2.8100790405e+02   -2.9890136719e+00
    2.8110791016e+02   -2.9830017090e+00
    2.8120773315e+02   -2.9790039062e+00
    2.8130786133e+02   -2.9739990234e+00
    2.8140789795e+02   -2.9680175781e+00
    2.8150775146e+02   -2.9640197754e+00
    2.8160781860e+02   -2.9590148926e+00
    2.8170776367e+02   -2.9539794922e+00
    2.8180780029e+02   -2.9489746094e+00
    2.8190792847e+02   -2.9429931641e+00
    2.8200796509e+02   -2.9379882812e+00
    2.8210791016e+02   -2.9319763184e+00
    2.8220794678e+02   -2.9270019531e+00
    2.8230780029e+02   -2.9209899902e+00
    2.8240792847e+02   -2.9150085449e+00
    2.8250793457e+02   -2.9100036621e+00
    2.8260791016e+02   -2.9039916992e+00
    2.8270791626e+02   -2.8980102539e+00
    2.8280786133e+02   -2.8919982910e+00
    2.8290783691e+02   -2.8860168457e+00
    2.8300793457e+02   -2.8800048828e+00
    2.8310803223e+02   -2.8740234375e+00
    2.8320788574e+02   -2.8670043945e+00
    2.8330786133e+02   -2.8609924316e+00
    2.8340789795e+02   -2.8540039062e+00
    2.8350793457e+02   -2.8479919434e+00
    2.8360806274e+02   -2.8410034180e+00
    2.8370791626e+02   -2.8349914551e+00
    2.8380801392e+02   -2.8280029297e+00
    2.8390805054e+02   -2.8199768066e+00
    2.8400793457e+02   -2.8139953613e+00
    2.8410812378e+02   -2.8070068359e+00
    2.8420800781e+02   -2.7999877930e+00
    2.8430810547e+02   -2.7919921875e+00
    2.8440805054e+02   -2.7850036621e+00
    2.8450796509e+02   -2.7780151367e+00
    2.8460794067e+02   -2.7700195312e+00
    2.8470803833e+02   -2.7620239258e+00
    2.8480801392e+02   -2.7550048828e+00
    2.8490808105e+02   -2.7470092773e+00
    2.8500805664e+02   -2.7390136719e+00
    2.8510797119e+02   -2.7309875488e+00
    2.8520797729e+02   -2.7239990234e+00
    2.8530807495e+02   -2.7149963379e+00
    2.8540808105e+02   -2.7080078125e+00
    2.8550808716e+02   -2.7000122070e+00
    2.8560815430e+02   -2.6910095215e+00
    2.8570809937e+02   -2.6829833984e+00
    2.8580807495e+02   -2.6749877930e+00
    2.8590811157e+02   -2.6659851074e+00
    2.8600805664e+02   -2.6570129395e+00
    2.8610815430e+02   -2.6490173340e+00
    2.8620803833e+02   -2.6410217285e+00
    2.8630813599e+02   -2.6320190430e+00
    2.8640817261e+02   -2.6230163574e+00
    2.8650808716e+02   -2.6149597168e+00
    2.8660806274e+02   -2.6050415039e+00
    2.8670806885e+02   -2.5969848633e+00
    2.8680810547e+02   -2.5879821777e+00
    2.8690823364e+02   -2.5790100098e+00
    2.8700811768e+02   -2.5689697266e+00
    2.8710818481e+02   -2.5610046387e+00
    2.8720822144e+02   -2.5510253906e+00
    2.8730810547e+02   -2.5419921875e+00
    2.8740820312e+02   -2.5329589844e+00
    2.8750833130e+02   -2.5229492188e+00
    2.8760818481e+02   -2.5139770508e+00
    2.8770831299e+02   -2.5040283203e+00
    2.8780822754e+02   -2.4939575195e+00
    2.8790814209e+02   -2.4840087891e+00
    2.8800827026e+02   -2.4749755859e+00
    2.8810815430e+02   -2.4650268555e+00
    2.8820828247e+02   -2.4550170898e+00
    2.8830819702e+02   -2.4450073242e+00
    2.8840832520e+02   -2.4349975586e+00
    2.8850827026e+02   -2.4240112305e+00
    2.8860818481e+02   -2.4140014648e+00
    2.8870834351e+02   -2.4039916992e+00
    2.8880822754e+02   -2.3930053711e+00
    2.8890838623e+02   -2.3829956055e+00
    2.8900830078e+02   -2.3720092773e+00
    2.8910824585e+02   -2.3609619141e+00
    2.8920840454e+02   -2.3519897461e+00
    2.8930831909e+02   -2.3410034180e+00
    2.8940823364e+02   -2.3300170898e+00
    2.8950839233e+02   -2.3190307617e+00
    2.8960830688e+02   -2.3079833984e+00
    2.8970846558e+02   -2.2969970703e+00
    2.8980834961e+02   -2.2860107422e+00
    2.8990829468e+02   -2.2739868164e+00
    2.9000836182e+02   -2.2640380859e+00
    2.9010833740e+02   -2.2579956055e+00
    2.9020840454e+02   -2.2509765625e+00
    2.9030841064e+02   -2.2449951172e+00
    2.9040832520e+02   -2.2380371094e+00
    2.9050845337e+02   -2.2310180664e+00
    2.9060827637e+02   -2.2249755859e+00
    2.9070840454e+02   -2.2180175781e+00
    2.9080834961e+02   -2.2109985352e+00
    2.9090835571e+02   -2.2050170898e+00
    2.9100851440e+02   -2.1979980469e+00
    2.9110842896e+02   -2.1909790039e+00
    2.9120846558e+02   -2.1829833984e+00
    2.9130847168e+02   -2.1770019531e+00
    2.9140844727e+02   -2.1700439453e+00
    2.9150842285e+02   -2.1630249023e+00
    2.9160839844e+02   -2.1550292969e+00
    2.9170843506e+02   -2.1480102539e+00
    2.9180853271e+02   -2.1409912109e+00
    2.9190841675e+02   -2.1340332031e+00
    2.9200839233e+02   -2.1270141602e+00
    2.9210852051e+02   -2.1190185547e+00
    2.9220852661e+02   -2.1119995117e+00
    2.9230844116e+02   -2.1050415039e+00
    2.9240863037e+02   -2.0970458984e+00
    2.9250854492e+02   -2.0900268555e+00
    2.9260845947e+02   -2.0819702148e+00
    2.9270864868e+02   -2.0739746094e+00
    2.9280862427e+02   -2.0670166016e+00
    2.9290859985e+02   -2.0590209961e+00
    2.9300851440e+02   -2.0499877930e+00
    2.9310848999e+02   -2.0429687500e+00
    2.9320849609e+02   -2.0350341797e+00
    2.9330847168e+02   -2.0269775391e+00
    2.9340853882e+02   -2.0180053711e+00
    2.9350866699e+02   -2.0100097656e+00
    2.9360855103e+02   -2.0009765625e+00
    2.9370861816e+02   -1.9930419922e+00
    2.9380853271e+02   -1.9849853516e+00
    2.9390853882e+02   -1.9749755859e+00
    2.9400866699e+02   -1.9669799805e+00
    2.9410858154e+02   -1.9590454102e+00
    2.9420864868e+02   -1.9490356445e+00
    2.9430865479e+02   -1.9409790039e+00
    2.9440856934e+02   -1.9320068359e+00
    2.9450872803e+02   -1.9219970703e+00
    2.9460861206e+02   -1.9130249023e+00
    2.9470855713e+02   -1.9039916992e+00
    2.9480856323e+02   -1.8939819336e+00
    2.9490869141e+02   -1.8859863281e+00
    2.9500866699e+02   -1.8750000000e+00
    2.9510858154e+02   -1.8660278320e+00
    2.9520877075e+02   -1.8560180664e+00
    2.9530877686e+02   -1.8469848633e+00
    2.9540869141e+02   -1.8369750977e+00
    2.9550872803e+02   -1.8280029297e+00
    2.9560864258e+02   -1.8179931641e+00
    2.9570877075e+02   -1.8079833984e+00
    2.9580877686e+02   -1.7979736328e+00
    2.9590866089e+02   -1.7890014648e+00
    2.9600863647e+02   -1.7780151367e+00
    2.9610879517e+02   -1.7670288086e+00
    2.9620883179e+02   -1.7579956055e+00
    2.9630868530e+02   -1.7479858398e+00
    2.9640875244e+02   -1.7380371094e+00
    2.9650881958e+02   -1.7270507812e+00
    2.9660870361e+02   -1.7169799805e+00
    2.9670880127e+02   -1.7059936523e+00
    2.9680868530e+02   -1.6959838867e+00
    2.9690878296e+02   -1.6860351562e+00
    2.9700872803e+02   -1.6760253906e+00
    2.9710888672e+02   -1.6649780273e+00
    2.9720883179e+02   -1.6549682617e+00
    2.9730877686e+02   -1.6440429688e+00
    2.9740884399e+02   -1.6329956055e+00
    2.9750878906e+02   -1.6220092773e+00
    2.9760891724e+02   -1.6110229492e+00
    2.9770877075e+02   -1.6009521484e+00
    2.9780892944e+02   -1.5889892578e+00
    2.9790890503e+02   -1.5790405273e+00
    2.9800891113e+02   -1.5679931641e+00
    2.9810876465e+02   -1.5570068359e+00
    2.9820877075e+02   -1.5460205078e+00
    2.9830877686e+02   -1.5339965820e+00
    2.9840884399e+02   -1.5239868164e+00
    2.9850891113e+02   -1.5120239258e+00
    2.9860897827e+02   -1.5009765625e+00
    2.9870892334e+02   -1.4899902344e+00
    2.9880880737e+02   -1.4779663086e+00
    2.9890884399e+02   -1.4660034180e+00
    2.9900900269e+02   -1.4539794922e+00
    2.9910882568e+02   -1.4429931641e+00
    2.9920892334e+02   -1.4310302734e+00
    2.9930899048e+02   -1.4190063477e+00
    2.9940893555e+02   -1.4069824219e+00
    2.9950900269e+02   -1.3959960938e+00
    2.9960900879e+02   -1.3829956055e+00
    2.9970889282e+02   -1.3710327148e+00
    2.9980902100e+02   -1.3599853516e+00
    2.9990893555e+02   -1.3479614258e+00
endcurve
