Curveplot
LS-DYNA keyword deck by LS-PrePost
Abscissa
Ordinate
XY data
CHOP_NASX_mo-1 #pts=3000
* Minval=    -3.9450073242e+00 at time=       266.3068237305
* Maxval=     1.1850006104e+01 at time=       164.3006134033
    0.0000000000e+00    0.0000000000e+00
    9.9971257150e-02    1.5628499677e-03
    1.9997157156e-01    3.1261511613e-03
    2.9983949661e-01    4.6873786487e-03
    3.9980411530e-01    6.2501546927e-03
    4.9986100197e-01    7.8145032749e-03
    5.9982681274e-01    9.3765463680e-03
    6.9986909628e-01    1.0941200890e-02
    7.9996424913e-01    1.2508454733e-02
    8.9999699593e-01    1.4072971418e-02
    9.9983048439e-01    1.5630848706e-02
    1.0998057127e+00    1.7188936472e-02
    1.1997965574e+00    1.8746607006e-02
    1.2998238802e+00    2.0306419581e-02
    1.3998663425e+00    2.1869821474e-02
    1.4999084473e+00    2.3437067866e-02
    1.5998848677e+00    2.5006771088e-02
    1.6998517513e+00    2.6580017060e-02
    1.7998569012e+00    2.8156563640e-02
    1.8999532461e+00    2.9737431556e-02
    1.9998379946e+00    3.1316988170e-02
    2.0999476910e+00    3.2899867743e-02
    2.1999177933e+00    3.4479394555e-02
    2.2999169827e+00    3.6058645695e-02
    2.3998513222e+00    3.7634916604e-02
    2.4999043941e+00    3.9208710194e-02
    2.5998687744e+00    4.0775530040e-02
    2.6998603344e+00    4.2336773127e-02
    2.7999703884e+00    4.3893910944e-02
    2.8998289108e+00    4.5442461967e-02
    2.9999125004e+00    4.6989608556e-02
    3.0998518467e+00    4.8528645188e-02
    3.1999235153e+00    5.0062116235e-02
    3.2998852730e+00    5.1584150642e-02
    3.3999664783e+00    5.3097750992e-02
    3.4999496937e+00    5.4600145668e-02
    3.5999453068e+00    5.6093230844e-02
    3.6998658180e+00    5.7575382292e-02
    3.7998898029e+00    5.9050370008e-02
    3.8998456001e+00    6.0516938567e-02
    3.9997999668e+00    6.1976123601e-02
    4.0997948647e+00    6.3428707421e-02
    4.1999564171e+00    6.4876914024e-02
    4.2998638153e+00    6.6315293312e-02
    4.3998351097e+00    6.7748770118e-02
    4.4997935295e+00    6.9176770747e-02
    4.5999145508e+00    7.0601612329e-02
    4.6998620033e+00    7.2017759085e-02
    4.7999286652e+00    7.3427751660e-02
    4.8998680115e+00    7.4826478958e-02
    4.9999794960e+00    7.6218299568e-02
    5.0997986794e+00    7.7597409487e-02
    5.1997833252e+00    7.8970484436e-02
    5.2998895645e+00    8.0337598920e-02
    5.3998904228e+00    8.1696555018e-02
    5.4997935295e+00    8.3047762513e-02
    5.5999422073e+00    8.4395475686e-02
    5.6997799873e+00    8.5731968284e-02
    5.7998991013e+00    8.7065272033e-02
    5.8999552727e+00    8.8391177356e-02
    5.9998483658e+00    8.9708507061e-02
    6.0998144150e+00    9.1021500528e-02
    6.1999297142e+00    9.2331349850e-02
    6.2999696732e+00    9.3634828925e-02
    6.3998751640e+00    9.4930589199e-02
    6.4998874664e+00    9.6222780645e-02
    6.5999126434e+00    9.7508698702e-02
    6.6999530792e+00    9.8791129887e-02
    6.7997941971e+00    1.0006726533e-01
    6.8999919891e+00    1.0134462267e-01
    6.9999003410e+00    1.0261346400e-01
    7.0998325348e+00    1.0388001055e-01
    7.1999907494e+00    1.0514193773e-01
    7.2999491692e+00    1.0639528185e-01
    7.3997888565e+00    1.0763850063e-01
    7.4999084473e+00    1.0887586325e-01
    7.5999560356e+00    1.1010310054e-01
    7.6998777390e+00    1.1131906509e-01
    7.7999305725e+00    1.1252629757e-01
    7.8999834061e+00    1.1372238398e-01
    7.9997878075e+00    1.1490460485e-01
    8.0999040604e+00    1.1607779562e-01
    8.1998615265e+00    1.1723719537e-01
    8.2998313904e+00    1.1838670075e-01
    8.3999738693e+00    1.1952740699e-01
    8.4998607635e+00    1.2065290660e-01
    8.5999755859e+00    1.2177039683e-01
    8.6999568939e+00    1.2287539989e-01
    8.7998018265e+00    1.2396749854e-01
    8.8997955322e+00    1.2504979968e-01
    8.9999752045e+00    1.2612110376e-01
    9.0999126434e+00    1.2717810273e-01
    9.1999273300e+00    1.2822459638e-01
    9.2998275757e+00    1.2926089764e-01
    9.3998746872e+00    1.3028830290e-01
    9.4999370575e+00    1.3130590320e-01
    9.5998249054e+00    1.3230910897e-01
    9.6999921799e+00    1.3330489397e-01
    9.7999610901e+00    1.3428799808e-01
    9.8998632431e+00    1.3526000082e-01
    9.9998216629e+00    1.3622099161e-01
    1.0099919319e+01    1.3966009021e-01
    1.0199834824e+01    1.4308609068e-01
    1.0299937248e+01    1.4650599658e-01
    1.0399831772e+01    1.4990790188e-01
    1.0499958038e+01    1.5330749750e-01
    1.0599818230e+01    1.5668430924e-01
    1.0700003624e+01    1.6006469727e-01
    1.0799938202e+01    1.6343070567e-01
    1.0899888992e+01    1.6678591073e-01
    1.0999879837e+01    1.7012970150e-01
    1.1099910736e+01    1.7346380651e-01
    1.1199938774e+01    1.7678800225e-01
    1.1299847603e+01    1.8010349572e-01
    1.1399874687e+01    1.8342030048e-01
    1.1499861717e+01    1.8673560023e-01
    1.1599894524e+01    1.9005200267e-01
    1.1699989319e+01    1.9336909056e-01
    1.1799953461e+01    1.9667780399e-01
    1.1899891853e+01    1.9998350739e-01
    1.2000000000e+01    2.0329040289e-01
    1.2099945068e+01    2.0658341050e-01
    1.2199983597e+01    2.0987010002e-01
    1.2299942017e+01    2.1314489841e-01
    1.2399961472e+01    2.1640980244e-01
    1.2499838829e+01    2.1965479851e-01
    1.2599983215e+01    2.2289091349e-01
    1.2699993134e+01    2.2610349953e-01
    1.2799806595e+01    2.2928951681e-01
    1.2899923325e+01    2.3246610165e-01
    1.2999868393e+01    2.3561808467e-01
    1.3099847794e+01    2.3875029385e-01
    1.3200003624e+01    2.4186690152e-01
    1.3299923897e+01    2.4494990706e-01
    1.3399838448e+01    2.4800571799e-01
    1.3499816895e+01    2.5103691220e-01
    1.3599921227e+01    2.5404721498e-01
    1.3699827194e+01    2.5702559948e-01
    1.3799995422e+01    2.5998839736e-01
    1.3899859428e+01    2.6292049885e-01
    1.3999837875e+01    2.6583379507e-01
    1.4099941254e+01    2.6873099804e-01
    1.4199989319e+01    2.7160489559e-01
    1.4299903870e+01    2.7445510030e-01
    1.4399898529e+01    2.7728751302e-01
    1.4499859810e+01    2.8009989858e-01
    1.4599869728e+01    2.8289440274e-01
    1.4699887276e+01    2.8566831350e-01
    1.4799889565e+01    2.8842139244e-01
    1.4899987221e+01    2.9115200043e-01
    1.4999958992e+01    2.9385459423e-01
    1.5099836349e+01    2.9653191566e-01
    1.5199943542e+01    2.9919159412e-01
    1.5300018311e+01    3.0183047056e-01
    1.5399898529e+01    3.0444318056e-01
    1.5499902725e+01    3.0704098940e-01
    1.5599830627e+01    3.0961650610e-01
    1.5699997902e+01    3.1217902899e-01
    1.5799925804e+01    3.1471660733e-01
    1.5899937630e+01    3.1723910570e-01
    1.5999978065e+01    3.1974560022e-01
    1.6099813461e+01    3.2223251462e-01
    1.6199831009e+01    3.2471001148e-01
    1.6299974442e+01    3.2717782259e-01
    1.6399808884e+01    3.2962438464e-01
    1.6499980927e+01    3.3206689358e-01
    1.6599952698e+01    3.3449059725e-01
    1.6700012207e+01    3.3690458536e-01
    1.6799825668e+01    3.3930009604e-01
    1.6899862289e+01    3.4169068933e-01
    1.6999843597e+01    3.4406951070e-01
    1.7099895477e+01    3.4643688798e-01
    1.7199947357e+01    3.4878939390e-01
    1.7300010681e+01    3.5112598538e-01
    1.7399953842e+01    3.5344001651e-01
    1.7500017166e+01    3.5573798418e-01
    1.7599971771e+01    3.5801199079e-01
    1.7699850082e+01    3.6026299000e-01
    1.7799871445e+01    3.6249601841e-01
    1.7899984360e+01    3.6470699310e-01
    1.7999977112e+01    3.6689200997e-01
    1.8099954605e+01    3.6905100942e-01
    1.8199918747e+01    3.7118500471e-01
    1.8299877167e+01    3.7329602242e-01
    1.8399894714e+01    3.7538301945e-01
    1.8499883652e+01    3.7744599581e-01
    1.8599895477e+01    3.7948697805e-01
    1.8699947357e+01    3.8150599599e-01
    1.8799995422e+01    3.8350000978e-01
    1.8899908066e+01    3.8546901941e-01
    1.8999912262e+01    3.8741499186e-01
    1.9099878311e+01    3.8933700323e-01
    1.9199895859e+01    3.9123702049e-01
    1.9299985886e+01    3.9311701059e-01
    1.9399915695e+01    3.9497202635e-01
    1.9499938965e+01    3.9680498838e-01
    1.9599990845e+01    3.9861702919e-01
    1.9699922562e+01    4.0040296316e-01
    1.9799840927e+01    4.0216597915e-01
    1.9899946213e+01    4.0391001105e-01
    1.9999959946e+01    4.0562999249e-01
    2.0100019455e+01    4.1002100706e-01
    2.0199895859e+01    4.1438299417e-01
    2.0299819946e+01    4.1872501373e-01
    2.0400011063e+01    4.2305701971e-01
    2.0500034332e+01    4.2735999823e-01
    2.0599992752e+01    4.3163800240e-01
    2.0699909210e+01    4.3589800596e-01
    2.0800039291e+01    4.4015303254e-01
    2.0899879456e+01    4.4437700510e-01
    2.0999946594e+01    4.4858998060e-01
    2.1099977493e+01    4.5278498530e-01
    2.1199871063e+01    4.5695897937e-01
    2.1299833298e+01    4.6112602949e-01
    2.1399942398e+01    4.6529203653e-01
    2.1500043869e+01    4.6945402026e-01
    2.1599878311e+01    4.7360002995e-01
    2.1700033188e+01    4.7775501013e-01
    2.1799928665e+01    4.8189300299e-01
    2.1899951935e+01    4.8602700233e-01
    2.1999855042e+01    4.9014797807e-01
    2.2099929810e+01    4.9426400661e-01
    2.2199851990e+01    4.9835801125e-01
    2.2299959183e+01    5.0244504213e-01
    2.2399913788e+01    5.0650703907e-01
    2.2499876022e+01    5.1055097580e-01
    2.2599878311e+01    5.1457095146e-01
    2.2699953079e+01    5.1856797934e-01
    2.2800016403e+01    5.2253699303e-01
    2.2899847031e+01    5.2647203207e-01
    2.2999860764e+01    5.3038597107e-01
    2.3099845886e+01    5.3426998854e-01
    2.3199947357e+01    5.3813099861e-01
    2.3300029755e+01    5.4195702076e-01
    2.3399887085e+01    5.4574197531e-01
    2.3499977112e+01    5.4949897528e-01
    2.3599868774e+01    5.5321800709e-01
    2.3699998856e+01    5.5691301823e-01
    2.3799953461e+01    5.6057101488e-01
    2.3899904251e+01    5.6420004368e-01
    2.3999948502e+01    5.6780302525e-01
    2.4099872589e+01    5.7137602568e-01
    2.4199996948e+01    5.7492697239e-01
    2.4299957275e+01    5.7844698429e-01
    2.4400026321e+01    5.8194303513e-01
    2.4499980927e+01    5.8540898561e-01
    2.4599922180e+01    5.8884704113e-01
    2.4699985504e+01    5.9226298332e-01
    2.4799831390e+01    5.9564298391e-01
    2.4900058746e+01    5.9900498390e-01
    2.4999998093e+01    6.0232698917e-01
    2.5100049973e+01    6.0562300682e-01
    2.5199964523e+01    6.0888397694e-01
    2.5299905777e+01    6.1212098598e-01
    2.5399843216e+01    6.1533200741e-01
    2.5499858856e+01    6.1852002144e-01
    2.5600000381e+01    6.2169098854e-01
    2.5700012207e+01    6.2483298779e-01
    2.5800022125e+01    6.2795400620e-01
    2.5900035858e+01    6.3105607033e-01
    2.5999860764e+01    6.3413202763e-01
    2.6100000381e+01    6.3720202446e-01
    2.6199943542e+01    6.4025104046e-01
    2.6300024033e+01    6.4329099655e-01
    2.6400058746e+01    6.4631700516e-01
    2.6499961853e+01    6.4932501316e-01
    2.6599887848e+01    6.5231895447e-01
    2.6699939728e+01    6.5530991554e-01
    2.6800029755e+01    6.5828806162e-01
    2.6899930954e+01    6.6125202179e-01
    2.6999984741e+01    6.6420900822e-01
    2.7099874496e+01    6.6714000702e-01
    2.7199977875e+01    6.7006897926e-01
    2.7300050735e+01    6.7298090458e-01
    2.7399965286e+01    6.7587006092e-01
    2.7499931335e+01    6.7873704433e-01
    2.7599922180e+01    6.8158102036e-01
    2.7699968338e+01    6.8441098928e-01
    2.7799972534e+01    6.8720895052e-01
    2.7899881363e+01    6.8998605013e-01
    2.8000001907e+01    6.9273900986e-01
    2.8099903107e+01    6.9546496868e-01
    2.8200061798e+01    6.9817399979e-01
    2.8300027847e+01    7.0084500313e-01
    2.8399848938e+01    7.0348691940e-01
    2.8499996185e+01    7.0610904694e-01
    2.8599878311e+01    7.0870900154e-01
    2.8699928284e+01    7.1128797531e-01
    2.8799922943e+01    7.1383500099e-01
    2.8899953842e+01    7.1636396646e-01
    2.8999998093e+01    7.1885794401e-01
    2.9099895477e+01    7.2133207321e-01
    2.9200056076e+01    7.2378098965e-01
    2.9299957275e+01    7.2620701790e-01
    2.9399951935e+01    7.2860598564e-01
    2.9499929428e+01    7.3099100590e-01
    2.9599899292e+01    7.3334109783e-01
    2.9699974060e+01    7.3567205667e-01
    2.9799854279e+01    7.3796701431e-01
    2.9900075912e+01    7.4025297165e-01
    3.0000061035e+01    7.4251496792e-01
    3.0099876404e+01    7.5071096420e-01
    3.0200061798e+01    7.5891798735e-01
    3.0300052643e+01    7.6709097624e-01
    3.0400020599e+01    7.7523297071e-01
    3.0499977112e+01    7.8336399794e-01
    3.0600040436e+01    7.9146599770e-01
    3.0699951172e+01    7.9955196381e-01
    3.0799909592e+01    8.0762493610e-01
    3.0899894714e+01    8.1568694115e-01
    3.1000030518e+01    8.2372599840e-01
    3.1099969864e+01    8.3173495531e-01
    3.1200069427e+01    8.3974397182e-01
    3.1299901962e+01    8.4773093462e-01
    3.1399974823e+01    8.5573995113e-01
    3.1500015259e+01    8.6374700069e-01
    3.1599910736e+01    8.7174797058e-01
    3.1699909210e+01    8.7976998091e-01
    3.1800012589e+01    8.8779896498e-01
    3.1900062561e+01    8.9583200216e-01
    3.1999864578e+01    9.0383595228e-01
    3.2099925995e+01    9.1185694933e-01
    3.2200077057e+01    9.1985797882e-01
    3.2299915314e+01    9.2783093452e-01
    3.2399955750e+01    9.3579494953e-01
    3.2499919891e+01    9.4373494387e-01
    3.2600017548e+01    9.5164597034e-01
    3.2699851990e+01    9.5949304104e-01
    3.2799995422e+01    9.6733695269e-01
    3.2899856567e+01    9.7512191534e-01
    3.3000007629e+01    9.8289597034e-01
    3.3099979401e+01    9.9060893059e-01
    3.3200016022e+01    9.9828594923e-01
    3.3299987793e+01    1.0059149265e+00
    3.3399864197e+01    1.0134730339e+00
    3.3499961853e+01    1.0209980011e+00
    3.3599975586e+01    1.0284650326e+00
    3.3700000763e+01    1.0358799696e+00
    3.3799991608e+01    1.0432488918e+00
    3.3900009155e+01    1.0505729914e+00
    3.4000007629e+01    1.0578548908e+00
    3.4099880219e+01    1.0650830269e+00
    3.4200004578e+01    1.0722858906e+00
    3.4299964905e+01    1.0794470310e+00
    3.4399917603e+01    1.0865600109e+00
    3.4499828339e+01    1.0936269760e+00
    3.4599933624e+01    1.1006739140e+00
    3.4699954987e+01    1.1076860428e+00
    3.4799873352e+01    1.1146290302e+00
    3.4899955750e+01    1.1215419769e+00
    3.4999908447e+01    1.1283910275e+00
    3.5099910736e+01    1.1351990700e+00
    3.5199901581e+01    1.1419608593e+00
    3.5299911499e+01    1.1486799717e+00
    3.5399845123e+01    1.1553540230e+00
    3.5499839783e+01    1.1619870663e+00
    3.5599937439e+01    1.1685960293e+00
    3.5699993134e+01    1.1751708984e+00
    3.5799934387e+01    1.1816979647e+00
    3.5899810791e+01    1.1881871223e+00
    3.5999977112e+01    1.1946668625e+00
    3.6099861145e+01    1.2010990381e+00
    3.6200016022e+01    1.2075309753e+00
    3.6299839020e+01    1.2139210701e+00
    3.6399993896e+01    1.2202979326e+00
    3.6499908447e+01    1.2266480923e+00
    3.6599979401e+01    1.2329859734e+00
    3.6699825287e+01    1.2392890453e+00
    3.6799823761e+01    1.2455749512e+00
    3.6899974823e+01    1.2518630028e+00
    3.6999916077e+01    1.2581188679e+00
    3.7099925995e+01    1.2643600702e+00
    3.7199920654e+01    1.2705779076e+00
    3.7299957275e+01    1.2767620087e+00
    3.7399879456e+01    1.2829059362e+00
    3.7499877930e+01    1.2890180349e+00
    3.7599975586e+01    1.2950929403e+00
    3.7699924469e+01    1.3011150360e+00
    3.7799831390e+01    1.3070869446e+00
    3.7899868011e+01    1.3130320311e+00
    3.7999893188e+01    1.3189189434e+00
    3.8099914551e+01    1.3247560263e+00
    3.8199794769e+01    1.3305318356e+00
    3.8299816132e+01    1.3362690210e+00
    3.8399826050e+01    1.3419579268e+00
    3.8499778748e+01    1.3475919962e+00
    3.8599788666e+01    1.3531839848e+00
    3.8699916840e+01    1.3587400913e+00
    3.8799854279e+01    1.3642299175e+00
    3.8899909973e+01    1.3696689606e+00
    3.8999935150e+01    1.3750599623e+00
    3.9099838257e+01    1.3804000616e+00
    3.9199783325e+01    1.3856799603e+00
    3.9299758911e+01    1.3909200430e+00
    3.9399883270e+01    1.3961199522e+00
    3.9499965668e+01    1.4012700319e+00
    3.9599819183e+01    1.4063599110e+00
    3.9699924469e+01    1.4114000797e+00
    3.9799835205e+01    1.4163799286e+00
    3.9899757385e+01    1.4213199615e+00
    3.9999778748e+01    1.4262199402e+00
    4.0099807739e+01    1.4388400316e+00
    4.0199932098e+01    1.4514300823e+00
    4.0299900055e+01    1.4639600515e+00
    4.0399944305e+01    1.4764400721e+00
    4.0499847412e+01    1.4888600111e+00
    4.0599800110e+01    1.5012298822e+00
    4.0699798584e+01    1.5135798454e+00
    4.0799919128e+01    1.5259101391e+00
    4.0899780273e+01    1.5381700993e+00
    4.0999797821e+01    1.5504000187e+00
    4.1099735260e+01    1.5625699759e+00
    4.1199829102e+01    1.5747399330e+00
    4.1299777985e+01    1.5868599415e+00
    4.1399822235e+01    1.5989898443e+00
    4.1499774933e+01    1.6110900640e+00
    4.1599792480e+01    1.6232000589e+00
    4.1699855804e+01    1.6353100538e+00
    4.1799743652e+01    1.6473799944e+00
    4.1899883270e+01    1.6594699621e+00
    4.1999763489e+01    1.6715098619e+00
    4.2099826813e+01    1.6835398674e+00
    4.2199840546e+01    1.6955400705e+00
    4.2299713135e+01    1.7074700594e+00
    4.2399791718e+01    1.7193900347e+00
    4.2499843597e+01    1.7312600613e+00
    4.2599903107e+01    1.7430599928e+00
    4.2699798584e+01    1.7547799349e+00
    4.2799884796e+01    1.7664399147e+00
    4.2899871826e+01    1.7780201435e+00
    4.2999790192e+01    1.7895300388e+00
    4.3099830627e+01    1.8009800911e+00
    4.3199855804e+01    1.8123500347e+00
    4.3299774170e+01    1.8236099482e+00
    4.3399753571e+01    1.8347898722e+00
    4.3499862671e+01    1.8458899260e+00
    4.3599750519e+01    1.8568700552e+00
    4.3699890137e+01    1.8678001165e+00
    4.3799900055e+01    1.8786200285e+00
    4.3899784088e+01    1.8893599510e+00
    4.3999893188e+01    1.9000300169e+00
    4.4099800110e+01    1.9105999470e+00
    4.4199703217e+01    1.9211101532e+00
    4.4299705505e+01    1.9315301180e+00
    4.4399883270e+01    1.9419101477e+00
    4.4499885559e+01    1.9521800280e+00
    4.4599761963e+01    1.9623700380e+00
    4.4699752808e+01    1.9725099802e+00
    4.4799789429e+01    1.9825499058e+00
    4.4899738312e+01    1.9925098419e+00
    4.4999687195e+01    2.0023601055e+00
    4.5099723816e+01    2.0121400356e+00
    4.5199756622e+01    2.0218400955e+00
    4.5299682617e+01    2.0314400196e+00
    4.5399795532e+01    2.0409898758e+00
    4.5499702454e+01    2.0504398346e+00
    4.5599853516e+01    2.0598399639e+00
    4.5699703217e+01    2.0691499710e+00
    4.5799716949e+01    2.0784001350e+00
    4.5899711609e+01    2.0875899792e+00
    4.5999744415e+01    2.0967199802e+00
    4.6099735260e+01    2.1057898998e+00
    4.6199752808e+01    2.1148099899e+00
    4.6299736023e+01    2.1237897873e+00
    4.6399768829e+01    2.1327199936e+00
    4.6499744415e+01    2.1415901184e+00
    4.6599681854e+01    2.1504199505e+00
    4.6699802399e+01    2.1592199802e+00
    4.6799652100e+01    2.1679499149e+00
    4.6899806976e+01    2.1766700745e+00
    4.6999652863e+01    2.1853101254e+00
    4.7099697113e+01    2.1939401627e+00
    4.7199802399e+01    2.2025101185e+00
    4.7299671173e+01    2.2109999657e+00
    4.7399833679e+01    2.2194497585e+00
    4.7499713898e+01    2.2277998924e+00
    4.7599830627e+01    2.2361102104e+00
    4.7699699402e+01    2.2443099022e+00
    4.7799736023e+01    2.2524600029e+00
    4.7899791718e+01    2.2605199814e+00
    4.7999740601e+01    2.2684900761e+00
    4.8099731445e+01    2.2763602734e+00
    4.8199649811e+01    2.2841498852e+00
    4.8299701691e+01    2.2918701172e+00
    4.8399677277e+01    2.2994799614e+00
    4.8499656677e+01    2.3070201874e+00
    4.8599678040e+01    2.3144698143e+00
    4.8699718475e+01    2.3218400478e+00
    4.8799751282e+01    2.3291301727e+00
    4.8899623871e+01    2.3363099098e+00
    4.8999767303e+01    2.3434202671e+00
    4.9099685669e+01    2.3504297733e+00
    4.9199615479e+01    2.3573501110e+00
    4.9299808502e+01    2.3642098904e+00
    4.9399639130e+01    2.3709599972e+00
    4.9499610901e+01    2.3776302338e+00
    4.9599811554e+01    2.3842298985e+00
    4.9699596405e+01    2.3907101154e+00
    4.9799747467e+01    2.3971300125e+00
    4.9899719238e+01    2.4034500122e+00
    4.9999626160e+01    2.4096698761e+00
    5.0099685669e+01    2.4253902435e+00
    5.0199676514e+01    2.4410500526e+00
    5.0299667358e+01    2.4566299915e+00
    5.0399646759e+01    2.4721097946e+00
    5.0499629974e+01    2.4875202179e+00
    5.0599639893e+01    2.5028400421e+00
    5.0699691772e+01    2.5181000233e+00
    5.0799648285e+01    2.5332899094e+00
    5.0899631500e+01    2.5484101772e+00
    5.0999614716e+01    2.5634601116e+00
    5.1099700928e+01    2.5784499645e+00
    5.1199695587e+01    2.5933699608e+00
    5.1299648285e+01    2.6082303524e+00
    5.1399738312e+01    2.6230902672e+00
    5.1499694824e+01    2.6379101276e+00
    5.1599666595e+01    2.6527099609e+00
    5.1699573517e+01    2.6674597263e+00
    5.1799713135e+01    2.6822202206e+00
    5.1899635315e+01    2.6969201565e+00
    5.1999603271e+01    2.7115898132e+00
    5.2099681854e+01    2.7262198925e+00
    5.2199657440e+01    2.7407701015e+00
    5.2299705505e+01    2.7552702427e+00
    5.2399719238e+01    2.7696900368e+00
    5.2499656677e+01    2.7840299606e+00
    5.2599555969e+01    2.7982602119e+00
    5.2699668884e+01    2.8124201298e+00
    5.2799690247e+01    2.8264601231e+00
    5.2899730682e+01    2.8404099941e+00
    5.2999561310e+01    2.8542296886e+00
    5.3099609375e+01    2.8679602146e+00
    5.3199691772e+01    2.8815801144e+00
    5.3299663544e+01    2.8950700760e+00
    5.3399745941e+01    2.9084298611e+00
    5.3499675751e+01    2.9216301441e+00
    5.3599544525e+01    2.9347100258e+00
    5.3699661255e+01    2.9476900101e+00
    5.3799629211e+01    2.9605298042e+00
    5.3899635315e+01    2.9732496738e+00
    5.3999565125e+01    2.9858601093e+00
    5.4099536896e+01    2.9983599186e+00
    5.4199623108e+01    3.0107598305e+00
    5.4299598694e+01    3.0230298042e+00
    5.4399536133e+01    3.0351800919e+00
    5.4499610901e+01    3.0472500324e+00
    5.4599662781e+01    3.0592000484e+00
    5.4699691772e+01    3.0710399151e+00
    5.4799571991e+01    3.0827403069e+00
    5.4899662018e+01    3.0943400860e+00
    5.4999626160e+01    3.1057999134e+00
    5.5099693298e+01    3.1171298027e+00
    5.5199710846e+01    3.1283597946e+00
    5.5299575806e+01    3.1394400597e+00
    5.5399593353e+01    3.1504299641e+00
    5.5499725342e+01    3.1613399982e+00
    5.5599666595e+01    3.1721298695e+00
    5.5699638367e+01    3.1828002930e+00
    5.5799564362e+01    3.1933901310e+00
    5.5899692535e+01    3.2039000988e+00
    5.5999519348e+01    3.2143099308e+00
    5.6099552155e+01    3.2246501446e+00
    5.6199508667e+01    3.2349100113e+00
    5.6299510956e+01    3.2451200485e+00
    5.6399520874e+01    3.2552597523e+00
    5.6499530792e+01    3.2653303146e+00
    5.6599666595e+01    3.2753500938e+00
    5.6699554443e+01    3.2852799892e+00
    5.6799636841e+01    3.2951798439e+00
    5.6899524689e+01    3.3049898148e+00
    5.6999656677e+01    3.3147702217e+00
    5.7099506378e+01    3.3244600296e+00
    5.7199676514e+01    3.3341000080e+00
    5.7299606323e+01    3.3436598778e+00
    5.7399631500e+01    3.3531203270e+00
    5.7499687195e+01    3.3625001907e+00
    5.7599567413e+01    3.3717699051e+00
    5.7699501038e+01    3.3809299469e+00
    5.7799549103e+01    3.3900101185e+00
    5.7899608612e+01    3.3989801407e+00
    5.7999618530e+01    3.4078299999e+00
    5.8099586487e+01    3.4165599346e+00
    5.8199668884e+01    3.4251897335e+00
    5.8299545288e+01    3.4337000847e+00
    5.8399646759e+01    3.4421100616e+00
    5.8499511719e+01    3.4503698349e+00
    5.8599620819e+01    3.4585597515e+00
    5.8699630737e+01    3.4666302204e+00
    5.8799545288e+01    3.4745900631e+00
    5.8899639130e+01    3.4824399948e+00
    5.8999530792e+01    3.4901599884e+00
    5.9099460602e+01    3.4977602959e+00
    5.9199504852e+01    3.5052700043e+00
    5.9299480438e+01    3.5126600266e+00
    5.9399562836e+01    3.5199499130e+00
    5.9499565125e+01    3.5271198750e+00
    5.9599658966e+01    3.5341801643e+00
    5.9699554443e+01    3.5411200523e+00
    5.9799472809e+01    3.5479400158e+00
    5.9899600983e+01    3.5546598434e+00
    5.9999465942e+01    3.5612502098e+00
    6.0099582672e+01    3.5789299011e+00
    6.0199554443e+01    3.5965299606e+00
    6.0299484253e+01    3.6140203476e+00
    6.0399536133e+01    3.6314201355e+00
    6.0499519348e+01    3.6487097740e+00
    6.0599563599e+01    3.6658897400e+00
    6.0699558258e+01    3.6829795837e+00
    6.0799499512e+01    3.7000002861e+00
    6.0899497986e+01    3.7169399261e+00
    6.0999469757e+01    3.7337698936e+00
    6.1099544525e+01    3.7505397797e+00
    6.1199432373e+01    3.7671999931e+00
    6.1299583435e+01    3.7838497162e+00
    6.1399444580e+01    3.8004298210e+00
    6.1499572754e+01    3.8170104027e+00
    6.1599548340e+01    3.8335499763e+00
    6.1699455261e+01    3.8500399590e+00
    6.1799560547e+01    3.8665304184e+00
    6.1899486542e+01    3.8829498291e+00
    6.1999435425e+01    3.8993296623e+00
    6.2099456787e+01    3.9156703949e+00
    6.2199558258e+01    3.9319305420e+00
    6.2299617767e+01    3.9481196404e+00
    6.2399425507e+01    3.9642000198e+00
    6.2499603271e+01    3.9802298546e+00
    6.2599567413e+01    3.9960999489e+00
    6.2699413300e+01    4.0118498802e+00
    6.2799507141e+01    4.0275201797e+00
    6.2899589539e+01    4.0430493355e+00
    6.2999412537e+01    4.0584297180e+00
    6.3099422455e+01    4.0737099648e+00
    6.3199455261e+01    4.0888600349e+00
    6.3299446106e+01    4.1038498878e+00
    6.3399456024e+01    4.1186804771e+00
    6.3499397278e+01    4.1333503723e+00
    6.3599533081e+01    4.1478900909e+00
    6.3699489594e+01    4.1622600555e+00
    6.3799480438e+01    4.1764898300e+00
    6.3899570465e+01    4.1905899048e+00
    6.3999572754e+01    4.2045502663e+00
    6.4099426270e+01    4.2183499336e+00
    6.4199584961e+01    4.2320604324e+00
    6.4299537659e+01    4.2456197739e+00
    6.4399421692e+01    4.2590198517e+00
    6.4499435425e+01    4.2723202705e+00
    6.4599548340e+01    4.2854900360e+00
    6.4699539185e+01    4.2985095978e+00
    6.4799568176e+01    4.3113994598e+00
    6.4899490356e+01    4.3241300583e+00
    6.4999450684e+01    4.3367104530e+00
    6.5099456787e+01    4.3491401672e+00
    6.5199470520e+01    4.3614296913e+00
    6.5299545288e+01    4.3736004829e+00
    6.5399368286e+01    4.3856096268e+00
    6.5499343872e+01    4.3975100517e+00
    6.5599479675e+01    4.4093198776e+00
    6.5699546814e+01    4.4210100174e+00
    6.5799415588e+01    4.4325499535e+00
    6.5899414062e+01    4.4440498352e+00
    6.5999420166e+01    4.4553704262e+00
    6.6099540710e+01    4.4666604996e+00
    6.6199424744e+01    4.4778504372e+00
    6.6299369812e+01    4.4889502525e+00
    6.6399436951e+01    4.5000300407e+00
    6.6499336243e+01    4.5109896660e+00
    6.6599365234e+01    4.5219497681e+00
    6.6699462891e+01    4.5327095985e+00
    6.6799446106e+01    4.5435395241e+00
    6.6899482727e+01    4.5541901588e+00
    6.6999427795e+01    4.5649003983e+00
    6.7099525452e+01    4.5754098892e+00
    6.7199378967e+01    4.5858998299e+00
    6.7299499512e+01    4.5963296890e+00
    6.7399513245e+01    4.6066799164e+00
    6.7499488831e+01    4.6168494225e+00
    6.7599449158e+01    4.6269001961e+00
    6.7699432373e+01    4.6369404793e+00
    6.7799400330e+01    4.6467700005e+00
    6.7899360657e+01    4.6564798355e+00
    6.7999481201e+01    4.6661000252e+00
    6.8099403381e+01    4.6755599976e+00
    6.8199508667e+01    4.6849298477e+00
    6.8299400330e+01    4.6941394806e+00
    6.8399353027e+01    4.7032103539e+00
    6.8499351501e+01    4.7122201920e+00
    6.8599487305e+01    4.7210702896e+00
    6.8699516296e+01    4.7297301292e+00
    6.8799362183e+01    4.7383198738e+00
    6.8899291992e+01    4.7467598915e+00
    6.8999465942e+01    4.7551698685e+00
    6.9099456787e+01    4.7633194923e+00
    6.9199325562e+01    4.7713704109e+00
    6.9299392700e+01    4.7793302536e+00
    6.9399482727e+01    4.7870602608e+00
    6.9499481201e+01    4.7947802544e+00
    6.9599464417e+01    4.8022699356e+00
    6.9699409485e+01    4.8096499443e+00
    6.9799278259e+01    4.8169097900e+00
    6.9899353027e+01    4.8240795135e+00
    6.9999443054e+01    4.8311004639e+00
    7.0099296570e+01    4.8489799500e+00
    7.0199432373e+01    4.8668398857e+00
    7.0299468994e+01    4.8845906258e+00
    7.0399482727e+01    4.9021401405e+00
    7.0499465942e+01    4.9196696281e+00
    7.0599403381e+01    4.9370002747e+00
    7.0699348450e+01    4.9542202950e+00
    7.0799446106e+01    4.9713997841e+00
    7.0899421692e+01    4.9884305000e+00
    7.0999412537e+01    5.0054402351e+00
    7.1099365234e+01    5.0222797394e+00
    7.1199287415e+01    5.0390405655e+00
    7.1299369812e+01    5.0557904243e+00
    7.1399360657e+01    5.0724296570e+00
    7.1499412537e+01    5.0891094208e+00
    7.1599433899e+01    5.1057701111e+00
    7.1699432373e+01    5.1223001480e+00
    7.1799446106e+01    5.1388797760e+00
    7.1899307251e+01    5.1552600861e+00
    7.1999305725e+01    5.1717500687e+00
    7.2099304199e+01    5.1880598068e+00
    7.2199462891e+01    5.2043404579e+00
    7.2299308777e+01    5.2205400467e+00
    7.2399261475e+01    5.2366194725e+00
    7.2499252319e+01    5.2526702881e+00
    7.2599418640e+01    5.2685499191e+00
    7.2699394226e+01    5.2842497826e+00
    7.2799438477e+01    5.2999005318e+00
    7.2899368286e+01    5.3153600693e+00
    7.2999374390e+01    5.3307499886e+00
    7.3099311829e+01    5.3459305763e+00
    7.3199356079e+01    5.3610105515e+00
    7.3299224854e+01    5.3758001328e+00
    7.3399345398e+01    5.3905200958e+00
    7.3499366760e+01    5.4051103592e+00
    7.3599327087e+01    5.4194498062e+00
    7.3699249268e+01    5.4336404800e+00
    7.3799324036e+01    5.4477100372e+00
    7.3899368286e+01    5.4616403580e+00
    7.3999382019e+01    5.4753293991e+00
    7.4099380493e+01    5.4889707565e+00
    7.4199363708e+01    5.5023698807e+00
    7.4299316406e+01    5.5156297684e+00
    7.4399253845e+01    5.5288505554e+00
    7.4499412537e+01    5.5418300629e+00
    7.4599296570e+01    5.5546598434e+00
    7.4699409485e+01    5.5673398972e+00
    7.4799354553e+01    5.5798397064e+00
    7.4899284363e+01    5.5921697617e+00
    7.4999206543e+01    5.6043405533e+00
    7.5099205017e+01    5.6163101196e+00
    7.5199317932e+01    5.6282701492e+00
    7.5299339294e+01    5.6399106979e+00
    7.5399337769e+01    5.6515197754e+00
    7.5499191284e+01    5.6628494263e+00
    7.5599342346e+01    5.6742296219e+00
    7.5699386597e+01    5.6853103638e+00
    7.5799392700e+01    5.6963796616e+00
    7.5899322510e+01    5.7072696686e+00
    7.5999389648e+01    5.7180900574e+00
    7.6099403381e+01    5.7287397385e+00
    7.6199203491e+01    5.7393798828e+00
    7.6299346924e+01    5.7498903275e+00
    7.6399261475e+01    5.7603197098e+00
    7.6499305725e+01    5.7706098557e+00
    7.6599304199e+01    5.7809305191e+00
    7.6699218750e+01    5.7911100388e+00
    7.6799270630e+01    5.8012495041e+00
    7.6899269104e+01    5.8112506866e+00
    7.6999343872e+01    5.8212299347e+00
    7.7099189758e+01    5.8311300278e+00
    7.7199188232e+01    5.8408803940e+00
    7.7299247742e+01    5.8505897522e+00
    7.7399238586e+01    5.8601293564e+00
    7.7499320984e+01    5.8696098328e+00
    7.7599205017e+01    5.8789501190e+00
    7.7699378967e+01    5.8881397247e+00
    7.7799186707e+01    5.8972597122e+00
    7.7899261475e+01    5.9062204361e+00
    7.7999320984e+01    5.9149494171e+00
    7.8099334717e+01    5.9236993790e+00
    7.8199234009e+01    5.9322004318e+00
    7.8299194336e+01    5.9405012131e+00
    7.8399345398e+01    5.9487009048e+00
    7.8499305725e+01    5.9568004608e+00
    7.8599227905e+01    5.9646987915e+00
    7.8699157715e+01    5.9724998474e+00
    7.8799179077e+01    5.9801006317e+00
    7.8899230957e+01    5.9876003265e+00
    7.8999183655e+01    5.9949007034e+00
    7.9099304199e+01    6.0020999908e+00
    7.9199295044e+01    6.0092000961e+00
    7.9299331665e+01    6.0162000656e+00
    7.9399345398e+01    6.0228004456e+00
    7.9499176025e+01    6.0294990540e+00
    7.9599327087e+01    6.0359010696e+00
    7.9699317932e+01    6.0420999527e+00
    7.9799293518e+01    6.0482988358e+00
    7.9899314880e+01    6.0542001724e+00
    7.9999259949e+01    6.0600004196e+00
    8.0099311829e+01    6.0774002075e+00
    8.0199172974e+01    6.0946006775e+00
    8.0299324036e+01    6.1118011475e+00
    8.0399116516e+01    6.1286993027e+00
    8.0499320984e+01    6.1455993652e+00
    8.0599327087e+01    6.1622991562e+00
    8.0699157715e+01    6.1787996292e+00
    8.0799247742e+01    6.1952009201e+00
    8.0899261475e+01    6.2116003036e+00
    8.0999305725e+01    6.2279005051e+00
    8.1099128723e+01    6.2439002991e+00
    8.1199234009e+01    6.2599000931e+00
    8.1299201965e+01    6.2758998871e+00
    8.1399314880e+01    6.2918004990e+00
    8.1499206543e+01    6.3076009750e+00
    8.1599288940e+01    6.3233003616e+00
    8.1699142456e+01    6.3390007019e+00
    8.1799148560e+01    6.3547000885e+00
    8.1899230957e+01    6.3704004288e+00
    8.1999237061e+01    6.3858995438e+00
    8.2099143982e+01    6.4013004303e+00
    8.2199150085e+01    6.4165992737e+00
    8.2299232483e+01    6.4320001602e+00
    8.2399261475e+01    6.4470996857e+00
    8.2499206543e+01    6.4621009827e+00
    8.2599227905e+01    6.4770002365e+00
    8.2699218750e+01    6.4917001724e+00
    8.2799079895e+01    6.5062999725e+00
    8.2899177551e+01    6.5205993652e+00
    8.2999290466e+01    6.5348997116e+00
    8.3099075317e+01    6.5489997864e+00
    8.3199264526e+01    6.5629005432e+00
    8.3299148560e+01    6.5765991211e+00
    8.3399276733e+01    6.5901994705e+00
    8.3499237061e+01    6.6034994125e+00
    8.3599136353e+01    6.6165990829e+00
    8.3699256897e+01    6.6295995712e+00
    8.3799087524e+01    6.6423997879e+00
    8.3899261475e+01    6.6550006866e+00
    8.3999275208e+01    6.6674003601e+00
    8.4099273682e+01    6.6795997620e+00
    8.4199188232e+01    6.6915998459e+00
    8.4299263000e+01    6.7035007477e+00
    8.4399230957e+01    6.7151002884e+00
    8.4499137878e+01    6.7266998291e+00
    8.4599258423e+01    6.7378997803e+00
    8.4699195862e+01    6.7490987778e+00
    8.4799247742e+01    6.7601003647e+00
    8.4899253845e+01    6.7707996368e+00
    8.4999198914e+01    6.7813997269e+00
    8.5099052429e+01    6.7917995453e+00
    8.5199050903e+01    6.8019008636e+00
    8.5299072266e+01    6.8119001389e+00
    8.5399154663e+01    6.8218011856e+00
    8.5499069214e+01    6.8313989639e+00
    8.5599258423e+01    6.8408994675e+00
    8.5699234009e+01    6.8501996994e+00
    8.5799194336e+01    6.8594007492e+00
    8.5899215698e+01    6.8684997559e+00
    8.5999221802e+01    6.8773994446e+00
    8.6099235535e+01    6.8861007690e+00
    8.6199050903e+01    6.8947992325e+00
    8.6299240112e+01    6.9033994675e+00
    8.6399192810e+01    6.9117994308e+00
    8.6499214172e+01    6.9202003479e+00
    8.6599220276e+01    6.9284000397e+00
    8.6699172974e+01    6.9364004135e+00
    8.6799232483e+01    6.9445009232e+00
    8.6899169922e+01    6.9523992538e+00
    8.6999031067e+01    6.9601993561e+00
    8.7099098206e+01    6.9680004120e+00
    8.7199157715e+01    6.9755992889e+00
    8.7299041748e+01    6.9830999374e+00
    8.7399177551e+01    6.9904003143e+00
    8.7499122620e+01    6.9976997375e+00
    8.7599082947e+01    7.0047988892e+00
    8.7699081421e+01    7.0117006302e+00
    8.7799179077e+01    7.0184001923e+00
    8.7899093628e+01    7.0249996185e+00
    8.7999046326e+01    7.0313997269e+00
    8.8099174500e+01    7.0376005173e+00
    8.8199073792e+01    7.0437002182e+00
    8.8299110413e+01    7.0495986938e+00
    8.8399017334e+01    7.0552997589e+00
    8.8499122620e+01    7.0608997345e+00
    8.8599021912e+01    7.0662002563e+00
    8.8699081421e+01    7.0713996887e+00
    8.8799148560e+01    7.0764999390e+00
    8.8899085999e+01    7.0813007355e+00
    8.8999099731e+01    7.0859994888e+00
    8.9099205017e+01    7.0905008316e+00
    8.9199028015e+01    7.0948009491e+00
    8.9299064636e+01    7.0988998413e+00
    8.9399162292e+01    7.1029005051e+00
    8.9499038696e+01    7.1067008972e+00
    8.9599075317e+01    7.1102008820e+00
    8.9699111938e+01    7.1135997772e+00
    8.9799064636e+01    7.1167984009e+00
    8.9899185181e+01    7.1198997498e+00
    8.9998992920e+01    7.1226997375e+00
    9.0099151611e+01    7.1397991180e+00
    9.0199119568e+01    7.1567993164e+00
    9.0299087524e+01    7.1735992432e+00
    9.0399124146e+01    7.1902008057e+00
    9.0498970032e+01    7.2067985535e+00
    9.0599006653e+01    7.2231006622e+00
    9.0699089050e+01    7.2392005920e+00
    9.0799148560e+01    7.2553005219e+00
    9.0899078369e+01    7.2712001801e+00
    9.0999145508e+01    7.2870006561e+00
    9.1099174500e+01    7.3024997711e+00
    9.1198959351e+01    7.3179988861e+00
    9.1299110413e+01    7.3334999084e+00
    9.1399162292e+01    7.3486995697e+00
    9.1499038696e+01    7.3640003204e+00
    9.1599006653e+01    7.3790988922e+00
    9.1698989868e+01    7.3942012787e+00
    9.1799064636e+01    7.4092006683e+00
    9.1899017334e+01    7.4242000580e+00
    9.1999015808e+01    7.4389991760e+00
    9.2099136353e+01    7.4538002014e+00
    9.2198966980e+01    7.4684009552e+00
    9.2299064636e+01    7.4829006195e+00
    9.2399040222e+01    7.4972000122e+00
    9.2499015808e+01    7.5114002228e+00
    9.2599029541e+01    7.5252990723e+00
    9.2698974609e+01    7.5392017365e+00
    9.2798995972e+01    7.5528984070e+00
    9.2899101257e+01    7.5662994385e+00
    9.2998962402e+01    7.5795001984e+00
    9.3099075317e+01    7.5925998688e+00
    9.3199119568e+01    7.6054000854e+00
    9.3299018860e+01    7.6180000305e+00
    9.3398986816e+01    7.6303997040e+00
    9.3499046326e+01    7.6424999237e+00
    9.3598922729e+01    7.6543006897e+00
    9.3699119568e+01    7.6659984589e+00
    9.3799003601e+01    7.6773986816e+00
    9.3898918152e+01    7.6886005402e+00
    9.3998939514e+01    7.6996002197e+00
    9.4098999023e+01    7.7103004456e+00
    9.4199104309e+01    7.7209014893e+00
    9.4299110413e+01    7.7311992645e+00
    9.4398994446e+01    7.7411994934e+00
    9.4499084473e+01    7.7511005402e+00
    9.4599082947e+01    7.7607994080e+00
    9.4698951721e+01    7.7702007294e+00
    9.4799072266e+01    7.7795009613e+00
    9.4898994446e+01    7.7884998322e+00
    9.4998962402e+01    7.7972011566e+00
    9.5098999023e+01    7.8057003021e+00
    9.5199066162e+01    7.8139991760e+00
    9.5298904419e+01    7.8220005035e+00
    9.5398895264e+01    7.8297996521e+00
    9.5499015808e+01    7.8374004364e+00
    9.5598899841e+01    7.8449001312e+00
    9.5699020386e+01    7.8521003723e+00
    9.5799041748e+01    7.8591995239e+00
    9.5898956299e+01    7.8659992218e+00
    9.5999015808e+01    7.8727989197e+00
    9.6099044800e+01    7.8794002533e+00
    9.6199089050e+01    7.8856983185e+00
    9.6299034119e+01    7.8920001984e+00
    9.6398971558e+01    7.8980998993e+00
    9.6499053955e+01    7.9041004181e+00
    9.6599029541e+01    7.9099998474e+00
    9.6699066162e+01    7.9157009125e+00
    9.6799049377e+01    7.9212989807e+00
    9.6898941040e+01    7.9268016815e+00
    9.6998970032e+01    7.9321002960e+00
    9.7099044800e+01    7.9374008179e+00
    9.7199058533e+01    7.9425010681e+00
    9.7298988342e+01    7.9475002289e+00
    9.7399009705e+01    7.9521999359e+00
    9.7499053955e+01    7.9568004608e+00
    9.7599075317e+01    7.9610996246e+00
    9.7699073792e+01    7.9654006958e+00
    9.7798919678e+01    7.9694004059e+00
    9.7898895264e+01    7.9731998444e+00
    9.7999069214e+01    7.9769001007e+00
    9.8098884583e+01    7.9801998138e+00
    9.8199005127e+01    7.9834003448e+00
    9.8298919678e+01    7.9862995148e+00
    9.8398910522e+01    7.9892005920e+00
    9.8499015808e+01    7.9917011261e+00
    9.8598884583e+01    7.9940013885e+00
    9.8699058533e+01    7.9962005615e+00
    9.8799003601e+01    7.9980983734e+00
    9.8898849487e+01    7.9997997284e+00
    9.8998855591e+01    8.0013008118e+00
    9.9098876953e+01    8.0025997162e+00
    9.9199005127e+01    8.0036010742e+00
    9.9298965454e+01    8.0044002533e+00
    9.9398902893e+01    8.0051002502e+00
    9.9498863220e+01    8.0054988861e+00
    9.9599044800e+01    8.0056991577e+00
    9.9698966980e+01    8.0057010651e+00
    9.9798950195e+01    8.0053997040e+00
    9.9898834229e+01    8.0048999786e+00
    9.9998825073e+01    8.0042991638e+00
    1.0009898376e+02    8.0207004547e+00
    1.0019901276e+02    8.0371990204e+00
    1.0029886627e+02    8.0535011292e+00
    1.0039890289e+02    8.0694999695e+00
    1.0049902344e+02    8.0853996277e+00
    1.0059900665e+02    8.1009998322e+00
    1.0069889832e+02    8.1165008545e+00
    1.0079897308e+02    8.1318016052e+00
    1.0089884186e+02    8.1469001770e+00
    1.0099902344e+02    8.1619014740e+00
    1.0109886932e+02    8.1767005920e+00
    1.0119885254e+02    8.1912975311e+00
    1.0129898834e+02    8.2058982849e+00
    1.0139900208e+02    8.2203006744e+00
    1.0149897003e+02    8.2346992493e+00
    1.0159896088e+02    8.2489013672e+00
    1.0169898987e+02    8.2630996704e+00
    1.0179892731e+02    8.2772006989e+00
    1.0189880371e+02    8.2912006378e+00
    1.0199880981e+02    8.3052005768e+00
    1.0209893799e+02    8.3188991547e+00
    1.0219882965e+02    8.3325023651e+00
    1.0229879761e+02    8.3460006714e+00
    1.0239878845e+02    8.3592987061e+00
    1.0249894714e+02    8.3723983765e+00
    1.0259896088e+02    8.3853988647e+00
    1.0269893646e+02    8.3981018066e+00
    1.0279888916e+02    8.4105014801e+00
    1.0289895630e+02    8.4226989746e+00
    1.0299890900e+02    8.4348011017e+00
    1.0309889984e+02    8.4464988708e+00
    1.0319882202e+02    8.4581012726e+00
    1.0329881287e+02    8.4692993164e+00
    1.0339878082e+02    8.4803009033e+00
    1.0349893188e+02    8.4910011292e+00
    1.0359895325e+02    8.5012989044e+00
    1.0369880676e+02    8.5113983154e+00
    1.0379884338e+02    8.5212001801e+00
    1.0389894104e+02    8.5309009552e+00
    1.0399894714e+02    8.5401992798e+00
    1.0409890747e+02    8.5493011475e+00
    1.0419888306e+02    8.5580997467e+00
    1.0429885101e+02    8.5667018890e+00
    1.0439877319e+02    8.5750007629e+00
    1.0449878693e+02    8.5831012726e+00
    1.0459877777e+02    8.5909004211e+00
    1.0469895172e+02    8.5984992981e+00
    1.0479891968e+02    8.6057987213e+00
    1.0489895630e+02    8.6126995087e+00
    1.0499881744e+02    8.6194992065e+00
    1.0509893799e+02    8.6259994507e+00
    1.0519880676e+02    8.6321983337e+00
    1.0529894257e+02    8.6380996704e+00
    1.0539895630e+02    8.6439018250e+00
    1.0549884033e+02    8.6492996216e+00
    1.0559873962e+02    8.6546001434e+00
    1.0569889832e+02    8.6595993042e+00
    1.0579895020e+02    8.6645011902e+00
    1.0589877319e+02    8.6690006256e+00
    1.0599878693e+02    8.6734981537e+00
    1.0609889984e+02    8.6777000427e+00
    1.0619886780e+02    8.6818008423e+00
    1.0629882050e+02    8.6858005524e+00
    1.0639894104e+02    8.6895008087e+00
    1.0649875641e+02    8.6930999756e+00
    1.0659877014e+02    8.6965980530e+00
    1.0669879913e+02    8.6998996735e+00
    1.0679876709e+02    8.7030982971e+00
    1.0689888000e+02    8.7062988281e+00
    1.0699890137e+02    8.7092018127e+00
    1.0709871674e+02    8.7119998932e+00
    1.0719885254e+02    8.7146015167e+00
    1.0729888153e+02    8.7170982361e+00
    1.0739882660e+02    8.7193012238e+00
    1.0749890137e+02    8.7212982178e+00
    1.0759877014e+02    8.7232017517e+00
    1.0769892120e+02    8.7248973846e+00
    1.0779872894e+02    8.7263011932e+00
    1.0789877319e+02    8.7274990082e+00
    1.0799880219e+02    8.7285003662e+00
    1.0809880829e+02    8.7291984558e+00
    1.0819882965e+02    8.7296009064e+00
    1.0829878235e+02    8.7298984528e+00
    1.0839881134e+02    8.7299995422e+00
    1.0849873352e+02    8.7297000885e+00
    1.0859876251e+02    8.7292995453e+00
    1.0869891357e+02    8.7285022736e+00
    1.0879875946e+02    8.7276000977e+00
    1.0889871216e+02    8.7264995575e+00
    1.0899878693e+02    8.7250995636e+00
    1.0909886169e+02    8.7234020233e+00
    1.0919888306e+02    8.7215003967e+00
    1.0929886627e+02    8.7194004059e+00
    1.0939882660e+02    8.7168998718e+00
    1.0949874878e+02    8.7144012451e+00
    1.0959880829e+02    8.7115001678e+00
    1.0969870758e+02    8.7083988190e+00
    1.0979886627e+02    8.7049980164e+00
    1.0989874268e+02    8.7014999390e+00
    1.0999870300e+02    8.6976013184e+00
    1.1009868622e+02    8.7145996094e+00
    1.1019883728e+02    8.7318000793e+00
    1.1029869080e+02    8.7484970093e+00
    1.1039888000e+02    8.7651977539e+00
    1.1049868011e+02    8.7814979553e+00
    1.1059870911e+02    8.7978019714e+00
    1.1069869232e+02    8.8137016296e+00
    1.1079868317e+02    8.8294982910e+00
    1.1089875793e+02    8.8451004028e+00
    1.1099880981e+02    8.8605995178e+00
    1.1109874725e+02    8.8757972717e+00
    1.1119875336e+02    8.8908996582e+00
    1.1129885101e+02    8.9059028625e+00
    1.1139875793e+02    8.9207992554e+00
    1.1149868011e+02    8.9356002808e+00
    1.1159880829e+02    8.9502983093e+00
    1.1169870758e+02    8.9650001526e+00
    1.1179866028e+02    8.9795989990e+00
    1.1189874268e+02    8.9940986633e+00
    1.1199868011e+02    9.0085029602e+00
    1.1209882355e+02    9.0227966309e+00
    1.1219883728e+02    9.0368995667e+00
    1.1229881287e+02    9.0508003235e+00
    1.1239875793e+02    9.0644989014e+00
    1.1249864960e+02    9.0780982971e+00
    1.1259873962e+02    9.0914001465e+00
    1.1269880676e+02    9.1045989990e+00
    1.1279872131e+02    9.1174011230e+00
    1.1289871979e+02    9.1300010681e+00
    1.1299864197e+02    9.1422996521e+00
    1.1309868622e+02    9.1543998718e+00
    1.1319875336e+02    9.1661987305e+00
    1.1329866028e+02    9.1777000427e+00
    1.1339881897e+02    9.1888008118e+00
    1.1349875641e+02    9.1996002197e+00
    1.1359870148e+02    9.2100982666e+00
    1.1369866943e+02    9.2203025818e+00
    1.1379882050e+02    9.2302017212e+00
    1.1389869690e+02    9.2397994995e+00
    1.1399880981e+02    9.2491989136e+00
    1.1409880829e+02    9.2582015991e+00
    1.1419876099e+02    9.2669029236e+00
    1.1429862213e+02    9.2755012512e+00
    1.1439881134e+02    9.2837028503e+00
    1.1449861908e+02    9.2916030884e+00
    1.1459861755e+02    9.2993011475e+00
    1.1469873810e+02    9.3067016602e+00
    1.1479866028e+02    9.3138008118e+00
    1.1489880371e+02    9.3204994202e+00
    1.1499874878e+02    9.3269996643e+00
    1.1509864044e+02    9.3332023621e+00
    1.1519866180e+02    9.3390007019e+00
    1.1529873657e+02    9.3446006775e+00
    1.1539862823e+02    9.3499984741e+00
    1.1549864960e+02    9.3549995422e+00
    1.1559864044e+02    9.3598022461e+00
    1.1569872284e+02    9.3643989563e+00
    1.1579876709e+02    9.3688011169e+00
    1.1589861298e+02    9.3729019165e+00
    1.1599858856e+02    9.3768005371e+00
    1.1609876251e+02    9.3805999756e+00
    1.1619873810e+02    9.3841018677e+00
    1.1629866028e+02    9.3875999451e+00
    1.1639871979e+02    9.3908004761e+00
    1.1649861908e+02    9.3939018250e+00
    1.1659861755e+02    9.3969001770e+00
    1.1669863892e+02    9.3997001648e+00
    1.1679866028e+02    9.4024009705e+00
    1.1689864349e+02    9.4048995972e+00
    1.1699877167e+02    9.4072990417e+00
    1.1709867096e+02    9.4095001221e+00
    1.1719860840e+02    9.4115982056e+00
    1.1729866028e+02    9.4135017395e+00
    1.1739859009e+02    9.4151992798e+00
    1.1749874878e+02    9.4166030884e+00
    1.1759866333e+02    9.4179000854e+00
    1.1769863892e+02    9.4188995361e+00
    1.1779869843e+02    9.4197006226e+00
    1.1789853668e+02    9.4202995300e+00
    1.1799865723e+02    9.4205970764e+00
    1.1809863281e+02    9.4205017090e+00
    1.1819859314e+02    9.4202995300e+00
    1.1829866028e+02    9.4197998047e+00
    1.1839856720e+02    9.4190025330e+00
    1.1849861145e+02    9.4179000854e+00
    1.1859871674e+02    9.4165992737e+00
    1.1869860840e+02    9.4150009155e+00
    1.1879866028e+02    9.4132003784e+00
    1.1889864349e+02    9.4111022949e+00
    1.1899855804e+02    9.4088020325e+00
    1.1909863281e+02    9.4060974121e+00
    1.1919860840e+02    9.4033012390e+00
    1.1929866028e+02    9.4000015259e+00
    1.1939856720e+02    9.3965988159e+00
    1.1949859619e+02    9.3929023743e+00
    1.1959854126e+02    9.3889007568e+00
    1.1969866180e+02    9.3847999573e+00
    1.1979857635e+02    9.3801994324e+00
    1.1989871216e+02    9.3754005432e+00
    1.1999859619e+02    9.3703994751e+00
    1.2009871674e+02    9.3884010315e+00
    1.2019866180e+02    9.4064025879e+00
    1.2029859924e+02    9.4240989685e+00
    1.2039862823e+02    9.4415969849e+00
    1.2049858856e+02    9.4589004517e+00
    1.2059854126e+02    9.4760017395e+00
    1.2069873047e+02    9.4927978516e+00
    1.2079866028e+02    9.5093994141e+00
    1.2089868927e+02    9.5258979797e+00
    1.2099851990e+02    9.5419998169e+00
    1.2109860992e+02    9.5581016541e+00
    1.2119869232e+02    9.5740013123e+00
    1.2129868317e+02    9.5898017883e+00
    1.2139851379e+02    9.6054000854e+00
    1.2149870300e+02    9.6211013794e+00
    1.2159864807e+02    9.6366004944e+00
    1.2169867706e+02    9.6520996094e+00
    1.2179866028e+02    9.6674003601e+00
    1.2189852142e+02    9.6826972961e+00
    1.2199868011e+02    9.6980018616e+00
    1.2209860229e+02    9.7130012512e+00
    1.2219854736e+02    9.7278976440e+00
    1.2229855347e+02    9.7426986694e+00
    1.2239852905e+02    9.7570991516e+00
    1.2249858093e+02    9.7714996338e+00
    1.2259857941e+02    9.7855987549e+00
    1.2269853210e+02    9.7994003296e+00
    1.2279856110e+02    9.8129005432e+00
    1.2289859772e+02    9.8262023926e+00
    1.2299862671e+02    9.8390998840e+00
    1.2309864807e+02    9.8518028259e+00
    1.2319857025e+02    9.8642005920e+00
    1.2329860687e+02    9.8761978149e+00
    1.2339853668e+02    9.8879013062e+00
    1.2349865723e+02    9.8992004395e+00
    1.2359864044e+02    9.9103012085e+00
    1.2369853210e+02    9.9209022522e+00
    1.2379850006e+02    9.9311981201e+00
    1.2389852142e+02    9.9413032532e+00
    1.2399861145e+02    9.9509010315e+00
    1.2409864807e+02    9.9603004456e+00
    1.2419862366e+02    9.9692993164e+00
    1.2429850769e+02    9.9780998230e+00
    1.2439851379e+02    9.9864997864e+00
    1.2449864960e+02    9.9946975708e+00
    1.2459854889e+02    1.0002502441e+01
    1.2469853973e+02    1.0010101318e+01
    1.2479853058e+02    1.0017402649e+01
    1.2489864349e+02    1.0024200439e+01
    1.2499861145e+02    1.0030700684e+01
    1.2509845734e+02    1.0036899567e+01
    1.2519853973e+02    1.0042800903e+01
    1.2529847717e+02    1.0048400879e+01
    1.2539862061e+02    1.0053699493e+01
    1.2549858856e+02    1.0058700562e+01
    1.2559847260e+02    1.0063400269e+01
    1.2569847870e+02    1.0067901611e+01
    1.2579856873e+02    1.0072101593e+01
    1.2589859772e+02    1.0076103210e+01
    1.2599864197e+02    1.0079902649e+01
    1.2609857178e+02    1.0083499908e+01
    1.2619854736e+02    1.0086898804e+01
    1.2629853058e+02    1.0090099335e+01
    1.2639855194e+02    1.0093200684e+01
    1.2649852753e+02    1.0096199036e+01
    1.2659863281e+02    1.0098899841e+01
    1.2669853973e+02    1.0101501465e+01
    1.2679846954e+02    1.0104000092e+01
    1.2689861298e+02    1.0106300354e+01
    1.2699861145e+02    1.0108501434e+01
    1.2709857941e+02    1.0110500336e+01
    1.2719846344e+02    1.0112400055e+01
    1.2729844666e+02    1.0114101410e+01
    1.2739855194e+02    1.0115501404e+01
    1.2749858856e+02    1.0116699219e+01
    1.2759851837e+02    1.0117702484e+01
    1.2769848633e+02    1.0118396759e+01
    1.2779853058e+02    1.0118900299e+01
    1.2789851379e+02    1.0119098663e+01
    1.2799857330e+02    1.0118999481e+01
    1.2809846497e+02    1.0118598938e+01
    1.2819851685e+02    1.0118003845e+01
    1.2829840088e+02    1.0117000580e+01
    1.2839857483e+02    1.0115802765e+01
    1.2849856567e+02    1.0114299774e+01
    1.2859848022e+02    1.0112400055e+01
    1.2869862366e+02    1.0110401154e+01
    1.2879861450e+02    1.0107997894e+01
    1.2889857483e+02    1.0105400085e+01
    1.2899856567e+02    1.0102298737e+01
    1.2909857178e+02    1.0099102020e+01
    1.2919848633e+02    1.0095600128e+01
    1.2929859924e+02    1.0091701508e+01
    1.2939862061e+02    1.0087600708e+01
    1.2949859619e+02    1.0083198547e+01
    1.2959858704e+02    1.0078502655e+01
    1.2969851685e+02    1.0073497772e+01
    1.2979862976e+02    1.0068202972e+01
    1.2989851379e+02    1.0062698364e+01
    1.2999856567e+02    1.0056800842e+01
    1.3009863281e+02    1.0075897217e+01
    1.3019854736e+02    1.0095001221e+01
    1.3029867554e+02    1.0113998413e+01
    1.3039869690e+02    1.0132598877e+01
    1.3049853516e+02    1.0150901794e+01
    1.3059858704e+02    1.0169101715e+01
    1.3069874573e+02    1.0187000275e+01
    1.3079864502e+02    1.0204799652e+01
    1.3089871216e+02    1.0222301483e+01
    1.3099859619e+02    1.0239501953e+01
    1.3109867859e+02    1.0256504059e+01
    1.3119868469e+02    1.0273502350e+01
    1.3129867554e+02    1.0290195465e+01
    1.3139868164e+02    1.0306995392e+01
    1.3149876404e+02    1.0323604584e+01
    1.3159870911e+02    1.0340198517e+01
    1.3169871521e+02    1.0356697083e+01
    1.3179875183e+02    1.0373096466e+01
    1.3189878845e+02    1.0389499664e+01
    1.3199882507e+02    1.0405696869e+01
    1.3209881592e+02    1.0421798706e+01
    1.3219877625e+02    1.0437599182e+01
    1.3229885864e+02    1.0453399658e+01
    1.3239872742e+02    1.0469001770e+01
    1.3249876404e+02    1.0484203339e+01
    1.3259877014e+02    1.0499301910e+01
    1.3269885254e+02    1.0513999939e+01
    1.3279881287e+02    1.0528404236e+01
    1.3289871216e+02    1.0542594910e+01
    1.3299882507e+02    1.0556503296e+01
    1.3309884644e+02    1.0570003510e+01
    1.3319874573e+02    1.0583297729e+01
    1.3329876709e+02    1.0596099854e+01
    1.3339883423e+02    1.0608497620e+01
    1.3349891663e+02    1.0620597839e+01
    1.3359892273e+02    1.0632297516e+01
    1.3369891357e+02    1.0643596649e+01
    1.3379879761e+02    1.0654602051e+01
    1.3389889526e+02    1.0665199280e+01
    1.3399893188e+02    1.0675598145e+01
    1.3409893799e+02    1.0685501099e+01
    1.3419888306e+02    1.0695102692e+01
    1.3429888916e+02    1.0704303741e+01
    1.3439895630e+02    1.0713401794e+01
    1.3449877930e+02    1.0721996307e+01
    1.3459895325e+02    1.0730201721e+01
    1.3469888306e+02    1.0738197327e+01
    1.3479887390e+02    1.0745796204e+01
    1.3489883423e+02    1.0752998352e+01
    1.3499888611e+02    1.0759895325e+01
    1.3509884644e+02    1.0766296387e+01
    1.3519883728e+02    1.0772399902e+01
    1.3529904175e+02    1.0778297424e+01
    1.3539883423e+02    1.0783798218e+01
    1.3549891663e+02    1.0788902283e+01
    1.3559904480e+02    1.0793899536e+01
    1.3569888306e+02    1.0798500061e+01
    1.3579893494e+02    1.0802803040e+01
    1.3589894104e+02    1.0806900024e+01
    1.3599896240e+02    1.0810806274e+01
    1.3609907532e+02    1.0814399719e+01
    1.3619900513e+02    1.0817901611e+01
    1.3629902649e+02    1.0821304321e+01
    1.3639903259e+02    1.0824401855e+01
    1.3649899292e+02    1.0827301025e+01
    1.3659890747e+02    1.0830200195e+01
    1.3669902039e+02    1.0832801819e+01
    1.3679898071e+02    1.0835296631e+01
    1.3689892578e+02    1.0837699890e+01
    1.3699899292e+02    1.0839897156e+01
    1.3709895325e+02    1.0841903687e+01
    1.3719900513e+02    1.0843704224e+01
    1.3729896545e+02    1.0845306396e+01
    1.3739909363e+02    1.0846801758e+01
    1.3749908447e+02    1.0847999573e+01
    1.3759912109e+02    1.0848999023e+01
    1.3769900513e+02    1.0849601746e+01
    1.3779905701e+02    1.0849906921e+01
    1.3789913940e+02    1.0850006104e+01
    1.3799914551e+02    1.0849700928e+01
    1.3809921265e+02    1.0849304199e+01
    1.3819912720e+02    1.0848396301e+01
    1.3829917908e+02    1.0847198486e+01
    1.3839921570e+02    1.0845794678e+01
    1.3849909973e+02    1.0843902588e+01
    1.3859922791e+02    1.0841896057e+01
    1.3869914246e+02    1.0839500427e+01
    1.3879920959e+02    1.0836799622e+01
    1.3889909363e+02    1.0833900452e+01
    1.3899905396e+02    1.0830505371e+01
    1.3909912109e+02    1.0826805115e+01
    1.3919912720e+02    1.0822799683e+01
    1.3929924011e+02    1.0818504333e+01
    1.3939915466e+02    1.0814002991e+01
    1.3949916077e+02    1.0808998108e+01
    1.3959921265e+02    1.0803794861e+01
    1.3969914246e+02    1.0798294067e+01
    1.3979931641e+02    1.0792404175e+01
    1.3989921570e+02    1.0786201477e+01
    1.3999931335e+02    1.0779693604e+01
    1.4009924316e+02    1.0797599792e+01
    1.4019920349e+02    1.0815399170e+01
    1.4029931641e+02    1.0832801819e+01
    1.4039915466e+02    1.0850097656e+01
    1.4049926758e+02    1.0866996765e+01
    1.4059916687e+02    1.0883605957e+01
    1.4069914246e+02    1.0899894714e+01
    1.4079936218e+02    1.0916099548e+01
    1.4089938354e+02    1.0932098389e+01
    1.4099920654e+02    1.0947799683e+01
    1.4109921265e+02    1.0963302612e+01
    1.4119923401e+02    1.0978698730e+01
    1.4129922485e+02    1.0993896484e+01
    1.4139936829e+02    1.1009101868e+01
    1.4149925232e+02    1.1024002075e+01
    1.4159930420e+02    1.1039001465e+01
    1.4169941711e+02    1.1054000854e+01
    1.4179934692e+02    1.1068801880e+01
    1.4189930725e+02    1.1083396912e+01
    1.4199929810e+02    1.1097999573e+01
    1.4209941101e+02    1.1112503052e+01
    1.4219932556e+02    1.1126701355e+01
    1.4229937744e+02    1.1140701294e+01
    1.4239932251e+02    1.1154693604e+01
    1.4249926758e+02    1.1168296814e+01
    1.4259930420e+02    1.1181602478e+01
    1.4269943237e+02    1.1194801331e+01
    1.4279931641e+02    1.1207397461e+01
    1.4289938354e+02    1.1219902039e+01
    1.4299946594e+02    1.1232101440e+01
    1.4309948730e+02    1.1243797302e+01
    1.4319940186e+02    1.1255302429e+01
    1.4329934692e+02    1.1266395569e+01
    1.4339938354e+02    1.1277099609e+01
    1.4349937439e+02    1.1287300110e+01
    1.4359938049e+02    1.1297203064e+01
    1.4369952393e+02    1.1306701660e+01
    1.4379939270e+02    1.1315895081e+01
    1.4389947510e+02    1.1324699402e+01
    1.4399946594e+02    1.1333198547e+01
    1.4409957886e+02    1.1341201782e+01
    1.4419941711e+02    1.1348899841e+01
    1.4429954529e+02    1.1356399536e+01
    1.4439955139e+02    1.1363395691e+01
    1.4449957275e+02    1.1370101929e+01
    1.4459959412e+02    1.1376403809e+01
    1.4469952393e+02    1.1382400513e+01
    1.4479948425e+02    1.1388000488e+01
    1.4489962769e+02    1.1393203735e+01
    1.4499945068e+02    1.1398101807e+01
    1.4509959412e+02    1.1402603149e+01
    1.4519946289e+02    1.1406700134e+01
    1.4529959106e+02    1.1410499573e+01
    1.4539945984e+02    1.1413803101e+01
    1.4549966431e+02    1.1416999817e+01
    1.4559956360e+02    1.1419799805e+01
    1.4569963074e+02    1.1422401428e+01
    1.4579951477e+02    1.1424598694e+01
    1.4589967346e+02    1.1426597595e+01
    1.4599957275e+02    1.1428504944e+01
    1.4609953308e+02    1.1430000305e+01
    1.4619955444e+02    1.1431404114e+01
    1.4629960632e+02    1.1432495117e+01
    1.4639965820e+02    1.1433601379e+01
    1.4649952698e+02    1.1434600830e+01
    1.4659968567e+02    1.1435203552e+01
    1.4669964600e+02    1.1435798645e+01
    1.4679971313e+02    1.1436203003e+01
    1.4689964294e+02    1.1436492920e+01
    1.4699958801e+02    1.1436500549e+01
    1.4709973145e+02    1.1436500549e+01
    1.4719960022e+02    1.1436294556e+01
    1.4729963684e+02    1.1435699463e+01
    1.4739965820e+02    1.1435104370e+01
    1.4749969482e+02    1.1434196472e+01
    1.4759976196e+02    1.1432998657e+01
    1.4769975281e+02    1.1431602478e+01
    1.4779966736e+02    1.1429801941e+01
    1.4789981079e+02    1.1427795410e+01
    1.4799972534e+02    1.1425399780e+01
    1.4809965515e+02    1.1422798157e+01
    1.4819975281e+02    1.1419898987e+01
    1.4829963684e+02    1.1416694641e+01
    1.4839968872e+02    1.1413101196e+01
    1.4849980164e+02    1.1409202576e+01
    1.4859971619e+02    1.1405097961e+01
    1.4869964600e+02    1.1400802612e+01
    1.4879972839e+02    1.1396003723e+01
    1.4889984131e+02    1.1390899658e+01
    1.4899986267e+02    1.1385604858e+01
    1.4909979248e+02    1.1379196167e+01
    1.4919982910e+02    1.1373199463e+01
    1.4929988098e+02    1.1366798401e+01
    1.4939978027e+02    1.1360504150e+01
    1.4949975586e+02    1.1353706360e+01
    1.4959983826e+02    1.1345298767e+01
    1.4969987488e+02    1.1337699890e+01
    1.4979989624e+02    1.1329902649e+01
    1.4989990234e+02    1.1321701050e+01
    1.4999984741e+02    1.1313301086e+01
    1.5009983826e+02    1.1327598572e+01
    1.5019975281e+02    1.1342605591e+01
    1.5029992676e+02    1.1356895447e+01
    1.5039976501e+02    1.1371498108e+01
    1.5049987793e+02    1.1385299683e+01
    1.5059982300e+02    1.1398200989e+01
    1.5069987488e+02    1.1411499023e+01
    1.5079989624e+02    1.1424797058e+01
    1.5089982605e+02    1.1437995911e+01
    1.5099981689e+02    1.1449897766e+01
    1.5109997559e+02    1.1462203979e+01
    1.5119987488e+02    1.1474899292e+01
    1.5129985046e+02    1.1487304688e+01
    1.5139999390e+02    1.1499298096e+01
    1.5149984741e+02    1.1510803223e+01
    1.5159997559e+02    1.1522697449e+01
    1.5170002747e+02    1.1534698486e+01
    1.5179992676e+02    1.1546897888e+01
    1.5189985657e+02    1.1557899475e+01
    1.5200000000e+02    1.1569396973e+01
    1.5209999084e+02    1.1581001282e+01
    1.5219987488e+02    1.1592697144e+01
    1.5230007935e+02    1.1603599548e+01
    1.5239991760e+02    1.1613998413e+01
    1.5249995422e+02    1.1624801636e+01
    1.5259997559e+02    1.1635299683e+01
    1.5269995117e+02    1.1645698547e+01
    1.5280003357e+02    1.1655502319e+01
    1.5289990234e+02    1.1664497375e+01
    1.5300004578e+02    1.1673698425e+01
    1.5310002136e+02    1.1682800293e+01
    1.5320010376e+02    1.1691398621e+01
    1.5329992676e+02    1.1699195862e+01
    1.5340005493e+02    1.1706901550e+01
    1.5350000000e+02    1.1714698792e+01
    1.5360012817e+02    1.1721702576e+01
    1.5369996643e+02    1.1728904724e+01
    1.5379998779e+02    1.1734397888e+01
    1.5390017700e+02    1.1740203857e+01
    1.5400004578e+02    1.1746299744e+01
    1.5410014343e+02    1.1751502991e+01
    1.5420007324e+02    1.1756896973e+01
    1.5430018616e+02    1.1761001587e+01
    1.5440008545e+02    1.1764999390e+01
    1.5450007629e+02    1.1769004822e+01
    1.5460011292e+02    1.1772994995e+01
    1.5470007324e+02    1.1775001526e+01
    1.5480014038e+02    1.1777999878e+01
    1.5490005493e+02    1.1780998230e+01
    1.5500007629e+02    1.1783996582e+01
    1.5510017395e+02    1.1785003662e+01
    1.5520025635e+02    1.1787002563e+01
    1.5530021667e+02    1.1787002563e+01
    1.5540017700e+02    1.1788002014e+01
    1.5550016785e+02    1.1789001465e+01
    1.5560009766e+02    1.1788002014e+01
    1.5570016479e+02    1.1788002014e+01
    1.5580010986e+02    1.1788002014e+01
    1.5590011597e+02    1.1787994385e+01
    1.5600010681e+02    1.1787002563e+01
    1.5610011292e+02    1.1784996033e+01
    1.5620016479e+02    1.1784004211e+01
    1.5630021667e+02    1.1782997131e+01
    1.5640025330e+02    1.1780998230e+01
    1.5650027466e+02    1.1780006409e+01
    1.5660029602e+02    1.1777999878e+01
    1.5670022583e+02    1.1775001526e+01
    1.5680029297e+02    1.1773002625e+01
    1.5690017700e+02    1.1771003723e+01
    1.5700033569e+02    1.1768997192e+01
    1.5710014343e+02    1.1765998840e+01
    1.5720018005e+02    1.1763000488e+01
    1.5730030823e+02    1.1760002136e+01
    1.5740031433e+02    1.1756996155e+01
    1.5750028992e+02    1.1752998352e+01
    1.5760029602e+02    1.1750000000e+01
    1.5770031738e+02    1.1746002197e+01
    1.5780032349e+02    1.1741996765e+01
    1.5790023804e+02    1.1736999512e+01
    1.5800042725e+02    1.1733001709e+01
    1.5810043335e+02    1.1726997375e+01
    1.5820036316e+02    1.1722000122e+01
    1.5830038452e+02    1.1716995239e+01
    1.5840040588e+02    1.1710998535e+01
    1.5850027466e+02    1.1703994751e+01
    1.5860029602e+02    1.1697998047e+01
    1.5870046997e+02    1.1690994263e+01
    1.5880035400e+02    1.1684997559e+01
    1.5890029907e+02    1.1675994873e+01
    1.5900044250e+02    1.1668998718e+01
    1.5910040283e+02    1.1660995483e+01
    1.5920036316e+02    1.1652999878e+01
    1.5930049133e+02    1.1644004822e+01
    1.5940037537e+02    1.1635002136e+01
    1.5950051880e+02    1.1625000000e+01
    1.5960041809e+02    1.1615997314e+01
    1.5970053101e+02    1.1606002808e+01
    1.5980047607e+02    1.1596000671e+01
    1.5990045166e+02    1.1584999084e+01
    1.6000053406e+02    1.1573997498e+01
    1.6010043335e+02    1.1585998535e+01
    1.6020042419e+02    1.1594993591e+01
    1.6030052185e+02    1.1606002808e+01
    1.6040037537e+02    1.1616004944e+01
    1.6050044250e+02    1.1625999451e+01
    1.6060049438e+02    1.1634002686e+01
    1.6070037842e+02    1.1643997192e+01
    1.6080056763e+02    1.1652999878e+01
    1.6090046692e+02    1.1660995483e+01
    1.6100050354e+02    1.1669998169e+01
    1.6110046387e+02    1.1679000854e+01
    1.6120057678e+02    1.1687004089e+01
    1.6130044556e+02    1.1694000244e+01
    1.6140055847e+02    1.1702003479e+01
    1.6150059509e+02    1.1709999084e+01
    1.6160049438e+02    1.1718009949e+01
    1.6170043945e+02    1.1725997925e+01
    1.6180058289e+02    1.1734001160e+01
    1.6190052795e+02    1.1741004944e+01
    1.6200045776e+02    1.1748992920e+01
    1.6210061646e+02    1.1756004333e+01
    1.6220057678e+02    1.1762001038e+01
    1.6230056763e+02    1.1769996643e+01
    1.6240068054e+02    1.1777000427e+01
    1.6250065613e+02    1.1784004211e+01
    1.6260058594e+02    1.1789009094e+01
    1.6270059204e+02    1.1795997620e+01
    1.6280067444e+02    1.1802001953e+01
    1.6290054321e+02    1.1807006836e+01
    1.6300061035e+02    1.1811996460e+01
    1.6310069275e+02    1.1817001343e+01
    1.6320057678e+02    1.1820999146e+01
    1.6330072021e+02    1.1826004028e+01
    1.6340071106e+02    1.1830001831e+01
    1.6350071716e+02    1.1834007263e+01
    1.6360061646e+02    1.1836006165e+01
    1.6370062256e+02    1.1839996338e+01
    1.6380067444e+02    1.1840995789e+01
    1.6390066528e+02    1.1844001770e+01
    1.6400064087e+02    1.1845993042e+01
    1.6410072327e+02    1.1847999573e+01
    1.6420068359e+02    1.1847999573e+01
    1.6430061340e+02    1.1850006104e+01
    1.6440063477e+02    1.1849006653e+01
    1.6450071716e+02    1.1849998474e+01
    1.6460063171e+02    1.1850006104e+01
    1.6470062256e+02    1.1849006653e+01
    1.6480078125e+02    1.1847991943e+01
    1.6490066528e+02    1.1847000122e+01
    1.6500064087e+02    1.1845001221e+01
    1.6510075378e+02    1.1843009949e+01
    1.6520079041e+02    1.1840995789e+01
    1.6530082703e+02    1.1839004517e+01
    1.6540084839e+02    1.1835998535e+01
    1.6550079346e+02    1.1832992554e+01
    1.6560072327e+02    1.1830001831e+01
    1.6570080566e+02    1.1825996399e+01
    1.6580082703e+02    1.1820991516e+01
    1.6590072632e+02    1.1818000793e+01
    1.6600082397e+02    1.1813003540e+01
    1.6610090637e+02    1.1808998108e+01
    1.6620089722e+02    1.1802993774e+01
    1.6630091858e+02    1.1799003601e+01
    1.6640074158e+02    1.1793006897e+01
    1.6650074768e+02    1.1787994385e+01
    1.6660087585e+02    1.1783004761e+01
    1.6670091248e+02    1.1777999878e+01
    1.6680075073e+02    1.1772003174e+01
    1.6690078735e+02    1.1766006470e+01
    1.6700077820e+02    1.1759002686e+01
    1.6710098267e+02    1.1753005981e+01
    1.6720088196e+02    1.1748001099e+01
    1.6730099487e+02    1.1740997314e+01
    1.6740097046e+02    1.1734008789e+01
    1.6750088501e+02    1.1726989746e+01
    1.6760090637e+02    1.1720993042e+01
    1.6770092773e+02    1.1712997437e+01
    1.6780085754e+02    1.1706008911e+01
    1.6790089417e+02    1.1697998047e+01
    1.6800096130e+02    1.1690002441e+01
    1.6810102844e+02    1.1680999756e+01
    1.6820086670e+02    1.1672988892e+01
    1.6830090332e+02    1.1662994385e+01
    1.6840097046e+02    1.1654006958e+01
    1.6850097656e+02    1.1644989014e+01
    1.6860101318e+02    1.1634994507e+01
    1.6870092773e+02    1.1623992920e+01
    1.6880107117e+02    1.1613998413e+01
    1.6890093994e+02    1.1604003906e+01
    1.6900097656e+02    1.1591995239e+01
    1.6910099792e+02    1.1581008911e+01
    1.6920108032e+02    1.1569992065e+01
    1.6930111694e+02    1.1557998657e+01
    1.6940095520e+02    1.1544998169e+01
    1.6950097656e+02    1.1533004761e+01
    1.6960104370e+02    1.1520004272e+01
    1.6970094299e+02    1.1507003784e+01
    1.6980094910e+02    1.1494003296e+01
    1.6990100098e+02    1.1479003906e+01
    1.7000102234e+02    1.1464996338e+01
    1.7010113525e+02    1.1472000122e+01
    1.7020103455e+02    1.1477005005e+01
    1.7030117798e+02    1.1483001709e+01
    1.7040100098e+02    1.1487991333e+01
    1.7050108337e+02    1.1492996216e+01
    1.7060098267e+02    1.1496994019e+01
    1.7070103455e+02    1.1501998901e+01
    1.7080119324e+02    1.1505996704e+01
    1.7090115356e+02    1.1509994507e+01
    1.7100102234e+02    1.1514007568e+01
    1.7110116577e+02    1.1516998291e+01
    1.7120106506e+02    1.1520996094e+01
    1.7130114746e+02    1.1524002075e+01
    1.7140109253e+02    1.1527008057e+01
    1.7150126648e+02    1.1529998779e+01
    1.7160119629e+02    1.1532989502e+01
    1.7170118713e+02    1.1536010742e+01
    1.7180108643e+02    1.1539001465e+01
    1.7190116882e+02    1.1541992188e+01
    1.7200112915e+02    1.1545013428e+01
    1.7210128784e+02    1.1547988892e+01
    1.7220123291e+02    1.1548995972e+01
    1.7230117798e+02    1.1551986694e+01
    1.7240127563e+02    1.1554000854e+01
    1.7250114441e+02    1.1555999756e+01
    1.7260130310e+02    1.1557998657e+01
    1.7270129395e+02    1.1558990479e+01
    1.7280126953e+02    1.1559997559e+01
    1.7290133667e+02    1.1561004639e+01
    1.7300115967e+02    1.1560989380e+01
    1.7310134888e+02    1.1560989380e+01
    1.7320132446e+02    1.1561004639e+01
    1.7330128479e+02    1.1561004639e+01
    1.7340130615e+02    1.1559997559e+01
    1.7350132751e+02    1.1558990479e+01
    1.7360119629e+02    1.1557998657e+01
    1.7370120239e+02    1.1555999756e+01
    1.7380119324e+02    1.1554000854e+01
    1.7390124512e+02    1.1551010132e+01
    1.7400134277e+02    1.1548004150e+01
    1.7410125732e+02    1.1544998169e+01
    1.7420120239e+02    1.1541992188e+01
    1.7430131531e+02    1.1538009644e+01
    1.7440132141e+02    1.1533996582e+01
    1.7450126648e+02    1.1529998779e+01
    1.7460130310e+02    1.1525009155e+01
    1.7470127869e+02    1.1520004272e+01
    1.7480128479e+02    1.1514999390e+01
    1.7490133667e+02    1.1509002686e+01
    1.7500144958e+02    1.1502990723e+01
    1.7510125732e+02    1.1496002197e+01
    1.7520132446e+02    1.1488998413e+01
    1.7530139160e+02    1.1483001709e+01
    1.7540130615e+02    1.1475006104e+01
    1.7550137329e+02    1.1468002319e+01
    1.7560130310e+02    1.1459014893e+01
    1.7570132446e+02    1.1451004028e+01
    1.7580137634e+02    1.1443008423e+01
    1.7590135193e+02    1.1434997559e+01
    1.7600132751e+02    1.1425994873e+01
    1.7610133362e+02    1.1416992188e+01
    1.7620152283e+02    1.1406997681e+01
    1.7630137634e+02    1.1397994995e+01
    1.7640150452e+02    1.1388000488e+01
    1.7650140381e+02    1.1378005981e+01
    1.7660156250e+02    1.1367996216e+01
    1.7670150757e+02    1.1358001709e+01
    1.7680145264e+02    1.1348007202e+01
    1.7690138245e+02    1.1337997437e+01
    1.7700144958e+02    1.1326995850e+01
    1.7710151672e+02    1.1317001343e+01
    1.7720141602e+02    1.1305999756e+01
    1.7730140686e+02    1.1294998169e+01
    1.7740159607e+02    1.1283996582e+01
    1.7750146484e+02    1.1272003174e+01
    1.7760159302e+02    1.1261001587e+01
    1.7770150757e+02    1.1248992920e+01
    1.7780163574e+02    1.1236999512e+01
    1.7790153503e+02    1.1223999023e+01
    1.7800151062e+02    1.1212005615e+01
    1.7810148621e+02    1.1198989868e+01
    1.7820147705e+02    1.1186004639e+01
    1.7830149841e+02    1.1171997070e+01
    1.7840151978e+02    1.1160003662e+01
    1.7850158691e+02    1.1145004272e+01
    1.7860153198e+02    1.1130996704e+01
    1.7870152283e+02    1.1117004395e+01
    1.7880154419e+02    1.1102005005e+01
    1.7890168762e+02    1.1085998535e+01
    1.7900161743e+02    1.1070999146e+01
    1.7910151672e+02    1.1055999756e+01
    1.7920166016e+02    1.1039993286e+01
    1.7930163574e+02    1.1022994995e+01
    1.7940164185e+02    1.1007003784e+01
    1.7950155640e+02    1.0990005493e+01
    1.7960156250e+02    1.0972991943e+01
    1.7970164490e+02    1.0954986572e+01
    1.7980175781e+02    1.0937011719e+01
    1.7990171814e+02    1.0919006348e+01
    1.8000172424e+02    1.0902008057e+01
    1.8010168457e+02    1.0899993896e+01
    1.8020159912e+02    1.0899002075e+01
    1.8030168152e+02    1.0897003174e+01
    1.8040162659e+02    1.0895004272e+01
    1.8050163269e+02    1.0893005371e+01
    1.8060162354e+02    1.0889999390e+01
    1.8070170593e+02    1.0888000488e+01
    1.8080172729e+02    1.0884002686e+01
    1.8090174866e+02    1.0882003784e+01
    1.8100163269e+02    1.0878005981e+01
    1.8110168457e+02    1.0875000000e+01
    1.8120182800e+02    1.0869995117e+01
    1.8130166626e+02    1.0867004395e+01
    1.8140174866e+02    1.0863006592e+01
    1.8150184631e+02    1.0859008789e+01
    1.8160169983e+02    1.0854995728e+01
    1.8170176697e+02    1.0849990845e+01
    1.8180181885e+02    1.0845993042e+01
    1.8190168762e+02    1.0842010498e+01
    1.8200175476e+02    1.0838012695e+01
    1.8210189819e+02    1.0833007812e+01
    1.8220170593e+02    1.0827987671e+01
    1.8230189514e+02    1.0822998047e+01
    1.8240176392e+02    1.0819000244e+01
    1.8250181580e+02    1.0813003540e+01
    1.8260179138e+02    1.0807998657e+01
    1.8270190430e+02    1.0800994873e+01
    1.8280181885e+02    1.0794998169e+01
    1.8290188599e+02    1.0789001465e+01
    1.8300192261e+02    1.0782989502e+01
    1.8310180664e+02    1.0776000977e+01
    1.8320184326e+02    1.0768005371e+01
    1.8330183411e+02    1.0761993408e+01
    1.8340185547e+02    1.0752990723e+01
    1.8350192261e+02    1.0745986938e+01
    1.8360183716e+02    1.0736999512e+01
    1.8370191956e+02    1.0729003906e+01
    1.8380184937e+02    1.0720001221e+01
    1.8390193176e+02    1.0710998535e+01
    1.8400187683e+02    1.0700988770e+01
    1.8410200500e+02    1.0690994263e+01
    1.8420191956e+02    1.0680999756e+01
    1.8430183411e+02    1.0669998169e+01
    1.8440185547e+02    1.0660003662e+01
    1.8450187683e+02    1.0649002075e+01
    1.8460192871e+02    1.0638000488e+01
    1.8470193481e+02    1.0626007080e+01
    1.8480201721e+02    1.0613998413e+01
    1.8490206909e+02    1.0602005005e+01
    1.8500204468e+02    1.0589004517e+01
    1.8510208130e+02    1.0576004028e+01
    1.8520201111e+02    1.0562988281e+01
    1.8530206299e+02    1.0548995972e+01
    1.8540197754e+02    1.0535995483e+01
    1.8550207520e+02    1.0522003174e+01
    1.8560198975e+02    1.0507003784e+01
    1.8570201111e+02    1.0493011475e+01
    1.8580198669e+02    1.0477996826e+01
    1.8590206909e+02    1.0462997437e+01
    1.8600193787e+02    1.0447998047e+01
    1.8610197449e+02    1.0432998657e+01
    1.8620196533e+02    1.0417007446e+01
    1.8630210876e+02    1.0402008057e+01
    1.8640197754e+02    1.0386001587e+01
    1.8650207520e+02    1.0369995117e+01
    1.8660215759e+02    1.0353988647e+01
    1.8670204163e+02    1.0337997437e+01
    1.8680215454e+02    1.0320999146e+01
    1.8690214539e+02    1.0305007935e+01
    1.8700213623e+02    1.0287994385e+01
    1.8710197449e+02    1.0271987915e+01
    1.8720205688e+02    1.0254989624e+01
    1.8730206299e+02    1.0238006592e+01
    1.8740220642e+02    1.0221008301e+01
    1.8750219727e+02    1.0204010010e+01
    1.8760205078e+02    1.0186004639e+01
    1.8770219421e+02    1.0167999268e+01
    1.8780206299e+02    1.0151000977e+01
    1.8790211487e+02    1.0132003784e+01
    1.8800212097e+02    1.0113998413e+01
    1.8810223389e+02    1.0095001221e+01
    1.8820210266e+02    1.0075988770e+01
    1.8830212402e+02    1.0056991577e+01
    1.8840222168e+02    1.0037994385e+01
    1.8850227356e+02    1.0018005371e+01
    1.8860226440e+02    9.9990081787e+00
    1.8870222473e+02    9.9779968262e+00
    1.8880227661e+02    9.9580078125e+00
    1.8890219116e+02    9.9379882812e+00
    1.8900224304e+02    9.9160003662e+00
    1.8910212708e+02    9.8960113525e+00
    1.8920227051e+02    9.8739929199e+00
    1.8930227661e+02    9.8529968262e+00
    1.8940231323e+02    9.8299865723e+00
    1.8950216675e+02    9.8079986572e+00
    1.8960224915e+02    9.7860107422e+00
    1.8970228577e+02    9.7640075684e+00
    1.8980224609e+02    9.7409973145e+00
    1.8990237427e+02    9.7180023193e+00
    1.9000231934e+02    9.6940002441e+00
    1.9010229492e+02    9.6849975586e+00
    1.9020236206e+02    9.6770019531e+00
    1.9030220032e+02    9.6660003662e+00
    1.9040231323e+02    9.6569976807e+00
    1.9050238037e+02    9.6470031738e+00
    1.9060223389e+02    9.6370086670e+00
    1.9070225525e+02    9.6269989014e+00
    1.9080227661e+02    9.6160125732e+00
    1.9090234375e+02    9.6059875488e+00
    1.9100224304e+02    9.5939941406e+00
    1.9110237122e+02    9.5839996338e+00
    1.9120234680e+02    9.5729980469e+00
    1.9130226135e+02    9.5609893799e+00
    1.9140226746e+02    9.5500030518e+00
    1.9150239563e+02    9.5379943848e+00
    1.9160238647e+02    9.5279998779e+00
    1.9170245361e+02    9.5160064697e+00
    1.9180235291e+02    9.5039978027e+00
    1.9190231323e+02    9.4929962158e+00
    1.9200248718e+02    9.4799957275e+00
    1.9210246277e+02    9.4680023193e+00
    1.9220239258e+02    9.4560089111e+00
    1.9230235291e+02    9.4440002441e+00
    1.9240243530e+02    9.4329986572e+00
    1.9250245667e+02    9.4200134277e+00
    1.9260253906e+02    9.4069976807e+00
    1.9270254517e+02    9.3939971924e+00
    1.9280252075e+02    9.3809967041e+00
    1.9290237427e+02    9.3679962158e+00
    1.9300250244e+02    9.3549957275e+00
    1.9310244751e+02    9.3420104980e+00
    1.9320237732e+02    9.3280029297e+00
    1.9330247498e+02    9.3140106201e+00
    1.9340249634e+02    9.2989959717e+00
    1.9350239563e+02    9.2850036621e+00
    1.9360250854e+02    9.2689971924e+00
    1.9370254517e+02    9.2550048828e+00
    1.9380242920e+02    9.2389984131e+00
    1.9390257263e+02    9.2239990234e+00
    1.9400250244e+02    9.2079925537e+00
    1.9410246277e+02    9.1920013428e+00
    1.9420251465e+02    9.1750030518e+00
    1.9430250549e+02    9.1590118408e+00
    1.9440252686e+02    9.1419982910e+00
[...]
    2.5130598450e+02   -3.0709838867e+00
    2.5140603638e+02   -3.0820007324e+00
    2.5150593567e+02   -3.0930175781e+00
    2.5160600281e+02   -3.1040039062e+00
    2.5170596313e+02   -3.1140136719e+00
    2.5180598450e+02   -3.1250000000e+00
    2.5190614319e+02   -3.1350097656e+00
    2.5200605774e+02   -3.1449890137e+00
    2.5210604858e+02   -3.1560058594e+00
    2.5220616150e+02   -3.1659851074e+00
    2.5230618286e+02   -3.1759948730e+00
    2.5240599060e+02   -3.1860046387e+00
    2.5250610352e+02   -3.1969909668e+00
    2.5260606384e+02   -3.2059936523e+00
    2.5270614624e+02   -3.2160034180e+00
    2.5280613708e+02   -3.2260131836e+00
    2.5290600586e+02   -3.2360229492e+00
    2.5300604248e+02   -3.2460021973e+00
    2.5310621643e+02   -3.2560119629e+00
    2.5320605469e+02   -3.2650146484e+00
    2.5330607605e+02   -3.2750244141e+00
    2.5340608215e+02   -3.2850036621e+00
    2.5350611877e+02   -3.2940063477e+00
    2.5360610962e+02   -3.3030090332e+00
    2.5370616150e+02   -3.3130187988e+00
    2.5380621338e+02   -3.3220214844e+00
    2.5390612793e+02   -3.3309936523e+00
    2.5400627136e+02   -3.3399963379e+00
    2.5410617065e+02   -3.3500061035e+00
    2.5420613098e+02   -3.3590087891e+00
    2.5430621338e+02   -3.3680114746e+00
    2.5440611267e+02   -3.3760070801e+00
    2.5450610352e+02   -3.3859863281e+00
    2.5460621643e+02   -3.3940124512e+00
    2.5470620728e+02   -3.4039916992e+00
    2.5480632019e+02   -3.4120178223e+00
    2.5490626526e+02   -3.4220275879e+00
    2.5500634766e+02   -3.4300231934e+00
    2.5510621643e+02   -3.4390258789e+00
    2.5520634460e+02   -3.4470214844e+00
    2.5530621338e+02   -3.4550170898e+00
    2.5540626526e+02   -3.4649963379e+00
    2.5550617981e+02   -3.4729919434e+00
    2.5560632324e+02   -3.4819946289e+00
    2.5570622253e+02   -3.4899902344e+00
    2.5580630493e+02   -3.4980163574e+00
    2.5590635681e+02   -3.5070190430e+00
    2.5600637817e+02   -3.5150146484e+00
    2.5610623169e+02   -3.5229797363e+00
    2.5620623779e+02   -3.5309753418e+00
    2.5630624390e+02   -3.5390014648e+00
    2.5640643311e+02   -3.5469970703e+00
    2.5650631714e+02   -3.5549926758e+00
    2.5660638428e+02   -3.5629882812e+00
    2.5670639038e+02   -3.5699768066e+00
    2.5680639648e+02   -3.5789794922e+00
    2.5690643311e+02   -3.5859985352e+00
    2.5700643921e+02   -3.5939941406e+00
    2.5710641479e+02   -3.6009826660e+00
    2.5720632935e+02   -3.6080017090e+00
    2.5730627441e+02   -3.6159973145e+00
    2.5740637207e+02   -3.6229858398e+00
    2.5750640869e+02   -3.6300048828e+00
    2.5760644531e+02   -3.6369934082e+00
    2.5770648193e+02   -3.6439819336e+00
    2.5780645752e+02   -3.6510009766e+00
    2.5790652466e+02   -3.6569824219e+00
    2.5800640869e+02   -3.6650085449e+00
    2.5810641479e+02   -3.6709899902e+00
    2.5820648193e+02   -3.6780090332e+00
    2.5830639648e+02   -3.6839904785e+00
    2.5840637207e+02   -3.6900024414e+00
    2.5850643921e+02   -3.6969909668e+00
    2.5860644531e+02   -3.7030029297e+00
    2.5870654297e+02   -3.7089843750e+00
    2.5880642700e+02   -3.7160034180e+00
    2.5890637207e+02   -3.7219848633e+00
    2.5900653076e+02   -3.7279968262e+00
    2.5910641479e+02   -3.7340087891e+00
    2.5920657349e+02   -3.7399902344e+00
    2.5930645752e+02   -3.7460021973e+00
    2.5940652466e+02   -3.7520141602e+00
    2.5950643921e+02   -3.7579956055e+00
    2.5960641479e+02   -3.7630004883e+00
    2.5970651245e+02   -3.7690124512e+00
    2.5980661011e+02   -3.7749938965e+00
    2.5990652466e+02   -3.7799987793e+00
    2.6000662231e+02   -3.7860107422e+00
    2.6010653687e+02   -3.7909851074e+00
    2.6020663452e+02   -3.7949829102e+00
    2.6030645752e+02   -3.7999877930e+00
    2.6040661621e+02   -3.8040161133e+00
    2.6050650024e+02   -3.8090209961e+00
    2.6060650635e+02   -3.8129882812e+00
    2.6070663452e+02   -3.8179931641e+00
    2.6080661011e+02   -3.8219909668e+00
    2.6090649414e+02   -3.8269958496e+00
    2.6100668335e+02   -3.8310241699e+00
    2.6110653687e+02   -3.8350219727e+00
    2.6120657349e+02   -3.8390197754e+00
    2.6130657959e+02   -3.8429870605e+00
    2.6140658569e+02   -3.8469848633e+00
    2.6150659180e+02   -3.8499755859e+00
    2.6160662842e+02   -3.8549804688e+00
    2.6170672607e+02   -3.8580017090e+00
    2.6180654907e+02   -3.8619995117e+00
    2.6190661621e+02   -3.8649902344e+00
    2.6200671387e+02   -3.8679809570e+00
    2.6210659790e+02   -3.8720092773e+00
    2.6220672607e+02   -3.8750000000e+00
    2.6230661011e+02   -3.8779907227e+00
    2.6240667725e+02   -3.8810119629e+00
    2.6250677490e+02   -3.8840026855e+00
    2.6260668945e+02   -3.8869934082e+00
    2.6270672607e+02   -3.8899841309e+00
    2.6280679321e+02   -3.8930053711e+00
    2.6290667725e+02   -3.8950195312e+00
    2.6300674438e+02   -3.8980102539e+00
    2.6310675049e+02   -3.9010009766e+00
    2.6320681763e+02   -3.9029846191e+00
    2.6330676270e+02   -3.9060058594e+00
    2.6340679932e+02   -3.9069824219e+00
    2.6350671387e+02   -3.9100036621e+00
    2.6360665894e+02   -3.9119873047e+00
    2.6370678711e+02   -3.9150085449e+00
    2.6380676270e+02   -3.9160156250e+00
    2.6390673828e+02   -3.9179992676e+00
    2.6400674438e+02   -3.9199829102e+00
    2.6410678101e+02   -3.9219970703e+00
    2.6420675659e+02   -3.9239807129e+00
    2.6430685425e+02   -3.9250183105e+00
    2.6440676880e+02   -3.9270019531e+00
    2.6450671387e+02   -3.9290161133e+00
    2.6460671997e+02   -3.9299926758e+00
    2.6470672607e+02   -3.9320068359e+00
    2.6480679321e+02   -3.9329833984e+00
    2.6490682983e+02   -3.9340209961e+00
    2.6500683594e+02   -3.9360046387e+00
    2.6510684204e+02   -3.9360046387e+00
    2.6520681763e+02   -3.9380187988e+00
    2.6530691528e+02   -3.9389953613e+00
    2.6540692139e+02   -3.9389953613e+00
    2.6550683594e+02   -3.9400024414e+00
    2.6560681152e+02   -3.9410095215e+00
    2.6570687866e+02   -3.9420166016e+00
    2.6580688477e+02   -3.9420166016e+00
    2.6590686035e+02   -3.9429931641e+00
    2.6600683594e+02   -3.9429931641e+00
    2.6610699463e+02   -3.9440002441e+00
    2.6620697021e+02   -3.9449768066e+00
    2.6630682373e+02   -3.9450073242e+00
    2.6640689087e+02   -3.9450073242e+00
    2.6650701904e+02   -3.9450073242e+00
    2.6660702515e+02   -3.9449768066e+00
    2.6670697021e+02   -3.9449768066e+00
    2.6680700684e+02   -3.9450073242e+00
    2.6690698242e+02   -3.9450073242e+00
    2.6700708008e+02   -3.9450073242e+00
    2.6710687256e+02   -3.9440002441e+00
    2.6720690918e+02   -3.9429931641e+00
    2.6730694580e+02   -3.9429931641e+00
    2.6740695190e+02   -3.9419860840e+00
    2.6750695801e+02   -3.9419860840e+00
    2.6760699463e+02   -3.9410095215e+00
    2.6770690918e+02   -3.9410095215e+00
    2.6780697632e+02   -3.9389953613e+00
    2.6790707397e+02   -3.9379882812e+00
    2.6800701904e+02   -3.9369812012e+00
    2.6810699463e+02   -3.9360046387e+00
    2.6820697021e+02   -3.9350280762e+00
    2.6830712891e+02   -3.9340209961e+00
    2.6840704346e+02   -3.9330139160e+00
    2.6850704956e+02   -3.9309997559e+00
    2.6860702515e+02   -3.9299926758e+00
    2.6870706177e+02   -3.9279785156e+00
    2.6880697632e+02   -3.9259948730e+00
    2.6890713501e+02   -3.9240112305e+00
    2.6900714111e+02   -3.9219970703e+00
    2.6910705566e+02   -3.9200134277e+00
    2.6920709229e+02   -3.9179992676e+00
    2.6930712891e+02   -3.9159851074e+00
    2.6940713501e+02   -3.9140014648e+00
    2.6950701904e+02   -3.9119873047e+00
    2.6960708618e+02   -3.9089965820e+00
    2.6970706177e+02   -3.9060058594e+00
    2.6980718994e+02   -3.9039916992e+00
    2.6990719604e+02   -3.9019775391e+00
    2.7000717163e+02   -3.8999938965e+00
    2.7010711670e+02   -3.8989868164e+00
    2.7020706177e+02   -3.8970031738e+00
    2.7030706787e+02   -3.8959960938e+00
    2.7040725708e+02   -3.8959960938e+00
    2.7050726318e+02   -3.8939819336e+00
    2.7060723877e+02   -3.8930053711e+00
    2.7070727539e+02   -3.8909912109e+00
    2.7080709839e+02   -3.8899841309e+00
    2.7090725708e+02   -3.8880004883e+00
    2.7100717163e+02   -3.8869934082e+00
    2.7110714722e+02   -3.8850097656e+00
    2.7120730591e+02   -3.8829956055e+00
    2.7130725098e+02   -3.8819885254e+00
    2.7140725708e+02   -3.8800048828e+00
    2.7150714111e+02   -3.8779907227e+00
    2.7160723877e+02   -3.8760070801e+00
    2.7170718384e+02   -3.8730163574e+00
    2.7180725098e+02   -3.8710021973e+00
    2.7190716553e+02   -3.8699951172e+00
    2.7200726318e+02   -3.8659973145e+00
    2.7210723877e+02   -3.8640136719e+00
    2.7220721436e+02   -3.8619995117e+00
    2.7230737305e+02   -3.8589782715e+00
    2.7240725708e+02   -3.8569946289e+00
    2.7250720215e+02   -3.8540039062e+00
    2.7260736084e+02   -3.8509826660e+00
    2.7270724487e+02   -3.8479919434e+00
    2.7280740356e+02   -3.8450012207e+00
    2.7290719604e+02   -3.8410034180e+00
    2.7300732422e+02   -3.8380126953e+00
    2.7310733032e+02   -3.8349914551e+00
    2.7320724487e+02   -3.8320007324e+00
    2.7330728149e+02   -3.8290100098e+00
    2.7340737915e+02   -3.8250122070e+00
    2.7350735474e+02   -3.8219909668e+00
    2.7360733032e+02   -3.8179931641e+00
    2.7370730591e+02   -3.8139953613e+00
    2.7380749512e+02   -3.8089904785e+00
    2.7390737915e+02   -3.8059997559e+00
    2.7400741577e+02   -3.8020019531e+00
    2.7410729980e+02   -3.7969970703e+00
    2.7420745850e+02   -3.7940063477e+00
    2.7430749512e+02   -3.7890014648e+00
    2.7440740967e+02   -3.7849731445e+00
    2.7450732422e+02   -3.7810058594e+00
    2.7460751343e+02   -3.7760009766e+00
    2.7470739746e+02   -3.7720031738e+00
    2.7480749512e+02   -3.7660217285e+00
    2.7490737915e+02   -3.7619934082e+00
    2.7500738525e+02   -3.7569885254e+00
    2.7510754395e+02   -3.7530212402e+00
    2.7520748901e+02   -3.7470092773e+00
    2.7530749512e+02   -3.7420043945e+00
    2.7540737915e+02   -3.7369995117e+00
    2.7550750732e+02   -3.7319946289e+00
    2.7560745239e+02   -3.7260131836e+00
    2.7570739746e+02   -3.7219848633e+00
    2.7580743408e+02   -3.7160034180e+00
    2.7590744019e+02   -3.7109985352e+00
    2.7600759888e+02   -3.7040100098e+00
    2.7610745239e+02   -3.6989746094e+00
    2.7620742798e+02   -3.6929931641e+00
    2.7630764771e+02   -3.6869812012e+00
    2.7640756226e+02   -3.6820068359e+00
    2.7650750732e+02   -3.6760253906e+00
    2.7660754395e+02   -3.6699829102e+00
    2.7670764160e+02   -3.6640014648e+00
    2.7680761719e+02   -3.6570129395e+00
    2.7690759277e+02   -3.6510009766e+00
    2.7700753784e+02   -3.6440124512e+00
    2.7710754395e+02   -3.6390075684e+00
    2.7720748901e+02   -3.6319885254e+00
    2.7730767822e+02   -3.6250000000e+00
    2.7740768433e+02   -3.6180114746e+00
    2.7750756836e+02   -3.6119995117e+00
    2.7760769653e+02   -3.6059875488e+00
    2.7770770264e+02   -3.5989990234e+00
    2.7780755615e+02   -3.5910034180e+00
    2.7790771484e+02   -3.5839843750e+00
    2.7800765991e+02   -3.5769958496e+00
    2.7810766602e+02   -3.5700073242e+00
    2.7820755005e+02   -3.5630187988e+00
    2.7830758667e+02   -3.5549926758e+00
    2.7840759277e+02   -3.5480041504e+00
    2.7850759888e+02   -3.5400085449e+00
    2.7860763550e+02   -3.5320129395e+00
    2.7870758057e+02   -3.5240173340e+00
    2.7880758667e+02   -3.5169982910e+00
    2.7890765381e+02   -3.5090026855e+00
    2.7900765991e+02   -3.5010070801e+00
    2.7910766602e+02   -3.4930114746e+00
    2.7920770264e+02   -3.4840087891e+00
    2.7930770874e+02   -3.4759826660e+00
    2.7940774536e+02   -3.4679870605e+00
    2.7950781250e+02   -3.4599914551e+00
    2.7960778809e+02   -3.4510192871e+00
    2.7970773315e+02   -3.4429931641e+00
    2.7980776978e+02   -3.4349975586e+00
    2.7990774536e+02   -3.4259948730e+00
    2.8000778198e+02   -3.4170227051e+00
    2.8010775757e+02   -3.4119873047e+00
    2.8020779419e+02   -3.4060058594e+00
    2.8030767822e+02   -3.4010009766e+00
    2.8040780640e+02   -3.3959960938e+00
    2.8050784302e+02   -3.3899841309e+00
    2.8060775757e+02   -3.3840026855e+00
    2.8070785522e+02   -3.3789978027e+00
    2.8080780029e+02   -3.3739929199e+00
    2.8090774536e+02   -3.3670043945e+00
    2.8100790405e+02   -3.3619995117e+00
    2.8110791016e+02   -3.3559875488e+00
    2.8120773315e+02   -3.3500061035e+00
    2.8130786133e+02   -3.3439941406e+00
    2.8140789795e+02   -3.3370056152e+00
    2.8150775146e+02   -3.3320007324e+00
    2.8160781860e+02   -3.3250122070e+00
    2.8170776367e+02   -3.3190002441e+00
    2.8180780029e+02   -3.3129882812e+00
    2.8190792847e+02   -3.3059997559e+00
    2.8200796509e+02   -3.2999877930e+00
    2.8210791016e+02   -3.2929992676e+00
    2.8220794678e+02   -3.2869873047e+00
    2.8230780029e+02   -3.2799987793e+00
    2.8240792847e+02   -3.2729797363e+00
    2.8250793457e+02   -3.2659912109e+00
    2.8260791016e+02   -3.2590026855e+00
    2.8270791626e+02   -3.2519836426e+00
    2.8280786133e+02   -3.2449951172e+00
    2.8290783691e+02   -3.2380065918e+00
    2.8300793457e+02   -3.2310180664e+00
    2.8310803223e+02   -3.2230224609e+00
    2.8320788574e+02   -3.2160034180e+00
    2.8330786133e+02   -3.2079772949e+00
    2.8340789795e+02   -3.2000122070e+00
    2.8350793457e+02   -3.1929931641e+00
    2.8360806274e+02   -3.1850280762e+00
    2.8370791626e+02   -3.1770019531e+00
    2.8380801392e+02   -3.1690063477e+00
    2.8390805054e+02   -3.1600036621e+00
    2.8400793457e+02   -3.1530151367e+00
    2.8410812378e+02   -3.1449890137e+00
    2.8420800781e+02   -3.1360168457e+00
    2.8430810547e+02   -3.1279907227e+00
    2.8440805054e+02   -3.1190185547e+00
    2.8450796509e+02   -3.1109924316e+00
    2.8460794067e+02   -3.1020202637e+00
    2.8470803833e+02   -3.0930175781e+00
    2.8480801392e+02   -3.0850219727e+00
    2.8490808105e+02   -3.0750122070e+00
    2.8500805664e+02   -3.0670166016e+00
    2.8510797119e+02   -3.0579833984e+00
    2.8520797729e+02   -3.0489807129e+00
    2.8530807495e+02   -3.0390014648e+00
    2.8540808105e+02   -3.0299987793e+00
    2.8550808716e+02   -3.0209960938e+00
    2.8560815430e+02   -3.0109863281e+00
    2.8570809937e+02   -3.0019836426e+00
    2.8580807495e+02   -2.9930114746e+00
    2.8590811157e+02   -2.9830017090e+00
    2.8600805664e+02   -2.9729919434e+00
    2.8610815430e+02   -2.9640197754e+00
    2.8620803833e+02   -2.9540100098e+00
    2.8630813599e+02   -2.9440307617e+00
    2.8640817261e+02   -2.9339904785e+00
    2.8650808716e+02   -2.9239807129e+00
    2.8660806274e+02   -2.9140014648e+00
    2.8670806885e+02   -2.9039916992e+00
    2.8680810547e+02   -2.8940124512e+00
    2.8690823364e+02   -2.8840026855e+00
    2.8700811768e+02   -2.8729858398e+00
    2.8710818481e+02   -2.8630065918e+00
    2.8720822144e+02   -2.8520507812e+00
    2.8730810547e+02   -2.8419799805e+00
    2.8740820312e+02   -2.8319702148e+00
    2.8750833130e+02   -2.8209838867e+00
    2.8760818481e+02   -2.8099975586e+00
    2.8770831299e+02   -2.7990112305e+00
    2.8780822754e+02   -2.7879638672e+00
    2.8790814209e+02   -2.7770385742e+00
    2.8800827026e+02   -2.7669677734e+00
    2.8810815430e+02   -2.7560424805e+00
    2.8820828247e+02   -2.7440185547e+00
    2.8830819702e+02   -2.7329711914e+00
    2.8840832520e+02   -2.7210083008e+00
    2.8850827026e+02   -2.7100219727e+00
    2.8860818481e+02   -2.6979980469e+00
    2.8870834351e+02   -2.6870117188e+00
    2.8880822754e+02   -2.6750488281e+00
    2.8890838623e+02   -2.6640014648e+00
    2.8900830078e+02   -2.6510009766e+00
    2.8910824585e+02   -2.6399536133e+00
    2.8920840454e+02   -2.6290283203e+00
    2.8930831909e+02   -2.6170043945e+00
    2.8940823364e+02   -2.6050415039e+00
    2.8950839233e+02   -2.5919799805e+00
    2.8960830688e+02   -2.5799560547e+00
    2.8970846558e+02   -2.5679931641e+00
    2.8980834961e+02   -2.5549926758e+00
    2.8990829468e+02   -2.5429687500e+00
    2.9000836182e+02   -2.5310058594e+00
    2.9010833740e+02   -2.5239868164e+00
    2.9020840454e+02   -2.5159912109e+00
    2.9030841064e+02   -2.5089721680e+00
    2.9040832520e+02   -2.5010375977e+00
    2.9050845337e+02   -2.4930419922e+00
    2.9060827637e+02   -2.4849853516e+00
    2.9070840454e+02   -2.4760131836e+00
    2.9080834961e+02   -2.4689941406e+00
    2.9090835571e+02   -2.4609985352e+00
    2.9100851440e+02   -2.4530029297e+00
    2.9110842896e+02   -2.4450073242e+00
    2.9120846558e+02   -2.4360351562e+00
    2.9130847168e+02   -2.4279785156e+00
    2.9140844727e+02   -2.4200439453e+00
    2.9150842285e+02   -2.4119873047e+00
    2.9160839844e+02   -2.4030151367e+00
    2.9170843506e+02   -2.3949584961e+00
    2.9180853271e+02   -2.3859863281e+00
    2.9190841675e+02   -2.3780517578e+00
    2.9200839233e+02   -2.3690185547e+00
    2.9210852051e+02   -2.3599853516e+00
    2.9220852661e+02   -2.3519897461e+00
    2.9230844116e+02   -2.3439941406e+00
    2.9240863037e+02   -2.3350219727e+00
    2.9250854492e+02   -2.3259887695e+00
    2.9260845947e+02   -2.3169555664e+00
    2.9270864868e+02   -2.3079833984e+00
    2.9280862427e+02   -2.3000488281e+00
    2.9290859985e+02   -2.2910156250e+00
    2.9300851440e+02   -2.2810058594e+00
    2.9310848999e+02   -2.2719726562e+00
    2.9320849609e+02   -2.2630004883e+00
    2.9330847168e+02   -2.2540283203e+00
    2.9340853882e+02   -2.2440185547e+00
    2.9350866699e+02   -2.2340087891e+00
    2.9360855103e+02   -2.2239990234e+00
    2.9370861816e+02   -2.2150268555e+00
    2.9380853271e+02   -2.2050170898e+00
    2.9390853882e+02   -2.1950073242e+00
    2.9400866699e+02   -2.1849975586e+00
    2.9410858154e+02   -2.1750488281e+00
    2.9420864868e+02   -2.1650390625e+00
    2.9430865479e+02   -2.1550292969e+00
    2.9440856934e+02   -2.1449584961e+00
    2.9450872803e+02   -2.1339721680e+00
    2.9460861206e+02   -2.1240234375e+00
    2.9470855713e+02   -2.1140136719e+00
    2.9480856323e+02   -2.1030273438e+00
    2.9490869141e+02   -2.0929565430e+00
    2.9500866699e+02   -2.0819702148e+00
    2.9510858154e+02   -2.0710449219e+00
    2.9520877075e+02   -2.0599975586e+00
    2.9530877686e+02   -2.0499877930e+00
    2.9540869141e+02   -2.0390014648e+00
    2.9550872803e+02   -2.0280151367e+00
    2.9560864258e+02   -2.0170288086e+00
    2.9570877075e+02   -2.0059814453e+00
    2.9580877686e+02   -1.9940185547e+00
    2.9590866089e+02   -1.9840087891e+00
    2.9600863647e+02   -1.9720458984e+00
    2.9610879517e+02   -1.9609985352e+00
    2.9620883179e+02   -1.9500122070e+00
    2.9630868530e+02   -1.9379882812e+00
    2.9640875244e+02   -1.9270019531e+00
    2.9650881958e+02   -1.9160156250e+00
    2.9660870361e+02   -1.9039916992e+00
    2.9670880127e+02   -1.8920288086e+00
    2.9680868530e+02   -1.8809814453e+00
    2.9690878296e+02   -1.8699951172e+00
    2.9700872803e+02   -1.8579711914e+00
    2.9710888672e+02   -1.8460083008e+00
    2.9720883179e+02   -1.8349609375e+00
    2.9730877686e+02   -1.8229980469e+00
    2.9740884399e+02   -1.8110351562e+00
    2.9750878906e+02   -1.7990112305e+00
    2.9760891724e+02   -1.7869873047e+00
    2.9770877075e+02   -1.7749633789e+00
    2.9780892944e+02   -1.7630004883e+00
    2.9790890503e+02   -1.7510375977e+00
    2.9800891113e+02   -1.7390136719e+00
    2.9810876465e+02   -1.7269897461e+00
    2.9820877075e+02   -1.7150268555e+00
    2.9830877686e+02   -1.7020263672e+00
    2.9840884399e+02   -1.6900024414e+00
    2.9850891113e+02   -1.6770019531e+00
    2.9860897827e+02   -1.6649780273e+00
    2.9870892334e+02   -1.6530151367e+00
    2.9880880737e+02   -1.6400146484e+00
    2.9890884399e+02   -1.6270141602e+00
    2.9900900269e+02   -1.6140136719e+00
    2.9910882568e+02   -1.6019897461e+00
    2.9920892334e+02   -1.5880126953e+00
    2.9930899048e+02   -1.5750122070e+00
    2.9940893555e+02   -1.5620117188e+00
    2.9950900269e+02   -1.5499877930e+00
    2.9960900879e+02   -1.5359497070e+00
    2.9970889282e+02   -1.5230102539e+00
    2.9980902100e+02   -1.5100097656e+00
    2.9990893555e+02   -1.4969482422e+00
endcurve
