Curveplot
LS-DYNA keyword deck by LS-PrePost
Time
Yrot-displ
Rigid Body Ids
300001 #pts=1800
* Minval=    -5.7555416107e+01 at time=        55.5997009277
* Maxval=     5.4180278778e+01 at time=       135.2989959717
    0.0000000000e+00    1.4693753201e-06
    9.9974952638e-02    1.0165965705e-06
    1.9994939864e-01    3.7448754142e-07
    2.9992300272e-01   -4.8044495315e-07
    3.9998829365e-01   -1.5676633893e-06
    4.9996811152e-01   -2.9003704185e-06
    5.9995937347e-01   -4.4829275794e-06
    6.9994902611e-01   -6.3079369284e-06
    7.9986661673e-01   -8.3530439952e-06
    8.9985018969e-01   -1.0577592548e-05
    9.9989682436e-01   -1.2919274923e-05
    1.0998120308e+00   -1.5290921510e-05
    1.1998159885e+00   -1.7577587641e-05
    1.2999190092e+00   -1.9634077034e-05
    1.3998999596e+00   -2.1283267415e-05
    1.4999289513e+00   -2.2315847673e-05
    1.5998120308e+00   -2.2492178687e-05
    1.6999390125e+00   -2.1546824428e-05
    1.7998219728e+00   -1.9196002540e-05
    1.8998990059e+00   -1.5147901649e-05
    1.9999569654e+00   -9.1155825430e-06
    2.0998098850e+00   -8.3205520696e-07
    2.1999731064e+00    9.9330145531e-06
    2.2998130322e+00    2.3355454687e-05
    2.3999080658e+00    3.9537990233e-05
    2.4998149872e+00    5.8491194068e-05
    2.5999500751e+00    8.0114179582e-05
    2.6998369694e+00    1.0417509475e-04
    2.7998418808e+00    1.3029159163e-04
    2.8999259472e+00    1.5791157784e-04
    2.9999389648e+00    1.8629455008e-04
    3.0999560356e+00    2.1449389169e-04
    3.1999630928e+00    2.4134037085e-04
    3.2998330593e+00    2.6542722480e-04
    3.3999528885e+00    2.8509719414e-04
    3.4999220371e+00    2.9843213269e-04
    3.5999848843e+00    3.0324497493e-04
    3.6998429298e+00    2.9707455542e-04
    3.7999000549e+00    2.7718278579e-04
    3.8998160362e+00    2.4055388349e-04
    3.9998159409e+00    1.8389521574e-04
    4.0997900963e+00    1.0363872570e-04
    4.1998558044e+00   -4.0569798330e-06
    4.2998890877e+00   -1.4330484555e-04
    4.3999361992e+00   -3.1848807703e-04
    4.4998030663e+00   -5.3425907390e-04
    4.5998950005e+00   -7.9553842079e-04
    4.6998581886e+00   -1.1075142538e-03
    4.7997732162e+00   -1.4756409219e-03
    4.8999748230e+00   -1.9056383753e-03
    4.9998250008e+00   -2.4034902453e-03
    5.0998220444e+00   -2.9754426796e-03
    5.1998691559e+00   -3.6280017812e-03
    5.2999072075e+00   -4.3679308146e-03
    5.3997898102e+00   -5.2022486925e-03
    5.4997749329e+00   -6.1382274143e-03
    5.5999321938e+00   -7.1833892725e-03
    5.6998767853e+00   -8.3455070853e-03
    5.7997851372e+00   -9.6326014027e-03
    5.8999509811e+00   -1.1052943766e-02
    5.9999809265e+00   -1.2615055777e-02
    6.0999779701e+00   -1.4327705838e-02
    6.1998119354e+00   -1.6199914739e-02
    6.2997908592e+00   -1.8240951002e-02
    6.3999037743e+00   -2.0460329950e-02
    6.4998450279e+00   -2.2867806256e-02
    6.5999121666e+00   -2.5473369285e-02
    6.6998310089e+00   -2.8287248686e-02
    6.7999839783e+00   -3.1319890171e-02
    6.8998608589e+00   -3.4581970423e-02
    6.9998149872e+00   -3.8084354252e-02
    7.0999488831e+00   -4.1838113219e-02
    7.1999878883e+00   -4.5854493976e-02
    7.2998371124e+00   -5.0144910812e-02
    7.3998918533e+00   -5.4720949382e-02
    7.4999837875e+00   -5.9594321996e-02
    7.5999269485e+00   -6.4776875079e-02
    7.6998620033e+00   -7.0280559361e-02
    7.7997951508e+00   -7.6117441058e-02
    7.8999052048e+00   -8.2299657166e-02
    7.9998488426e+00   -8.8839404285e-02
    8.0999650955e+00   -9.5748938620e-02
    8.1999359131e+00   -1.0304055363e-01
    8.2999897003e+00   -1.1072658747e-01
    8.3998117447e+00   -1.1881941557e-01
    8.4997968674e+00   -1.2733140588e-01
    8.5997743607e+00   -1.3627494872e-01
    8.6998491287e+00   -1.4566235244e-01
    8.7999124527e+00   -1.5550598502e-01
    8.8999147415e+00   -1.6581812501e-01
    8.9999752045e+00   -1.7661108077e-01
    9.0999326706e+00   -1.8789713085e-01
    9.1998300552e+00   -1.9968859851e-01
    9.2998342514e+00   -2.1199779212e-01
    9.3999080658e+00   -2.2483699024e-01
    9.4998598099e+00   -2.3821851611e-01
    9.5998868942e+00   -2.5215464830e-01
    9.6999378204e+00   -2.6665762067e-01
    9.7997913361e+00   -2.8173977137e-01
    9.8998079300e+00   -2.9741331935e-01
    9.9999446869e+00   -3.1369045377e-01
    1.0099800110e+01   -3.3058339357e-01
    1.0199950218e+01   -3.4810432792e-01
    1.0299869537e+01   -3.6626538634e-01
    1.0399809837e+01   -3.8507869840e-01
    1.0499919891e+01   -4.0455636382e-01
    1.0599969864e+01   -4.2471051216e-01
    1.0699919701e+01   -4.4555315375e-01
    1.0799980164e+01   -4.6709632874e-01
    1.0899840355e+01   -4.8935216665e-01
    1.0999939919e+01   -5.1233261824e-01
    1.1099840164e+01   -5.3604972363e-01
    1.1199970245e+01   -5.6051546335e-01
    1.1299839973e+01   -5.8574181795e-01
    1.1399860382e+01   -6.1174052954e-01
    1.1499899864e+01   -6.3852351904e-01
    1.1600000381e+01   -6.6610240936e-01
    1.1699830055e+01   -6.9448888302e-01
    1.1799830437e+01   -7.2369450331e-01
    1.1899860382e+01   -7.5373065472e-01
    1.1999910355e+01   -7.8460884094e-01
    1.2099849701e+01   -8.1634014845e-01
    1.2199999809e+01   -8.4893578291e-01
    1.2299960136e+01   -8.8240677118e-01
    1.2399900436e+01   -9.1676419973e-01
    1.2499990463e+01   -9.5201903582e-01
    1.2599909782e+01   -9.8818218708e-01
    1.2699910164e+01   -1.0252646208e+00
    1.2799920082e+01   -1.0632770061e+00
    1.2899950027e+01   -1.1022301912e+00
    1.2999870300e+01   -1.1421349049e+00
    1.3099829674e+01   -1.1830016375e+00
    1.3199859619e+01   -1.2248408794e+00
    1.3299860001e+01   -1.2676627636e+00
    1.3399909973e+01   -1.3114775419e+00
    1.3499850273e+01   -1.3562948704e+00
    1.3599880219e+01   -1.4021245241e+00
    1.3699910164e+01   -1.4489761591e+00
    1.3799960136e+01   -1.4968591928e+00
    1.3899950027e+01   -1.5457826853e+00
    1.4000009537e+01   -1.5957558155e+00
    1.4099869728e+01   -1.6467875242e+00
    1.4199870110e+01   -1.6988866329e+00
    1.4299839973e+01   -1.7520618439e+00
    1.4399920464e+01   -1.8063217402e+00
    1.4499799728e+01   -1.8616745472e+00
    1.4599889755e+01   -1.9181283712e+00
    1.4700019836e+01   -1.9756911993e+00
    1.4799869537e+01   -2.0343708992e+00
    1.4899970055e+01   -2.0941753387e+00
    1.4999830246e+01   -2.1551117897e+00
    1.5099940300e+01   -2.2171881199e+00
    1.5199870110e+01   -2.2804114819e+00
    1.5299850464e+01   -2.3447892666e+00
    1.5399880409e+01   -2.4103281498e+00
    1.5499930382e+01   -2.4770352840e+00
    1.5599860191e+01   -2.5449163914e+00
    1.5699890137e+01   -2.6139781475e+00
    1.5799949646e+01   -2.6842267513e+00
    1.5899909973e+01   -2.7556676865e+00
    1.5999930382e+01   -2.8283066750e+00
    1.6099910736e+01   -2.9021494389e+00
    1.6199869156e+01   -2.9772012234e+00
    1.6299909592e+01   -3.0534665585e+00
    1.6399980545e+01   -3.1309509277e+00
    1.6499889374e+01   -3.2096586227e+00
    1.6600000381e+01   -3.2895939350e+00
    1.6699850082e+01   -3.3707613945e+00
    1.6800020218e+01   -3.4531648159e+00
    1.6900009155e+01   -3.5368080139e+00
    1.6999980927e+01   -3.6216950417e+00
    1.7100019455e+01   -3.7078292370e+00
    1.7199890137e+01   -3.7952146530e+00
    1.7299989700e+01   -3.8838543892e+00
    1.7399919510e+01   -3.9737520218e+00
    1.7499919891e+01   -4.0649104118e+00
    1.7599880219e+01   -4.1573324203e+00
    1.7699880600e+01   -4.2510209084e+00
    1.7799879074e+01   -4.3459787369e+00
    1.7899829865e+01   -4.4422068596e+00
    1.7999969482e+01   -4.5397086143e+00
    1.8099979401e+01   -4.6384849548e+00
    1.8199890137e+01   -4.7385368347e+00
    1.8299829483e+01   -4.8398656845e+00
    1.8399959564e+01   -4.9424715042e+00
    1.8499990463e+01   -5.0463552475e+00
    1.8600000381e+01   -5.1515173912e+00
    1.8699880600e+01   -5.2579569817e+00
    1.8799840927e+01   -5.3656744957e+00
    1.8899869919e+01   -5.4746694565e+00
    1.8999919891e+01   -5.5849413872e+00
    1.9099920273e+01   -5.6964888573e+00
    1.9199859619e+01   -5.8093104362e+00
    1.9299879074e+01   -5.9234051704e+00
    1.9399860382e+01   -6.0387716293e+00
    1.9499940872e+01   -6.1554074287e+00
    1.9600009918e+01   -6.2733116150e+00
    1.9699979782e+01   -6.3924818039e+00
    1.9799999237e+01   -6.5129160881e+00
    1.9899900436e+01   -6.6346116066e+00
    1.9999860764e+01   -6.7575654984e+00
    2.0100009918e+01   -6.8817753792e+00
    2.0199930191e+01   -7.0072379112e+00
    2.0299850464e+01   -7.1339492798e+00
    2.0399929047e+01   -7.2619066238e+00
    2.0499980927e+01   -7.3911051750e+00
    2.0599969864e+01   -7.5215420723e+00
    2.0699840546e+01   -7.6532120705e+00
    2.0799900055e+01   -7.7861118317e+00
    2.0899860382e+01   -7.9202375412e+00
    2.0999900818e+01   -8.0555849075e+00
    2.1099859238e+01   -8.1921501160e+00
    2.1199930191e+01   -8.3299264908e+00
    2.1300039291e+01   -8.4689092636e+00
    2.1399850845e+01   -8.6090927124e+00
    2.1499980927e+01   -8.7504711151e+00
    2.1599859238e+01   -8.8930377960e+00
    2.1699880600e+01   -9.0367851257e+00
    2.1799930573e+01   -9.1817064285e+00
    2.1899980545e+01   -9.3277940750e+00
    2.1999879837e+01   -9.4750404358e+00
    2.2100019455e+01   -9.6234388351e+00
    2.2200040817e+01   -9.7729806900e+00
    2.2300020218e+01   -9.9236574173e+00
    2.2399879456e+01   -1.0075461388e+01
    2.2499900818e+01   -1.0228385925e+01
    2.2599889755e+01   -1.0382423401e+01
    2.2700019836e+01   -1.0537566185e+01
    2.2799940109e+01   -1.0693806648e+01
    2.2899900436e+01   -1.0851136208e+01
    2.2999950409e+01   -1.1009546280e+01
    2.3099859238e+01   -1.1169028282e+01
    2.3199859619e+01   -1.1329573631e+01
    2.3300029755e+01   -1.1491173744e+01
    2.3400039673e+01   -1.1653818130e+01
    2.3499950409e+01   -1.1817497253e+01
    2.3599880219e+01   -1.1982203484e+01
    2.3699979782e+01   -1.2147925377e+01
    2.3799970627e+01   -1.2314653397e+01
    2.3899850845e+01   -1.2482378006e+01
    2.3999950409e+01   -1.2651087761e+01
    2.4099939346e+01   -1.2820774078e+01
    2.4199970245e+01   -1.2991424561e+01
    2.4299959183e+01   -1.3163029671e+01
    2.4399919510e+01   -1.3335577965e+01
    2.4499860764e+01   -1.3509059906e+01
    2.4600030899e+01   -1.3683463097e+01
    2.4699920654e+01   -1.3858777046e+01
    2.4799980164e+01   -1.4034988403e+01
    2.4899900436e+01   -1.4212086678e+01
    2.4999919891e+01   -1.4390059471e+01
    2.5099969864e+01   -1.4568894386e+01
    2.5199920654e+01   -1.4748580933e+01
    2.5299900055e+01   -1.4929104805e+01
    2.5400049210e+01   -1.5110455513e+01
    2.5499950409e+01   -1.5292617798e+01
    2.5600049973e+01   -1.5475582123e+01
    2.5699890137e+01   -1.5659334183e+01
    2.5799869537e+01   -1.5843861580e+01
    2.5899999619e+01   -1.6029151917e+01
    2.5999940872e+01   -1.6215192795e+01
    2.6100030899e+01   -1.6401971817e+01
    2.6200019836e+01   -1.6589473724e+01
    2.6299940109e+01   -1.6777685165e+01
    2.6399879456e+01   -1.6966596603e+01
    2.6499879837e+01   -1.7156194687e+01
    2.6599920273e+01   -1.7346466064e+01
    2.6700040817e+01   -1.7537395477e+01
    2.6799970627e+01   -1.7728973389e+01
    2.6899869919e+01   -1.7921182632e+01
    2.6999980927e+01   -1.8114013672e+01
    2.7100049973e+01   -1.8307451248e+01
    2.7199979782e+01   -1.8501483917e+01
    2.7299890518e+01   -1.8696098328e+01
    2.7400020599e+01   -1.8891279221e+01
    2.7500030518e+01   -1.9087015152e+01
    2.7599880219e+01   -1.9283288956e+01
    2.7699920654e+01   -1.9480089188e+01
    2.7799900055e+01   -1.9677402496e+01
    2.7900009155e+01   -1.9875215530e+01
    2.8000000000e+01   -2.0073513031e+01
    2.8099910736e+01   -2.0272281647e+01
    2.8199989319e+01   -2.0471506119e+01
    2.8300060272e+01   -2.0671173096e+01
    2.8399919510e+01   -2.0871269226e+01
    2.8499889374e+01   -2.1071781158e+01
    2.8599920273e+01   -2.1272693634e+01
    2.8700000763e+01   -2.1473993301e+01
    2.8799999237e+01   -2.1675666809e+01
    2.8900060654e+01   -2.1877698898e+01
    2.8999929428e+01   -2.2080074310e+01
    2.9099960327e+01   -2.2282781601e+01
    2.9200029373e+01   -2.2485803604e+01
    2.9299890518e+01   -2.2689128876e+01
    2.9399969101e+01   -2.2892744064e+01
    2.9500059128e+01   -2.3096635818e+01
    2.9599899292e+01   -2.3300792694e+01
    2.9700050354e+01   -2.3505197525e+01
    2.9800029755e+01   -2.3709836960e+01
    2.9900049210e+01   -2.3914701462e+01
    2.9999879837e+01   -2.4119775772e+01
    3.0099939346e+01   -2.4325048447e+01
    3.0200040817e+01   -2.4530506134e+01
    3.0300020218e+01   -2.4736135483e+01
    3.0400049210e+01   -2.4941925049e+01
    3.0499990463e+01   -2.5147857666e+01
    3.0599929810e+01   -2.5353923798e+01
    3.0699960709e+01   -2.5560108185e+01
    3.0799980164e+01   -2.5766395569e+01
    3.0900070190e+01   -2.5972770691e+01
    3.1000080109e+01   -2.6179220200e+01
    3.1100040436e+01   -2.6385728836e+01
    3.1199899673e+01   -2.6592281342e+01
    3.1299989700e+01   -2.6798864365e+01
    3.1400060654e+01   -2.7005466461e+01
    3.1500049591e+01   -2.7212072372e+01
    3.1600059509e+01   -2.7418672562e+01
    3.1699960709e+01   -2.7625255585e+01
    3.1800050735e+01   -2.7831809998e+01
    3.1899919510e+01   -2.8038322449e+01
    3.2000061035e+01   -2.8244783401e+01
    3.2099929810e+01   -2.8451177597e+01
    3.2200031281e+01   -2.8657497406e+01
    3.2299961090e+01   -2.8863725662e+01
    3.2399921417e+01   -2.9069856644e+01
    3.2500030518e+01   -2.9275873184e+01
    3.2599880219e+01   -2.9481767654e+01
    3.2700038910e+01   -2.9687526703e+01
    3.2800041199e+01   -2.9893133163e+01
    3.2899940491e+01   -3.0098577499e+01
    3.3000030518e+01   -3.0303842545e+01
    3.3100009918e+01   -3.0508920670e+01
    3.3199928284e+01   -3.0713798523e+01
    3.3299949646e+01   -3.0918462753e+01
    3.3400051117e+01   -3.1122903824e+01
    3.3499950409e+01   -3.1327114105e+01
    3.3599971771e+01   -3.1531082153e+01
    3.3699878693e+01   -3.1734796524e+01
    3.3799880981e+01   -3.1938247681e+01
    3.3900009155e+01   -3.2141422272e+01
    3.4000019073e+01   -3.2344310760e+01
    3.4100028992e+01   -3.2546901703e+01
    3.4199840546e+01   -3.2749183655e+01
    3.4299919128e+01   -3.2951148987e+01
    3.4400020599e+01   -3.3152786255e+01
    3.4499919891e+01   -3.3354084015e+01
    3.4599849701e+01   -3.3555027008e+01
    3.4700019836e+01   -3.3755607605e+01
    3.4799869537e+01   -3.3955814362e+01
    3.4900039673e+01   -3.4155643463e+01
    3.4999988556e+01   -3.4355075836e+01
    3.5099838257e+01   -3.4554103851e+01
    3.5199878693e+01   -3.4752712250e+01
    3.5299919128e+01   -3.4950897217e+01
    3.5399898529e+01   -3.5148651123e+01
    3.5499900818e+01   -3.5345958710e+01
    3.5600021362e+01   -3.5542812347e+01
    3.5700000763e+01   -3.5739200592e+01
    3.5799999237e+01   -3.5935115814e+01
    3.5899848938e+01   -3.6130542755e+01
    3.6000019073e+01   -3.6325477600e+01
    3.6099830627e+01   -3.6519905090e+01
    3.6199928284e+01   -3.6713821411e+01
    3.6299961090e+01   -3.6907211304e+01
    3.6399898529e+01   -3.7100070953e+01
    3.6499839783e+01   -3.7292392731e+01
    3.6599861145e+01   -3.7484161377e+01
    3.6699848175e+01   -3.7675373077e+01
    3.6799900055e+01   -3.7866020203e+01
    3.6899921417e+01   -3.8056091309e+01
    3.6999801636e+01   -3.8245578766e+01
    3.7099868774e+01   -3.8434478760e+01
    3.7199939728e+01   -3.8622779846e+01
    3.7299858093e+01   -3.8810478210e+01
    3.7399959564e+01   -3.8997558594e+01
    3.7499881744e+01   -3.9184017181e+01
    3.7599830627e+01   -3.9369846344e+01
    3.7699920654e+01   -3.9555034637e+01
    3.7799869537e+01   -3.9739578247e+01
    3.7899978638e+01   -3.9923469543e+01
    3.7999950409e+01   -4.0106697083e+01
    3.8099830627e+01   -4.0289257050e+01
    3.8199878693e+01   -4.0471141815e+01
    3.8299850464e+01   -4.0652343750e+01
    3.8399829865e+01   -4.0832851410e+01
    3.8499839783e+01   -4.1012668610e+01
    3.8599819183e+01   -4.1191776276e+01
    3.8699970245e+01   -4.1370178223e+01
    3.8799980164e+01   -4.1547859192e+01
    3.8899848938e+01   -4.1724815369e+01
    3.8999938965e+01   -4.1901039124e+01
    3.9099811554e+01   -4.2076519012e+01
    3.9199920654e+01   -4.2251251221e+01
    3.9299758911e+01   -4.2425231934e+01
    3.9399898529e+01   -4.2598445892e+01
    3.9499908447e+01   -4.2770893097e+01
    3.9599861145e+01   -4.2942565918e+01
    3.9699920654e+01   -4.3113456726e+01
    3.9799839020e+01   -4.3283550262e+01
    3.9899909973e+01   -4.3452850342e+01
    3.9999870300e+01   -4.3621349335e+01
    4.0099899292e+01   -4.3789035797e+01
    4.0199829102e+01   -4.3955909729e+01
    4.0299900055e+01   -4.4121967316e+01
    4.0399749756e+01   -4.4287204742e+01
    4.0499870300e+01   -4.4451606750e+01
    4.0599769592e+01   -4.4615177155e+01
    4.0699859619e+01   -4.4777908325e+01
    4.0799930573e+01   -4.4939792633e+01
    4.0899780273e+01   -4.5100830078e+01
    4.0999889374e+01   -4.5261016846e+01
    4.1099800110e+01   -4.5420337677e+01
    4.1199848175e+01   -4.5578796387e+01
    4.1299758911e+01   -4.5736385345e+01
    4.1399860382e+01   -4.5893093109e+01
    4.1499748230e+01   -4.6048923492e+01
    4.1599929810e+01   -4.6203861237e+01
    4.1699920654e+01   -4.6357906342e+01
    4.1799869537e+01   -4.6511051178e+01
    4.1899898529e+01   -4.6663291931e+01
    4.1999870300e+01   -4.6814624786e+01
    4.2099918365e+01   -4.6965038300e+01
    4.2199859619e+01   -4.7114536285e+01
    4.2299720764e+01   -4.7263107300e+01
    4.2399780273e+01   -4.7410755157e+01
    4.2499710083e+01   -4.7557464600e+01
    4.2599838257e+01   -4.7703239441e+01
    4.2699790955e+01   -4.7848072052e+01
    4.2799831390e+01   -4.7991958618e+01
    4.2899799347e+01   -4.8134895325e+01
    4.2999748230e+01   -4.8276874542e+01
    4.3099830627e+01   -4.8417892456e+01
    4.3199771881e+01   -4.8557949066e+01
    4.3299758911e+01   -4.8697036743e+01
    4.3399898529e+01   -4.8835155487e+01
    4.3499820709e+01   -4.8972301483e+01
    4.3599750519e+01   -4.9108467102e+01
    4.3699859619e+01   -4.9243656158e+01
    4.3799839020e+01   -4.9377857208e+01
    4.3899730682e+01   -4.9511070251e+01
    4.3999698639e+01   -4.9643291473e+01
    4.4099819183e+01   -4.9774517059e+01
    4.4199798584e+01   -4.9904743195e+01
    4.4299720764e+01   -5.0033966064e+01
    4.4399871826e+01   -5.0162185669e+01
    4.4499710083e+01   -5.0289394379e+01
    4.4599868774e+01   -5.0415588379e+01
    4.4699779510e+01   -5.0540771484e+01
    4.4799739838e+01   -5.0664936066e+01
    4.4899848938e+01   -5.0788078308e+01
    4.4999820709e+01   -5.0910194397e+01
    4.5099830627e+01   -5.1031280518e+01
    4.5199878693e+01   -5.1151332855e+01
    4.5299751282e+01   -5.1270347595e+01
    4.5399658203e+01   -5.1388320923e+01
    4.5499748230e+01   -5.1505256653e+01
    4.5599708557e+01   -5.1621147156e+01
    4.5699699402e+01   -5.1735988617e+01
    4.5799850464e+01   -5.1849777222e+01
    4.5899738312e+01   -5.1962512970e+01
    4.5999668121e+01   -5.2074192047e+01
    4.6099849701e+01   -5.2184810638e+01
    4.6199741364e+01   -5.2294368744e+01
    4.6299770355e+01   -5.2402858734e+01
    4.6399681091e+01   -5.2510280609e+01
    4.6499801636e+01   -5.2616630554e+01
    4.6599658966e+01   -5.2721908569e+01
    4.6699668884e+01   -5.2826107025e+01
    4.6799648285e+01   -5.2929225922e+01
    4.6899700165e+01   -5.3031265259e+01
    4.6999820709e+01   -5.3132225037e+01
    4.7099849701e+01   -5.3232105255e+01
    4.7199649811e+01   -5.3330894470e+01
    4.7299690247e+01   -5.3428600311e+01
    4.7399688721e+01   -5.3525211334e+01
    4.7499721527e+01   -5.3620735168e+01
    4.7599830627e+01   -5.3715160370e+01
    4.7699710846e+01   -5.3808490753e+01
    4.7799690247e+01   -5.3900722504e+01
    4.7899688721e+01   -5.3991851807e+01
    4.7999828339e+01   -5.4081878662e+01
    4.8099620819e+01   -5.4170799255e+01
    4.8199798584e+01   -5.4258609772e+01
    4.8299709320e+01   -5.4345314026e+01
    4.8399730682e+01   -5.4430900574e+01
    4.8499660492e+01   -5.4515377045e+01
    4.8599639893e+01   -5.4598731995e+01
    4.8699760437e+01   -5.4680973053e+01
    4.8799789429e+01   -5.4762088776e+01
    4.8899818420e+01   -5.4842086792e+01
    4.8999641418e+01   -5.4920951843e+01
    4.9099720001e+01   -5.4998691559e+01
    4.9199699402e+01   -5.5075302124e+01
    4.9299720764e+01   -5.5150775909e+01
    4.9399700165e+01   -5.5225116730e+01
    4.9499649048e+01   -5.5298316956e+01
    4.9599781036e+01   -5.5370380402e+01
    4.9699661255e+01   -5.5441307068e+01
    4.9799720764e+01   -5.5511093140e+01
    4.9899749756e+01   -5.5579738617e+01
    4.9999740601e+01   -5.5647235870e+01
    5.0099758148e+01   -5.5713588715e+01
    5.0199668884e+01   -5.5778789520e+01
    5.0299781799e+01   -5.5842845917e+01
    5.0399608612e+01   -5.5905750275e+01
    5.0499679565e+01   -5.5967498779e+01
    5.0599658966e+01   -5.6028091431e+01
    5.0699729919e+01   -5.6087532043e+01
    5.0799579620e+01   -5.6145812988e+01
    5.0899711609e+01   -5.6202934265e+01
    5.0999668121e+01   -5.6258895874e+01
    5.1099681854e+01   -5.6313694000e+01
    5.1199718475e+01   -5.6367328644e+01
    5.1299629211e+01   -5.6419795990e+01
    5.1399608612e+01   -5.6471092224e+01
    5.1499649048e+01   -5.6521221161e+01
    5.1599689484e+01   -5.6570178986e+01
    5.1699771881e+01   -5.6617965698e+01
    5.1799648285e+01   -5.6664581299e+01
    5.1899570465e+01   -5.6710025787e+01
    5.1999618530e+01   -5.6754295349e+01
    5.2099750519e+01   -5.6797389984e+01
    5.2199779510e+01   -5.6839302063e+01
    5.2299690247e+01   -5.6880035400e+01
    5.2399639130e+01   -5.6919586182e+01
    5.2499618530e+01   -5.6957946777e+01
    5.2599720001e+01   -5.6995128632e+01
    5.2699611664e+01   -5.7031120300e+01
    5.2799629211e+01   -5.7065925598e+01
    5.2899650574e+01   -5.7099548340e+01
    5.2999748230e+01   -5.7131984711e+01
    5.3099559784e+01   -5.7163234711e+01
    5.3199630737e+01   -5.7193298340e+01
    5.3299629211e+01   -5.7222179413e+01
    5.3399551392e+01   -5.7249870300e+01
    5.3499561310e+01   -5.7276374817e+01
    5.3599681854e+01   -5.7301692963e+01
    5.3699661255e+01   -5.7325817108e+01
    5.3799629211e+01   -5.7348751068e+01
    5.3899570465e+01   -5.7370491028e+01
    5.3999599457e+01   -5.7391033173e+01
    5.4099548340e+01   -5.7410369873e+01
    5.4199630737e+01   -5.7428508759e+01
    5.4299591064e+01   -5.7445434570e+01
    5.4399700165e+01   -5.7461151123e+01
    5.4499580383e+01   -5.7475658417e+01
    5.4599559784e+01   -5.7488956451e+01
    5.4699630737e+01   -5.7501045227e+01
    5.4799598694e+01   -5.7511924744e+01
    5.4899539948e+01   -5.7521595001e+01
    5.4999591827e+01   -5.7530056000e+01
    5.5099609375e+01   -5.7537303925e+01
    5.5199581146e+01   -5.7543346405e+01
    5.5299530029e+01   -5.7548179626e+01
    5.5399658203e+01   -5.7551799774e+01
    5.5499691010e+01   -5.7554210663e+01
    5.5599700928e+01   -5.7555416107e+01
    5.5699550629e+01   -5.7555408478e+01
    5.5799648285e+01   -5.7554191589e+01
    5.5899520874e+01   -5.7551773071e+01
    5.5999530792e+01   -5.7548149109e+01
    5.6099529266e+01   -5.7543319702e+01
    5.6199550629e+01   -5.7537277222e+01
    5.6299530029e+01   -5.7530029297e+01
    5.6399669647e+01   -5.7521568298e+01
    5.6499679565e+01   -5.7511905670e+01
    5.6599498749e+01   -5.7501037598e+01
    5.6699600220e+01   -5.7488971710e+01
    5.6799530029e+01   -5.7475708008e+01
    5.6899688721e+01   -5.7461246490e+01
    5.6999511719e+01   -5.7445590973e+01
    5.7099651337e+01   -5.7428737640e+01
    5.7199661255e+01   -5.7410690308e+01
    5.7299690247e+01   -5.7391448975e+01
    5.7399559021e+01   -5.7371009827e+01
    5.7499530792e+01   -5.7349380493e+01
    5.7599571228e+01   -5.7326560974e+01
    5.7699489594e+01   -5.7302555084e+01
    5.7799510956e+01   -5.7277355194e+01
    5.7899600983e+01   -5.7250953674e+01
    5.7999641418e+01   -5.7223365784e+01
    5.8099681854e+01   -5.7194580078e+01
    5.8199550629e+01   -5.7164604187e+01
    5.8299530029e+01   -5.7133438110e+01
    5.8399658203e+01   -5.7101078033e+01
    5.8499481201e+01   -5.7067535400e+01
    5.8599620819e+01   -5.7032806396e+01
    5.8699668884e+01   -5.6996898651e+01
    5.8799610138e+01   -5.6959804535e+01
    5.8899639130e+01   -5.6921531677e+01
    5.8999660492e+01   -5.6882083893e+01
    5.9099658966e+01   -5.6841461182e+01
    5.9199630737e+01   -5.6799667358e+01
    5.9299591064e+01   -5.6756702423e+01
    5.9399631500e+01   -5.6712577820e+01
    5.9499580383e+01   -5.6667285919e+01
    5.9599498749e+01   -5.6620834351e+01
    5.9699520111e+01   -5.6573223114e+01
    5.9799568176e+01   -5.6524459839e+01
    5.9899608612e+01   -5.6474544525e+01
    5.9999649048e+01   -5.6423473358e+01
    6.0099529266e+01   -5.6371257782e+01
    6.0199649811e+01   -5.6317897797e+01
    6.0299560547e+01   -5.6263397217e+01
    6.0399578094e+01   -5.6207756042e+01
    6.0499519348e+01   -5.6150981903e+01
    6.0599639893e+01   -5.6093074799e+01
    6.0699478149e+01   -5.6034038544e+01
    6.0799549103e+01   -5.5973876953e+01
    6.0899600983e+01   -5.5912593842e+01
    6.0999610901e+01   -5.5850193024e+01
    6.1099571228e+01   -5.5786674500e+01
    6.1199470520e+01   -5.5722045898e+01
    6.1299510956e+01   -5.5656303406e+01
    6.1399539948e+01   -5.5589458466e+01
    6.1499591827e+01   -5.5521511078e+01
    6.1599578857e+01   -5.5452468872e+01
    6.1699619293e+01   -5.5382331848e+01
    6.1799568176e+01   -5.5311103821e+01
    6.1899570465e+01   -5.5238788605e+01
    6.1999500275e+01   -5.5165393829e+01
    6.2099418640e+01   -5.5090919495e+01
    6.2199520111e+01   -5.5015373230e+01
    6.2299468994e+01   -5.4938758850e+01
    6.2399509430e+01   -5.4861076355e+01
    6.2499500275e+01   -5.4782337189e+01
    6.2599411011e+01   -5.4702537537e+01
    6.2699550629e+01   -5.4621688843e+01
    6.2799461365e+01   -5.4539794922e+01
    6.2899559021e+01   -5.4456859589e+01
    6.2999450684e+01   -5.4372882843e+01
    6.3099491119e+01   -5.4287876129e+01
    6.3199420929e+01   -5.4201839447e+01
    6.3299400330e+01   -5.4114784241e+01
    6.3399520874e+01   -5.4026710510e+01
    6.3499458313e+01   -5.3937629700e+01
    6.3599540710e+01   -5.3847549438e+01
    6.3699409485e+01   -5.3756473541e+01
    6.3799560547e+01   -5.3664409637e+01
    6.3899471283e+01   -5.3571365356e+01
    6.3999549866e+01   -5.3477340698e+01
    6.4099456787e+01   -5.3382343292e+01
    6.4199539185e+01   -5.3286376953e+01
    6.4299423218e+01   -5.3189449310e+01
    6.4399513245e+01   -5.3091564178e+01
    6.4499450684e+01   -5.2992729187e+01
    6.4599403381e+01   -5.2892948151e+01
    6.4699493408e+01   -5.2792232513e+01
    6.4799499512e+01   -5.2690582275e+01
    6.4899459839e+01   -5.2588001251e+01
    6.4999427795e+01   -5.2484497070e+01
    6.5099426270e+01   -5.2380077362e+01
    6.5199409485e+01   -5.2274742126e+01
    6.5299491882e+01   -5.2168502808e+01
    6.5399398804e+01   -5.2061363220e+01
    6.5499526978e+01   -5.1953330994e+01
    6.5599487305e+01   -5.1844409943e+01
    6.5699531555e+01   -5.1734615326e+01
    6.5799430847e+01   -5.1623947144e+01
    6.5899406433e+01   -5.1512416840e+01
    6.5999496460e+01   -5.1400024414e+01
    6.6099533081e+01   -5.1286785126e+01
    6.6199447632e+01   -5.1172698975e+01
    6.6299552917e+01   -5.1057777405e+01
    6.6399436951e+01   -5.0942028046e+01
    6.6499336243e+01   -5.0825450897e+01
    6.6599380493e+01   -5.0708057404e+01
    6.6699417114e+01   -5.0589847565e+01
    6.6799346924e+01   -5.0470832825e+01
    6.6899452209e+01   -5.0351016998e+01
    6.6999389648e+01   -5.0230411530e+01
    6.7099349976e+01   -5.0109020233e+01
    6.7199493408e+01   -4.9986854553e+01
    6.7299438477e+01   -4.9863910675e+01
    6.7399459839e+01   -4.9740207672e+01
    6.7499511719e+01   -4.9615753174e+01
    6.7599357605e+01   -4.9490547180e+01
    6.7699462891e+01   -4.9364597321e+01
    6.7799316406e+01   -4.9237911224e+01
    6.7899497986e+01   -4.9110496521e+01
    6.7999496460e+01   -4.8982353210e+01
    6.8099510193e+01   -4.8853496552e+01
    6.8199508667e+01   -4.8723930359e+01
    6.8299369812e+01   -4.8593662262e+01
    6.8399436951e+01   -4.8462703705e+01
    6.8499511719e+01   -4.8331054688e+01
    6.8599487305e+01   -4.8198730469e+01
    6.8699317932e+01   -4.8065727234e+01
    6.8799476624e+01   -4.7932064056e+01
    6.8899497986e+01   -4.7797744751e+01
    6.8999359131e+01   -4.7662773132e+01
    6.9099327087e+01   -4.7527156830e+01
    6.9199363708e+01   -4.7390907288e+01
    6.9299339294e+01   -4.7254032135e+01
    6.9399513245e+01   -4.7116531372e+01
    6.9499511719e+01   -4.6978416443e+01
    6.9599418640e+01   -4.6839691162e+01
    6.9699501038e+01   -4.6700366974e+01
    6.9799377441e+01   -4.6560447693e+01
    6.9899391174e+01   -4.6419940948e+01
    6.9999351501e+01   -4.6278854370e+01
    7.0099456787e+01   -4.6137191772e+01
    7.0199440002e+01   -4.5994964600e+01
    7.0299430847e+01   -4.5852176666e+01
    7.0399467468e+01   -4.5708827972e+01
    7.0499389648e+01   -4.5564933777e+01
    7.0599327087e+01   -4.5420494080e+01
    7.0699417114e+01   -4.5275516510e+01
    7.0799339294e+01   -4.5130012512e+01
    7.0899307251e+01   -4.4983982086e+01
    7.0999481201e+01   -4.4837436676e+01
    7.1099426270e+01   -4.4690376282e+01
    7.1199478149e+01   -4.4542812347e+01
    7.1299331665e+01   -4.4394756317e+01
    7.1399299622e+01   -4.4246208191e+01
    7.1499427795e+01   -4.4097179413e+01
    7.1599288940e+01   -4.3947673798e+01
    7.1699302673e+01   -4.3797695160e+01
    7.1799308777e+01   -4.3647251129e+01
    7.1899368286e+01   -4.3496349335e+01
    7.1999443054e+01   -4.3344985962e+01
    7.2099403381e+01   -4.3193172455e+01
    7.2199401855e+01   -4.3040916443e+01
    7.2299278259e+01   -4.2888221741e+01
    7.2399421692e+01   -4.2735095978e+01
    7.2499320984e+01   -4.2581546783e+01
    7.2599426270e+01   -4.2427581787e+01
    7.2699371338e+01   -4.2273204803e+01
    7.2799392700e+01   -4.2118423462e+01
    7.2899368286e+01   -4.1963241577e+01
    7.2999366760e+01   -4.1807666779e+01
    7.3099403381e+01   -4.1651702881e+01
    7.3199462891e+01   -4.1495353699e+01
    7.3299362183e+01   -4.1338623047e+01
    7.3399307251e+01   -4.1181514740e+01
    7.3499282837e+01   -4.1024040222e+01
    7.3599281311e+01   -4.0866199493e+01
    7.3699363708e+01   -4.0708003998e+01
    7.3799278259e+01   -4.0549446106e+01
    7.3899230957e+01   -4.0390544891e+01
    7.3999427795e+01   -4.0231296539e+01
    7.4099403381e+01   -4.0071708679e+01
    7.4199386597e+01   -3.9911788940e+01
    7.4299232483e+01   -3.9751541138e+01
    7.4399269104e+01   -3.9590965271e+01
    7.4499397278e+01   -3.9430072784e+01
    7.4599372864e+01   -3.9268859863e+01
    7.4699401855e+01   -3.9107330322e+01
    7.4799232483e+01   -3.8945491791e+01
    7.4899223328e+01   -3.8783348083e+01
    7.4999313354e+01   -3.8620899200e+01
    7.5099380493e+01   -3.8458152771e+01
    7.5199272156e+01   -3.8295112610e+01
    7.5299392700e+01   -3.8131778717e+01
    7.5399360657e+01   -3.7968162537e+01
    7.5499389648e+01   -3.7804260254e+01
    7.5599311829e+01   -3.7640079498e+01
    7.5699241638e+01   -3.7475620270e+01
    7.5799308777e+01   -3.7310886383e+01
    7.5899238586e+01   -3.7145885468e+01
    7.5999336243e+01   -3.6980617523e+01
    7.6099342346e+01   -3.6815082550e+01
    7.6199272156e+01   -3.6649288177e+01
    7.6299392700e+01   -3.6483234406e+01
    7.6399200439e+01   -3.6316932678e+01
    7.6499198914e+01   -3.6150375366e+01
    7.6599311829e+01   -3.5983570099e+01
    7.6699241638e+01   -3.5816516876e+01
    7.6799217224e+01   -3.5649223328e+01
    7.6899383545e+01   -3.5481689453e+01
    7.6999320984e+01   -3.5313919067e+01
    7.7099342346e+01   -3.5145912170e+01
    7.7199279785e+01   -3.4977676392e+01
    7.7299201965e+01   -3.4809207916e+01
    7.7399353027e+01   -3.4640514374e+01
    7.7499267578e+01   -3.4471591949e+01
    7.7599372864e+01   -3.4302448273e+01
    7.7699302673e+01   -3.4133083344e+01
    7.7799316406e+01   -3.3963500977e+01
    7.7899246216e+01   -3.3793697357e+01
    7.7999359131e+01   -3.3623680115e+01
    7.8099243164e+01   -3.3453445435e+01
    7.8199371338e+01   -3.3283000946e+01
    7.8299316406e+01   -3.3112346649e+01
    7.8399307251e+01   -3.2941478729e+01
    7.8499229431e+01   -3.2770404816e+01
    7.8599212646e+01   -3.2599124908e+01
    7.8699249268e+01   -3.2427635193e+01
    7.8799362183e+01   -3.2255943298e+01
    7.8899246216e+01   -3.2084049225e+01
    7.8999336243e+01   -3.1911945343e+01
    7.9099182129e+01   -3.1739639282e+01
    7.9199157715e+01   -3.1567125320e+01
    7.9299316406e+01   -3.1394409180e+01
    7.9399299622e+01   -3.1221490860e+01
    7.9499320984e+01   -3.1048370361e+01
    7.9599227905e+01   -3.0875047684e+01
    7.9699150085e+01   -3.0701524734e+01
    7.9799156189e+01   -3.0527799606e+01
    7.9899223328e+01   -3.0353872299e+01
    7.9999267578e+01   -3.0179744720e+01
    8.0099151611e+01   -3.0005414963e+01
    8.0199127197e+01   -2.9830883026e+01
    8.0299156189e+01   -2.9656148911e+01
    8.0399322510e+01   -2.9481218338e+01
    8.0499183655e+01   -2.9306089401e+01
    8.0599151611e+01   -2.9130762100e+01
    8.0699302673e+01   -2.8955238342e+01
    8.0799316406e+01   -2.8779518127e+01
    8.0899230957e+01   -2.8603603363e+01
    8.0999237061e+01   -2.8427490234e+01
    8.1099182129e+01   -2.8251178741e+01
    8.1199302673e+01   -2.8074670792e+01
    8.1299316406e+01   -2.7897964478e+01
    8.1399131775e+01   -2.7721059799e+01
    8.1499252319e+01   -2.7543956757e+01
    8.1599166870e+01   -2.7366651535e+01
    8.1699188232e+01   -2.7189147949e+01
    8.1799217224e+01   -2.7011442184e+01
    8.1899192810e+01   -2.6833534241e+01
    8.1999198914e+01   -2.6655426025e+01
    8.2099296570e+01   -2.6477115631e+01
    8.2199096680e+01   -2.6298601151e+01
    8.2299240112e+01   -2.6119884491e+01
    8.2399192810e+01   -2.5940965652e+01
    8.2499206543e+01   -2.5761844635e+01
    8.2599258423e+01   -2.5582523346e+01
    8.2699203491e+01   -2.5402999878e+01
    8.2799301147e+01   -2.5223272324e+01
    8.2899291992e+01   -2.5043340683e+01
    8.2999229431e+01   -2.4863204956e+01
    8.3099212646e+01   -2.4682859421e+01
    8.3199089050e+01   -2.4502305984e+01
    8.3299263000e+01   -2.4321540833e+01
    8.3399261475e+01   -2.4140565872e+01
    8.3499153137e+01   -2.3959377289e+01
    8.3599159241e+01   -2.3777973175e+01
    8.3699203491e+01   -2.3596353531e+01
    8.3799186707e+01   -2.3414518356e+01
    8.3899200439e+01   -2.3232465744e+01
    8.3999130249e+01   -2.3050197601e+01
    8.4099258423e+01   -2.2867712021e+01
    8.4199172974e+01   -2.2685012817e+01
    8.4299270630e+01   -2.2502098083e+01
    8.4399192810e+01   -2.2318967819e+01
    8.4499221802e+01   -2.2135623932e+01
    8.4599067688e+01   -2.1952060699e+01
    8.4699256897e+01   -2.1768280029e+01
    8.4799232483e+01   -2.1584280014e+01
    8.4899063110e+01   -2.1400056839e+01
    8.4999206543e+01   -2.1215612411e+01
    8.5099212646e+01   -2.1030942917e+01
    8.5199073792e+01   -2.0846046448e+01
    8.5299133301e+01   -2.0660923004e+01
    8.5399063110e+01   -2.0475570679e+01
    8.5499076843e+01   -2.0289987564e+01
    8.5599189758e+01   -2.0104173660e+01
    8.5699180603e+01   -1.9918128967e+01
    8.5799186707e+01   -1.9731851578e+01
    8.5899070740e+01   -1.9545341492e+01
    8.5999137878e+01   -1.9358600616e+01
    8.6099128723e+01   -1.9171627045e+01
    8.6199050903e+01   -1.8984420776e+01
    8.6299232483e+01   -1.8796981812e+01
    8.6399223328e+01   -1.8609312057e+01
    8.6499046326e+01   -1.8421407700e+01
    8.6599197388e+01   -1.8233272552e+01
    8.6699157715e+01   -1.8044904709e+01
    8.6799057007e+01   -1.7856304169e+01
    8.6899139404e+01   -1.7667470932e+01
    8.6999229431e+01   -1.7478406906e+01
    8.7099159241e+01   -1.7289108276e+01
    8.7199142456e+01   -1.7099575043e+01
    8.7299156189e+01   -1.6909807205e+01
    8.7399177551e+01   -1.6719804764e+01
    8.7499076843e+01   -1.6529565811e+01
    8.7599159241e+01   -1.6339090347e+01
    8.7699119568e+01   -1.6148374557e+01
    8.7799079895e+01   -1.5957418442e+01
    8.7899116516e+01   -1.5766221046e+01
    8.7999031067e+01   -1.5574783325e+01
    8.8099113464e+01   -1.5383104324e+01
    8.8199150085e+01   -1.5191183090e+01
    8.8299140930e+01   -1.4999020576e+01
    8.8399017334e+01   -1.4806616783e+01
    8.8499076843e+01   -1.4613972664e+01
    8.8598999023e+01   -1.4421090126e+01
    8.8699058533e+01   -1.4227969170e+01
    8.8799140930e+01   -1.4034610748e+01
    8.8899147034e+01   -1.3841017723e+01
    8.8999183655e+01   -1.3647190094e+01
    8.9099006653e+01   -1.3453129768e+01
    8.9199111938e+01   -1.3258837700e+01
    8.9299011230e+01   -1.3064311981e+01
    8.9399070740e+01   -1.2869553566e+01
    8.9499076843e+01   -1.2674563408e+01
    8.9599052429e+01   -1.2479339600e+01
    8.9699012756e+01   -1.2283883095e+01
    8.9799156189e+01   -1.2088194847e+01
    8.9899116516e+01   -1.1892273903e+01
    8.9999160767e+01   -1.1696121216e+01
    9.0099052429e+01   -1.1499735832e+01
    9.0199073792e+01   -1.1303120613e+01
    9.0298988342e+01   -1.1106275558e+01
    9.0399093628e+01   -1.0909201622e+01
    9.0499153137e+01   -1.0711901665e+01
    9.0599166870e+01   -1.0514376640e+01
    9.0699180603e+01   -1.0316628456e+01
    9.0799049377e+01   -1.0118657112e+01
    9.0899002075e+01   -9.9204635620e+00
    9.0999046326e+01   -9.7220478058e+00
    9.1099113464e+01   -9.5234098434e+00
    9.1199150085e+01   -9.3245525360e+00
    9.1299156189e+01   -9.1254758835e+00
    9.1398971558e+01   -8.9261798859e+00
    9.1499122620e+01   -8.7266674042e+00
    9.1599029541e+01   -8.5269384384e+00
    9.1699127197e+01   -8.3269948959e+00
    9.1799110413e+01   -8.1268386841e+00
    9.1899063110e+01   -7.9264707565e+00
    9.1999160767e+01   -7.7258930206e+00
    9.2098983765e+01   -7.5251064301e+00
    9.2198959351e+01   -7.3241133690e+00
    9.2299110413e+01   -7.1229147911e+00
    9.2399032593e+01   -6.9215130806e+00
    9.2499137878e+01   -6.7199101448e+00
    9.2598968506e+01   -6.5181083679e+00
    9.2699111938e+01   -6.3161110878e+00
    9.2798988342e+01   -6.1139206886e+00
    9.2898948669e+01   -5.9115395546e+00
    9.2999107361e+01   -5.7089695930e+00
    9.3099113464e+01   -5.5062127113e+00
    9.3199127197e+01   -5.3032712936e+00
    9.3298973083e+01   -5.1001467705e+00
    9.3398933411e+01   -4.8968400955e+00
    9.3499107361e+01   -4.6933541298e+00
    9.3599021912e+01   -4.4896903038e+00
    9.3699089050e+01   -4.2858510017e+00
    9.3799079895e+01   -4.0818381310e+00
    9.3898979187e+01   -3.8776538372e+00
    9.3998992920e+01   -3.6732997894e+00
    9.4098991394e+01   -3.4687781334e+00
    9.4199073792e+01   -3.2640907764e+00
    9.4299018860e+01   -3.0592396259e+00
    9.4398986816e+01   -2.8542268276e+00
    9.4498908997e+01   -2.6490540504e+00
    9.4598937988e+01   -2.4437234402e+00
    9.4698966980e+01   -2.2382371426e+00
    9.4799011230e+01   -2.0325977802e+00
    9.4898948669e+01   -1.8268083334e+00
    9.4999000549e+01   -1.6208714247e+00
    9.5098907471e+01   -1.4147899151e+00
    9.5198997498e+01   -1.2085671425e+00
    9.5299057007e+01   -1.0022063255e+00
    9.5398956299e+01   -7.9571074247e-01
    9.5498977661e+01   -5.8908343315e-01
    9.5599006653e+01   -3.8232779503e-01
    9.5699096680e+01   -1.7544692755e-01
    9.5798973083e+01    3.1556010246e-02
    9.5898971558e+01    2.3867794871e-01
    9.5999076843e+01    4.4591584802e-01
    9.6098991394e+01    6.5326672792e-01
    9.6199043274e+01    8.6072766781e-01
    9.6299003601e+01    1.0682957172e+00
    9.6399093628e+01    1.2759683132e+00
    9.6498893738e+01    1.4837428331e+00
    9.6598922729e+01    1.6916165352e+00
    9.6698982239e+01    1.8995869160e+00
    9.6799003601e+01    2.1076509953e+00
    9.6898986816e+01    2.3158056736e+00
    9.6998863220e+01    2.5240476131e+00
    9.7099021912e+01    2.7323744297e+00
    9.7198966980e+01    2.9407825470e+00
    9.7298942566e+01    3.1492686272e+00
    9.7399002075e+01    3.3578298092e+00
    9.7498947144e+01    3.5664622784e+00
    9.7598876953e+01    3.7751629353e+00
    9.7698966980e+01    3.9839289188e+00
    9.7799011230e+01    4.1927566528e+00
    9.7898872375e+01    4.4016423225e+00
    9.7998893738e+01    4.6105837822e+00
    9.8098953247e+01    4.8195762634e+00
    9.8198936462e+01    5.0286173820e+00
    9.8298957825e+01    5.2377028465e+00
    9.8399017334e+01    5.4468293190e+00
    9.8498840332e+01    5.6559934616e+00
    9.8598869324e+01    5.8651919365e+00
    9.8698890686e+01    6.0744223595e+00
    9.8798912048e+01    6.2836804390e+00
    9.8899002075e+01    6.4929637909e+00
    9.8999031067e+01    6.7022686005e+00
    9.9098930359e+01    6.9115924835e+00
    9.9198883057e+01    7.1209321022e+00
    9.9299003601e+01    7.3302850723e+00
    9.9398872375e+01    7.5396485329e+00
    9.9498962402e+01    7.7490205765e+00
    9.9598922729e+01    7.9583983421e+00
    9.9698913574e+01    8.1677799225e+00
    9.9798957825e+01    8.3771610260e+00
    9.9898849487e+01    8.5865402222e+00
    9.9998931885e+01    8.7959127426e+00
    1.0009880066e+02    9.0052738190e+00
    1.0019889832e+02    9.2146205902e+00
    1.0029879761e+02    9.4239463806e+00
    1.0039900208e+02    9.6332464218e+00
    1.0049890137e+02    9.8425159454e+00
    1.0059899902e+02    1.0051749229e+01
    1.0069879913e+02    1.0260939598e+01
    1.0079889679e+02    1.0470084190e+01
    1.0089880371e+02    1.0679176331e+01
    1.0099890137e+02    1.0888210297e+01
    1.0109889984e+02    1.1097183228e+01
    1.0119889832e+02    1.1306091309e+01
    1.0129889679e+02    1.1514927864e+01
    1.0139880371e+02    1.1723691940e+01
    1.0149890137e+02    1.1932378769e+01
    1.0159899902e+02    1.2140986443e+01
    1.0169879913e+02    1.2349512100e+01
    1.0179900360e+02    1.2557951927e+01
    1.0189890289e+02    1.2766304016e+01
    1.0199890137e+02    1.2974565506e+01
    1.0209899902e+02    1.3182729721e+01
    1.0219889832e+02    1.3390796661e+01
    1.0229900360e+02    1.3598762512e+01
    1.0239900208e+02    1.3806622505e+01
    1.0249900055e+02    1.4014373779e+01
    1.0259880066e+02    1.4222014427e+01
    1.0269899750e+02    1.4429539680e+01
    1.0279900360e+02    1.4636945724e+01
    1.0289890289e+02    1.4844227791e+01
    1.0299880219e+02    1.5051381111e+01
    1.0309899902e+02    1.5258401871e+01
    1.0319889832e+02    1.5465284348e+01
    1.0329879761e+02    1.5672022820e+01
    1.0339890289e+02    1.5878614426e+01
    1.0349900055e+02    1.6085056305e+01
    1.0359889984e+02    1.6291341782e+01
    1.0369899750e+02    1.6497468948e+01
    1.0379879761e+02    1.6703432083e+01
    1.0389880371e+02    1.6909231186e+01
    1.0399880219e+02    1.7114862442e+01
    1.0409889984e+02    1.7320323944e+01
    1.0419889832e+02    1.7525608063e+01
    1.0429889679e+02    1.7730712891e+01
    1.0439880371e+02    1.7935634613e+01
    1.0449890137e+02    1.8140367508e+01
    1.0459889984e+02    1.8344907761e+01
    1.0469899750e+02    1.8549249649e+01
    1.0479879761e+02    1.8753393173e+01
    1.0489890289e+02    1.8957332611e+01
    1.0499890137e+02    1.9161060333e+01
    1.0509889984e+02    1.9364574432e+01
    1.0519889832e+02    1.9567867279e+01
    1.0529879761e+02    1.9770940781e+01
    1.0539890289e+02    1.9973785400e+01
    1.0549880219e+02    2.0176399231e+01
    1.0559870148e+02    2.0378778458e+01
    1.0569889832e+02    2.0580917358e+01
    1.0579889679e+02    2.0782812119e+01
    1.0589890289e+02    2.0984458923e+01
    1.0599880219e+02    2.1185850143e+01
    1.0609880066e+02    2.1386981964e+01
    1.0619879913e+02    2.1587850571e+01
    1.0629879761e+02    2.1788450241e+01
    1.0639880371e+02    2.1988779068e+01
    1.0649880219e+02    2.2188831329e+01
    1.0659870148e+02    2.2388607025e+01
    1.0669889832e+02    2.2588098526e+01
    1.0679879761e+02    2.2787302017e+01
    1.0689880371e+02    2.2986209869e+01
    1.0699890137e+02    2.3184822083e+01
    1.0709870148e+02    2.3383132935e+01
    1.0719869995e+02    2.3581136703e+01
    1.0729879761e+02    2.3778833389e+01
    1.0739890289e+02    2.3976215363e+01
    1.0749890137e+02    2.4173276901e+01
    1.0759880066e+02    2.4370014191e+01
    1.0769889832e+02    2.4566423416e+01
    1.0779889679e+02    2.4762500763e+01
    1.0789880371e+02    2.4958240509e+01
    1.0799880219e+02    2.5153638840e+01
    1.0809889984e+02    2.5348691940e+01
    1.0819889832e+02    2.5543394089e+01
    1.0829869843e+02    2.5737741470e+01
    1.0839880371e+02    2.5931730270e+01
    1.0849880219e+02    2.6125356674e+01
    1.0859889984e+02    2.6318614960e+01
    1.0869879913e+02    2.6511501312e+01
    1.0879869843e+02    2.6704011917e+01
    1.0889890289e+02    2.6896137238e+01
    1.0899880219e+02    2.7087877274e+01
    1.0909889984e+02    2.7279222488e+01
    1.0919879913e+02    2.7470170975e+01
    1.0929889679e+02    2.7660718918e+01
    1.0939890289e+02    2.7850860596e+01
    1.0949880219e+02    2.8040590286e+01
    1.0959880066e+02    2.8229902267e+01
    1.0969889832e+02    2.8418794632e+01
    1.0979879761e+02    2.8607257843e+01
    1.0989890289e+02    2.8795289993e+01
    1.0999880219e+02    2.8982887268e+01
    1.1009880066e+02    2.9170047760e+01
    1.1019869995e+02    2.9356763840e+01
    1.1029869843e+02    2.9543031693e+01
    1.1039880371e+02    2.9728849411e+01
    1.1049880219e+02    2.9914213181e+01
    1.1059880066e+02    3.0099117279e+01
    1.1069879913e+02    3.0283557892e+01
    1.1079879761e+02    3.0467529297e+01
    1.1089869690e+02    3.0651029587e+01
    1.1099880219e+02    3.0834053040e+01
    1.1109870148e+02    3.1016593933e+01
    1.1119879913e+02    3.1198648453e+01
    1.1129879761e+02    3.1380212784e+01
    1.1139869690e+02    3.1561279297e+01
    1.1149870300e+02    3.1741849899e+01
    1.1159880066e+02    3.1921913147e+01
    1.1169879913e+02    3.2101467133e+01
    1.1179889679e+02    3.2280506134e+01
    1.1189880371e+02    3.2459022522e+01
    1.1199870300e+02    3.2637016296e+01
    1.1209870148e+02    3.2814479828e+01
    1.1219860077e+02    3.2991409302e+01
    1.1229869843e+02    3.3167804718e+01
    1.1239869690e+02    3.3343654633e+01
    1.1249880219e+02    3.3518955231e+01
    1.1259880066e+02    3.3693702698e+01
    1.1269869995e+02    3.3867889404e+01
    1.1279879761e+02    3.4041515350e+01
    1.1289859772e+02    3.4214576721e+01
    1.1299880219e+02    3.4387065887e+01
    1.1309870148e+02    3.4558979034e+01
    1.1319879913e+02    3.4730316162e+01
    1.1329859924e+02    3.4901069641e+01
    1.1339880371e+02    3.5071239471e+01
    1.1349870300e+02    3.5240818024e+01
    1.1359870148e+02    3.5409805298e+01
    1.1369879913e+02    3.5578193665e+01
    1.1379879761e+02    3.5745979309e+01
    1.1389880371e+02    3.5913162231e+01
    1.1399870300e+02    3.6079734802e+01
    1.1409860229e+02    3.6245697021e+01
    1.1419879913e+02    3.6411041260e+01
    1.1429869843e+02    3.6575763702e+01
    1.1439859772e+02    3.6739860535e+01
    1.1449880219e+02    3.6903327942e+01
    1.1459870148e+02    3.7066162109e+01
    1.1469860077e+02    3.7228355408e+01
    1.1479869843e+02    3.7389904022e+01
    1.1489859772e+02    3.7550811768e+01
    1.1499870300e+02    3.7711063385e+01
    1.1509860229e+02    3.7870658875e+01
    1.1519869995e+02    3.8029594421e+01
    1.1529879761e+02    3.8187870026e+01
    1.1539869690e+02    3.8345478058e+01
    1.1549859619e+02    3.8502414703e+01
    1.1559870148e+02    3.8658672333e+01
    1.1569869995e+02    3.8814250946e+01
    1.1579869843e+02    3.8969146729e+01
    1.1589880371e+02    3.9123355865e+01
    1.1599859619e+02    3.9276878357e+01
    1.1609860229e+02    3.9429706573e+01
    1.1619869995e+02    3.9581840515e+01
    1.1629869843e+02    3.9733272552e+01
    1.1639869690e+02    3.9884006500e+01
    1.1649859619e+02    4.0034034729e+01
    1.1659870148e+02    4.0183353424e+01
    1.1669860077e+02    4.0331954956e+01
    1.1679869843e+02    4.0479846954e+01
    1.1689869690e+02    4.0627021790e+01
    1.1699859619e+02    4.0773471832e+01
    1.1709870148e+02    4.0919200897e+01
    1.1719860077e+02    4.1064201355e+01
    1.1729869843e+02    4.1208469391e+01
    1.1739869690e+02    4.1352005005e+01
    1.1749859619e+02    4.1494808197e+01
    1.1759860229e+02    4.1636875153e+01
    1.1769869995e+02    4.1778198242e+01
    1.1779869843e+02    4.1918773651e+01
    1.1789859772e+02    4.2058609009e+01
    1.1799859619e+02    4.2197692871e+01
    1.1809860229e+02    4.2336032867e+01
    1.1819860077e+02    4.2473617554e+01
    1.1829869843e+02    4.2610446930e+01
    1.1839859772e+02    4.2746517181e+01
    1.1849870300e+02    4.2881828308e+01
    1.1859860229e+02    4.3016372681e+01
    1.1869869995e+02    4.3150150299e+01
    1.1879859924e+02    4.3283153534e+01
    1.1889869690e+02    4.3415390015e+01
    1.1899870300e+02    4.3546852112e+01
    1.1909850311e+02    4.3677539825e+01
    1.1919860077e+02    4.3807449341e+01
    1.1929869843e+02    4.3936580658e+01
    1.1939849854e+02    4.4064933777e+01
    1.1949870300e+02    4.4192504883e+01
    1.1959870148e+02    4.4319290161e+01
    1.1969869995e+02    4.4445285797e+01
    1.1979869843e+02    4.4570491791e+01
    1.1989859772e+02    4.4694904327e+01
    1.1999859619e+02    4.4818527222e+01
    1.2009860229e+02    4.4941356659e+01
    1.2019869995e+02    4.5063385010e+01
    1.2029850006e+02    4.5184623718e+01
    1.2039859772e+02    4.5305061340e+01
    1.2049859619e+02    4.5424701691e+01
    1.2059860229e+02    4.5543544769e+01
    1.2069860077e+02    4.5661579132e+01
    1.2079859924e+02    4.5778812408e+01
    1.2089849854e+02    4.5895236969e+01
    1.2099859619e+02    4.6010852814e+01
    1.2109850311e+02    4.6125656128e+01
    1.2119869995e+02    4.6239650726e+01
    1.2129869843e+02    4.6352828979e+01
    1.2139849854e+02    4.6465190887e+01
    1.2149849701e+02    4.6576736450e+01
    1.2159850311e+02    4.6687465668e+01
    1.2169869995e+02    4.6797374725e+01
    1.2179850006e+02    4.6906463623e+01
    1.2189869690e+02    4.7014732361e+01
    1.2199859619e+02    4.7122180939e+01
    1.2209870148e+02    4.7228809357e+01
    1.2219860077e+02    4.7334621429e+01
    1.2229859924e+02    4.7439609528e+01
    1.2239849854e+02    4.7543777466e+01
    1.2249870300e+02    4.7647125244e+01
    1.2259850311e+02    4.7749656677e+01
    1.2269869995e+02    4.7851364136e+01
    1.2279850006e+02    4.7952251434e+01
    1.2289859772e+02    4.8052322388e+01
    1.2299859619e+02    4.8151569366e+01
    1.2309850311e+02    4.8250000000e+01
    1.2319860077e+02    4.8347606659e+01
    1.2329850006e+02    4.8444393158e+01
    1.2339869690e+02    4.8540351868e+01
    1.2349849701e+02    4.8635490417e+01
    1.2359870148e+02    4.8729804993e+01
    1.2369869995e+02    4.8823295593e+01
    1.2379859924e+02    4.8915966034e+01
    1.2389859772e+02    4.9007808685e+01
    1.2399849701e+02    4.9098827362e+01
    1.2409870148e+02    4.9189018250e+01
    1.2419860077e+02    4.9278381348e+01
    1.2429859924e+02    4.9366916656e+01
    1.2439849854e+02    4.9454627991e+01
    1.2449859619e+02    4.9541515350e+01
    1.2459850311e+02    4.9627578735e+01
    1.2469850159e+02    4.9712818146e+01
    1.2479850006e+02    4.9797233582e+01
    1.2489849854e+02    4.9880828857e+01
    1.2499859619e+02    4.9963603973e+01
    1.2509839630e+02    5.0045562744e+01
    1.2519850159e+02    5.0126697540e+01
    1.2529850006e+02    5.0207012177e+01
    1.2539849854e+02    5.0286510468e+01
    1.2549859619e+02    5.0365184784e+01
    1.2559860229e+02    5.0443038940e+01
    1.2569860077e+02    5.0520076752e+01
    1.2579859924e+02    5.0596290588e+01
    1.2589859772e+02    5.0671688080e+01
    1.2599859619e+02    5.0746261597e+01
    1.2609839630e+02    5.0820022583e+01
    1.2619860077e+02    5.0892963409e+01
    1.2629850006e+02    5.0965095520e+01
    1.2639859772e+02    5.1036411285e+01
    1.2649859619e+02    5.1106914520e+01
    1.2659860229e+02    5.1176601410e+01
    1.2669860077e+02    5.1245479584e+01
    1.2679859924e+02    5.1313545227e+01
    1.2689849854e+02    5.1380802155e+01
    1.2699839783e+02    5.1447250366e+01
    1.2709860229e+02    5.1512886047e+01
    1.2719860077e+02    5.1577713013e+01
    1.2729850006e+02    5.1641727448e+01
    1.2739849854e+02    5.1704929352e+01
    1.2749849701e+02    5.1767318726e+01
    1.2759860229e+02    5.1828895569e+01
    1.2769850159e+02    5.1889663696e+01
    1.2779840088e+02    5.1949623108e+01
    1.2789849854e+02    5.2008769989e+01
    1.2799849701e+02    5.2067111969e+01
    1.2809860229e+02    5.2124649048e+01
    1.2819850159e+02    5.2181381226e+01
    1.2829840088e+02    5.2237312317e+01
    1.2839849854e+02    5.2292442322e+01
    1.2849839783e+02    5.2346775055e+01
    1.2859849548e+02    5.2400306702e+01
    1.2869850159e+02    5.2453041077e+01
    1.2879840088e+02    5.2504974365e+01
    1.2889860535e+02    5.2556114197e+01
    1.2899859619e+02    5.2606460571e+01
    1.2909860229e+02    5.2656005859e+01
    1.2919859314e+02    5.2704757690e+01
    1.2929849243e+02    5.2752712250e+01
    1.2939869690e+02    5.2799877167e+01
    1.2949859619e+02    5.2846240997e+01
    1.2959860229e+02    5.2891811371e+01
    1.2969859314e+02    5.2936584473e+01
    1.2979870605e+02    5.2980564117e+01
    1.2989860535e+02    5.3023746490e+01
    1.2999859619e+02    5.3066131592e+01
    1.3009860229e+02    5.3107723236e+01
    1.3019850159e+02    5.3148525238e+01
    1.3029870605e+02    5.3188533783e+01
    1.3039860535e+02    5.3227748871e+01
    1.3049870300e+02    5.3266170502e+01
    1.3059869385e+02    5.3303798676e+01
    1.3069859314e+02    5.3340641022e+01
    1.3079859924e+02    5.3376689911e+01
    1.3089869690e+02    5.3411952972e+01
    1.3099870300e+02    5.3446422577e+01
    1.3109869385e+02    5.3480106354e+01
    1.3119869995e+02    5.3513000488e+01
    1.3129870605e+02    5.3545104980e+01
    1.3139869690e+02    5.3576423645e+01
    1.3149879456e+02    5.3606956482e+01
    1.3159860229e+02    5.3636703491e+01
    1.3169859314e+02    5.3665664673e+01
    1.3179870605e+02    5.3693836212e+01
    1.3189880371e+02    5.3721218109e+01
    1.3199879456e+02    5.3747814178e+01
    1.3209880066e+02    5.3773616791e+01
    1.3219869995e+02    5.3798629761e+01
    1.3229870605e+02    5.3822853088e+01
    1.3239869690e+02    5.3846282959e+01
    1.3249879456e+02    5.3868919373e+01
    1.3259880066e+02    5.3890762329e+01
    1.3269880676e+02    5.3911811829e+01
    1.3279870605e+02    5.3932075500e+01
    1.3289869690e+02    5.3951545715e+01
    1.3299890137e+02    5.3970222473e+01
    1.3309880066e+02    5.3988113403e+01
    1.3319869995e+02    5.4005210876e+01
    1.3329879761e+02    5.4021522522e+01
    1.3339880371e+02    5.4037040710e+01
    1.3349879456e+02    5.4051765442e+01
    1.3359880066e+02    5.4065700531e+01
    1.3369880676e+02    5.4078842163e+01
    1.3379899597e+02    5.4091186523e+01
    1.3389889526e+02    5.4102733612e+01
    1.3399890137e+02    5.4113487244e+01
    1.3409890747e+02    5.4123439789e+01
    1.3419900513e+02    5.4132595062e+01
    1.3429899597e+02    5.4140949249e+01
    1.3439900208e+02    5.4148502350e+01
    1.3449890137e+02    5.4155254364e+01
    1.3459890747e+02    5.4161205292e+01
    1.3469889832e+02    5.4166351318e+01
    1.3479899597e+02    5.4170688629e+01
    1.3489889526e+02    5.4174221039e+01
    1.3499890137e+02    5.4176948547e+01
    1.3509899902e+02    5.4178867340e+01
    1.3519889832e+02    5.4179981232e+01
    1.3529899597e+02    5.4180278778e+01
    1.3539900208e+02    5.4179767609e+01
    1.3549909973e+02    5.4178440094e+01
    1.3559890747e+02    5.4176303864e+01
    1.3569889832e+02    5.4173347473e+01
    1.3579910278e+02    5.4169570923e+01
    1.3589889526e+02    5.4164978027e+01
    1.3599899292e+02    5.4159561157e+01
    1.3609899902e+02    5.4153320312e+01
    1.3619900513e+02    5.4146259308e+01
    1.3629899597e+02    5.4138370514e+01
    1.3639900208e+02    5.4129653931e+01
    1.3649899292e+02    5.4120109558e+01
    1.3659899902e+02    5.4109737396e+01
    1.3669900513e+02    5.4098533630e+01
    1.3679910278e+02    5.4086498260e+01
    1.3689900208e+02    5.4073631287e+01
    1.3699909973e+02    5.4059925079e+01
    1.3709899902e+02    5.4045383453e+01
    1.3719900513e+02    5.4030002594e+01
    1.3729910278e+02    5.4013778687e+01
    1.3739900208e+02    5.3996711731e+01
    1.3749920654e+02    5.3978797913e+01
    1.3759910583e+02    5.3960033417e+01
    1.3769909668e+02    5.3940422058e+01
    1.3779899597e+02    5.3919956207e+01
    1.3789900208e+02    5.3898635864e+01
    1.3799899292e+02    5.3876457214e+01
    1.3809910583e+02    5.3853420258e+01
    1.3819909668e+02    5.3829524994e+01
    1.3829910278e+02    5.3804771423e+01
    1.3839920044e+02    5.3779155731e+01
    1.3849909973e+02    5.3752674103e+01
    1.3859919739e+02    5.3725330353e+01
    1.3869909668e+02    5.3697120667e+01
    1.3879899597e+02    5.3668045044e+01
    1.3889920044e+02    5.3638099670e+01
    1.3899929810e+02    5.3607280731e+01
    1.3909919739e+02    5.3575592041e+01
    1.3919909668e+02    5.3543025970e+01
    1.3929910278e+02    5.3509582520e+01
    1.3939920044e+02    5.3475257874e+01
    1.3949920654e+02    5.3440055847e+01
    1.3959919739e+02    5.3403968811e+01
    1.3969929504e+02    5.3366992950e+01
    1.3979930115e+02    5.3329132080e+01
    1.3989920044e+02    5.3290378571e+01
    1.3999909973e+02    5.3250732422e+01
    1.4009930420e+02    5.3210193634e+01
    1.4019929504e+02    5.3168754578e+01
    1.4029930115e+02    5.3126422882e+01
    1.4039930725e+02    5.3083187103e+01
    1.4049920654e+02    5.3039054871e+01
    1.4059919739e+02    5.2994010925e+01
    1.4069920349e+02    5.2948066711e+01
    1.4079919434e+02    5.2901210785e+01
    1.4089920044e+02    5.2853443146e+01
    1.4099920654e+02    5.2804763794e+01
    1.4109919739e+02    5.2755172729e+01
    1.4119929504e+02    5.2704666138e+01
    1.4129939270e+02    5.2653240204e+01
    1.4139920044e+02    5.2600894928e+01
    1.4149929810e+02    5.2547626495e+01
    1.4159939575e+02    5.2493434906e+01
    1.4169940186e+02    5.2438320160e+01
    1.4179939270e+02    5.2382282257e+01
    1.4189930725e+02    5.2325317383e+01
    1.4199929810e+02    5.2267421722e+01
    1.4209930420e+02    5.2208595276e+01
    1.4219929504e+02    5.2148834229e+01
    1.4229930115e+02    5.2088138580e+01
    1.4239939880e+02    5.2026504517e+01
    1.4249949646e+02    5.1963935852e+01
    1.4259939575e+02    5.1900428772e+01
    1.4269940186e+02    5.1835987091e+01
    1.4279949951e+02    5.1770610809e+01
    1.4289939880e+02    5.1704292297e+01
    1.4299940491e+02    5.1637035370e+01
    1.4309930420e+02    5.1568840027e+01
    1.4319949341e+02    5.1499706268e+01
    1.4329939270e+02    5.1429626465e+01
    1.4339939880e+02    5.1358604431e+01
    1.4349940491e+02    5.1286636353e+01
    1.4359939575e+02    5.1213726044e+01
    1.4369940186e+02    5.1139869690e+01
    1.4379939270e+02    5.1065063477e+01
    1.4389950562e+02    5.0989311218e+01
    1.4399949646e+02    5.0912616730e+01
    1.4409939575e+02    5.0834972382e+01
    1.4419949341e+02    5.0756378174e+01
    1.4429960632e+02    5.0676834106e+01
    1.4439950562e+02    5.0596340179e+01
    1.4449949646e+02    5.0514896393e+01
    1.4459959412e+02    5.0432502747e+01
    1.4469949341e+02    5.0349155426e+01
    1.4479949951e+02    5.0264858246e+01
    1.4489939880e+02    5.0179603577e+01
    1.4499949646e+02    5.0093395233e+01
    1.4509959412e+02    5.0006237030e+01
    1.4519960022e+02    4.9918125153e+01
    1.4529960632e+02    4.9829055786e+01
    1.4539950562e+02    4.9739032745e+01
    1.4549949646e+02    4.9648056030e+01
    1.4559950256e+02    4.9556125641e+01
    1.4569949341e+02    4.9463237762e+01
    1.4579960632e+02    4.9369400024e+01
    1.4589959717e+02    4.9274604797e+01
    1.4599960327e+02    4.9178859711e+01
    1.4609959412e+02    4.9082160950e+01
    1.4619960022e+02    4.8984516144e+01
    1.4629969788e+02    4.8885921478e+01
    1.4639950562e+02    4.8786376953e+01
    1.4649960327e+02    4.8685894012e+01
    1.4659970093e+02    4.8584465027e+01
    1.4669960022e+02    4.8482097626e+01
    1.4679949951e+02    4.8378787994e+01
    1.4689970398e+02    4.8274543762e+01
    1.4699960327e+02    4.8169364929e+01
    1.4709970093e+02    4.8063247681e+01
    1.4719960022e+02    4.7956195831e+01
    1.4729969788e+02    4.7848209381e+01
    1.4739970398e+02    4.7739292145e+01
    1.4749960327e+02    4.7629444122e+01
    1.4759959412e+02    4.7518669128e+01
    1.4769979858e+02    4.7406959534e+01
    1.4779969788e+02    4.7294330597e+01
    1.4789970398e+02    4.7180770874e+01
    1.4799969482e+02    4.7066287994e+01
    1.4809970093e+02    4.6950878143e+01
    1.4819979858e+02    4.6834548950e+01
    1.4829980469e+02    4.6717300415e+01
    1.4839979553e+02    4.6599136353e+01
    1.4849980164e+02    4.6480060577e+01
    1.4859970093e+02    4.6360073090e+01
    1.4869960022e+02    4.6239173889e+01
    1.4879980469e+02    4.6117366791e+01
    1.4889979553e+02    4.5994655609e+01
    1.4899969482e+02    4.5871044159e+01
    1.4909979248e+02    4.5746528625e+01
    1.4919979858e+02    4.5621120453e+01
    1.4929989624e+02    4.5494812012e+01
    1.4939970398e+02    4.5367618561e+01
    1.4949980164e+02    4.5239536285e+01
    1.4959989929e+02    4.5110569000e+01
    1.4969990540e+02    4.4980724335e+01
    1.4979969788e+02    4.4850002289e+01
    1.4989990234e+02    4.4718406677e+01
    1.4999969482e+02    4.4585945129e+01
    1.5009989929e+02    4.4452613831e+01
    1.5019990540e+02    4.4318428040e+01
    1.5029980469e+02    4.4183380127e+01
    1.5039979553e+02    4.4047477722e+01
    1.5049980164e+02    4.3910728455e+01
    1.5059989929e+02    4.3773128510e+01
    1.5069990540e+02    4.3634685516e+01
    1.5079980469e+02    4.3495403290e+01
    1.5089999390e+02    4.3355281830e+01
    1.5099989319e+02    4.3214328766e+01
    1.5110000610e+02    4.3072551727e+01
    1.5119990540e+02    4.2929954529e+01
    1.5129989624e+02    4.2786540985e+01
    1.5139990234e+02    4.2642311096e+01
    1.5149989319e+02    4.2497280121e+01
    1.5160000610e+02    4.2351440430e+01
    1.5169990540e+02    4.2204803467e+01
    1.5180000305e+02    4.2057376862e+01
    1.5189990234e+02    4.1909156799e+01
    1.5200000000e+02    4.1760150909e+01
    1.5210000610e+02    4.1610370636e+01
    1.5219999695e+02    4.1459808350e+01
    1.5230000305e+02    4.1308479309e+01
    1.5239990234e+02    4.1156379700e+01
    1.5249989319e+02    4.1003513336e+01
    1.5259989929e+02    4.0849887848e+01
    1.5269990540e+02    4.0695510864e+01
    1.5280000305e+02    4.0540382385e+01
    1.5290010071e+02    4.0384513855e+01
    1.5299989319e+02    4.0227909088e+01
    1.5310009766e+02    4.0070568085e+01
    1.5319990540e+02    3.9912502289e+01
    1.5330009460e+02    3.9753715515e+01
    1.5340010071e+02    3.9594215393e+01
    1.5350010681e+02    3.9434005737e+01
    1.5360000610e+02    3.9273097992e+01
    1.5370010376e+02    3.9111492157e+01
    1.5380009460e+02    3.8949195862e+01
    1.5390010071e+02    3.8786216736e+01
    1.5400010681e+02    3.8622558594e+01
    1.5410009766e+02    3.8458225250e+01
    1.5420010376e+02    3.8293224335e+01
    1.5430009460e+02    3.8127559662e+01
    1.5440020752e+02    3.7961235046e+01
    1.5450000000e+02    3.7794258118e+01
    1.5460020447e+02    3.7626632690e+01
    1.5470019531e+02    3.7458362579e+01
    1.5480009460e+02    3.7289459229e+01
    1.5490020752e+02    3.7119926453e+01
    1.5500010681e+02    3.6949771881e+01
    1.5510020447e+02    3.6778999329e+01
    1.5520019531e+02    3.6607616425e+01
    1.5530009460e+02    3.6435626984e+01
    1.5540029907e+02    3.6263038635e+01
    1.5550010681e+02    3.6089855194e+01
    1.5560020447e+02    3.5916088104e+01
    1.5570030212e+02    3.5741737366e+01
    1.5580009460e+02    3.5566810608e+01
    1.5590010071e+02    3.5391319275e+01
    1.5600019836e+02    3.5215267181e+01
    1.5610029602e+02    3.5038661957e+01
    1.5620019531e+02    3.4861507416e+01
    1.5630020142e+02    3.4683807373e+01
    1.5640029907e+02    3.4505573273e+01
    1.5650010681e+02    3.4326805115e+01
    1.5660020447e+02    3.4147510529e+01
    1.5670019531e+02    3.3967697144e+01
    1.5680020142e+02    3.3787368774e+01
    1.5690020752e+02    3.3606536865e+01
    1.5700019836e+02    3.3425205231e+01
    1.5710020447e+02    3.3243385315e+01
    1.5720039368e+02    3.3061077118e+01
    1.5730029297e+02    3.2878284454e+01
    1.5740029907e+02    3.2695022583e+01
    1.5750039673e+02    3.2511287689e+01
    1.5760020447e+02    3.2327095032e+01
    1.5770039368e+02    3.2142444611e+01
    1.5780029297e+02    3.1957347870e+01
    1.5790020752e+02    3.1771808624e+01
    1.5800019836e+02    3.1585830688e+01
    1.5810040283e+02    3.1399421692e+01
    1.5820030212e+02    3.1212589264e+01
    1.5830039978e+02    3.1025341034e+01
    1.5840040588e+02    3.0837680817e+01
    1.5850030518e+02    3.0649620056e+01
    1.5860029602e+02    3.0461156845e+01
    1.5870039368e+02    3.0272302628e+01
    1.5880039978e+02    3.0083061218e+01
    1.5890029907e+02    2.9893442154e+01
    1.5900050354e+02    2.9703445435e+01
    1.5910029602e+02    2.9513080597e+01
    1.5920039368e+02    2.9322353363e+01
    1.5930050659e+02    2.9131269455e+01
    1.5940040588e+02    2.8939838409e+01
    1.5950050354e+02    2.8748065948e+01
    1.5960049438e+02    2.8555959702e+01
    1.5970039368e+02    2.8363521576e+01
    1.5980029297e+02    2.8170761108e+01
    1.5990049744e+02    2.7977682114e+01
    1.6000050354e+02    2.7784294128e+01
    1.6010049438e+02    2.7590600967e+01
    1.6020050049e+02    2.7396610260e+01
    1.6030050659e+02    2.7202327728e+01
    1.6040049744e+02    2.7007759094e+01
    1.6050039673e+02    2.6812908173e+01
    1.6060040283e+02    2.6617782593e+01
    1.6070039368e+02    2.6422386169e+01
    1.6080039978e+02    2.6226724625e+01
    1.6090060425e+02    2.6030805588e+01
    1.6100050354e+02    2.5834634781e+01
    1.6110049438e+02    2.5638219833e+01
    1.6120050049e+02    2.5441562653e+01
    1.6130050659e+02    2.5244668961e+01
    1.6140049744e+02    2.5047548294e+01
    1.6150059509e+02    2.4850200653e+01
    1.6160049438e+02    2.4652631760e+01
    1.6170050049e+02    2.4454851151e+01
    1.6180050659e+02    2.4256860733e+01
    1.6190060425e+02    2.4058668137e+01
    1.6200050354e+02    2.3860279083e+01
    1.6210060120e+02    2.3661697388e+01
    1.6220050049e+02    2.3462930679e+01
    1.6230059814e+02    2.3263982773e+01
    1.6240069580e+02    2.3064859390e+01
    1.6250050354e+02    2.2865564346e+01
    1.6260060120e+02    2.2666107178e+01
    1.6270050049e+02    2.2466485977e+01
    1.6280059814e+02    2.2266714096e+01
    1.6290060425e+02    2.2066791534e+01
    1.6300070190e+02    2.1866725922e+01
    1.6310049438e+02    2.1666522980e+01
    1.6320069885e+02    2.1466182709e+01
    1.6330059814e+02    2.1265714645e+01
    1.6340069580e+02    2.1065120697e+01
    1.6350059509e+02    2.0864406586e+01
    1.6360069275e+02    2.0663576126e+01
    1.6370060730e+02    2.0462633133e+01
    1.6380070496e+02    2.0261585236e+01
    1.6390069580e+02    2.0060432434e+01
    1.6400070190e+02    1.9859182358e+01
    1.6410069275e+02    1.9657840729e+01
    1.6420069885e+02    1.9456415176e+01
    1.6430070496e+02    1.9254909515e+01
    1.6440069580e+02    1.9053331375e+01
    1.6450079346e+02    1.8851688385e+01
    1.6460069275e+02    1.8649990082e+01
    1.6470069885e+02    1.8448240280e+01
    1.6480070496e+02    1.8246446609e+01
    1.6490069580e+02    1.8044612885e+01
    1.6500079346e+02    1.7842744827e+01
    1.6510069275e+02    1.7640848160e+01
    1.6520069885e+02    1.7438922882e+01
    1.6530070496e+02    1.7236974716e+01
    1.6540089417e+02    1.7035005569e+01
    1.6550070190e+02    1.6833011627e+01
    1.6560079956e+02    1.6630998611e+01
    1.6570080566e+02    1.6428966522e+01
    1.6580079651e+02    1.6226911545e+01
    1.6590069580e+02    1.6024837494e+01
    1.6600079346e+02    1.5822742462e+01
    1.6610079956e+02    1.5620628357e+01
    1.6620080566e+02    1.5418498993e+01
    1.6630090332e+02    1.5216356277e+01
    1.6640069580e+02    1.5014203072e+01
    1.6650079346e+02    1.4812045097e+01
    1.6660090637e+02    1.4609886169e+01
    1.6670080566e+02    1.4407732010e+01
    1.6680079651e+02    1.4205585480e+01
    1.6690100098e+02    1.4003453255e+01
    1.6700090027e+02    1.3801341057e+01
    1.6710079956e+02    1.3599251747e+01
    1.6720100403e+02    1.3397190094e+01
    1.6730079651e+02    1.3195159912e+01
    1.6740080261e+02    1.2993165016e+01
    1.6750090027e+02    1.2791208267e+01
    1.6760099792e+02    1.2589293480e+01
    1.6770089722e+02    1.2387424469e+01
    1.6780090332e+02    1.2185605049e+01
    1.6790100098e+02    1.1983839035e+01
    1.6800090027e+02    1.1782129288e+01
    1.6810079956e+02    1.1580479622e+01
    1.6820089722e+02    1.1378891945e+01
    1.6830079651e+02    1.1177370071e+01
    1.6840089417e+02    1.0975916862e+01
    1.6850109863e+02    1.0774537086e+01
    1.6860090637e+02    1.0573232651e+01
    1.6870089722e+02    1.0372007370e+01
    1.6880090332e+02    1.0170863152e+01
    1.6890109253e+02    9.9698028564e+00
    1.6900109863e+02    9.7688293457e+00
    1.6910110474e+02    9.5679454803e+00
    1.6920100403e+02    9.3671541214e+00
    1.6930099487e+02    9.1664562225e+00
    1.6940109253e+02    8.9658546448e+00
    1.6950100708e+02    8.7653503418e+00
    1.6960110474e+02    8.5649471283e+00
    1.6970109558e+02    8.3646450043e+00
    1.6980110168e+02    8.1644458771e+00
    1.6990109253e+02    7.9643526077e+00
    1.7000100708e+02    7.7643656731e+00
    1.7010110474e+02    7.5644869804e+00
    1.7020100403e+02    7.3647189140e+00
    1.7030110168e+02    7.1650624275e+00
    1.7040100098e+02    6.9655189514e+00
    1.7050109863e+02    6.7660927773e+00
    1.7060119629e+02    6.5667848587e+00
    1.7070109558e+02    6.3675980568e+00
    1.7080110168e+02    6.1685338020e+00
    1.7090109253e+02    5.9695930481e+00
    1.7100100708e+02    5.7707781792e+00
    1.7110110474e+02    5.5720901489e+00
    1.7120100403e+02    5.3735308647e+00
    1.7130119324e+02    5.1751017570e+00
    1.7140100098e+02    4.9768056870e+00
    1.7150120544e+02    4.7786436081e+00
    1.7160119629e+02    4.5806183815e+00
    1.7170120239e+02    4.3827314377e+00
    1.7180119324e+02    4.1849851608e+00
    1.7190109253e+02    3.9873800278e+00
    1.7200109863e+02    3.7899181843e+00
    1.7210119629e+02    3.5926003456e+00
    1.7220109558e+02    3.3954277039e+00
    1.7230110168e+02    3.1984012127e+00
    1.7240119934e+02    3.0015223026e+00
    1.7250120544e+02    2.8047919273e+00
    1.7260119629e+02    2.6082108021e+00
    1.7270120239e+02    2.4117796421e+00
    1.7280110168e+02    2.2154984474e+00
    1.7290119934e+02    2.0193674564e+00
    1.7300129700e+02    1.8233865499e+00
    1.7310119629e+02    1.6275554895e+00
    1.7320120239e+02    1.4318736792e+00
    1.7330119324e+02    1.2363406420e+00
    1.7340119934e+02    1.0409557819e+00
    1.7350120544e+02    8.4571868181e-01
    1.7360130310e+02    6.5062916279e-01
    1.7370120239e+02    4.5568707585e-01
    1.7380140686e+02    2.6089257002e-01
    1.7390130615e+02    6.6246129572e-02
    1.7400129700e+02   -1.2825141847e-01
    1.7410139465e+02   -3.2259857655e-01
    1.7420129395e+02   -5.1679301262e-01
    1.7430119324e+02   -7.1083140373e-01
    1.7440119934e+02   -9.0470910072e-01
    1.7450129700e+02   -1.0984197855e+00
    1.7460139465e+02   -1.2919554710e+00
    1.7470140076e+02   -1.4853065014e+00
    1.7480140686e+02   -1.6784615517e+00
    1.7490139771e+02   -1.8714083433e+00
    1.7500129700e+02   -2.0641331673e+00
    1.7510139465e+02   -2.2566213608e+00
    1.7520150757e+02   -2.4488577843e+00
    1.7530149841e+02   -2.6408267021e+00
    1.7540139771e+02   -2.8325145245e+00
    1.7550140381e+02   -3.0239088535e+00
    1.7560139465e+02   -3.2150003910e+00
    1.7570140076e+02   -3.4057848454e+00
    1.7580149841e+02   -3.5962636471e+00
    1.7590150452e+02   -3.7864458561e+00
    1.7600140381e+02   -3.9763505459e+00
    1.7610150146e+02   -4.1660089493e+00
    1.7620140076e+02   -4.3554644585e+00
    1.7630149841e+02   -4.5447778702e+00
    1.7640150452e+02   -4.7340245247e+00
    1.7650160217e+02   -4.9232997894e+00
    1.7660150146e+02   -5.1127161980e+00
    1.7670150757e+02   -5.3024053574e+00
    1.7680149841e+02   -5.4925146103e+00
    1.7690150452e+02   -5.6832075119e+00
    1.7700149536e+02   -5.8746552467e+00
    1.7710139465e+02   -6.0670337677e+00
    1.7720150757e+02   -6.2605147362e+00
    1.7730149841e+02   -6.4552540779e+00
    1.7740150452e+02   -6.6513819695e+00
    1.7750160217e+02   -6.8489866257e+00
    1.7760150146e+02   -7.0480966568e+00
    1.7770159912e+02   -7.2486629486e+00
    1.7780149841e+02   -7.4505376816e+00
    1.7790150452e+02   -7.6534519196e+00
    1.7800160217e+02   -7.8569922447e+00
    1.7810150146e+02   -8.0605812073e+00
    1.7820150757e+02   -8.2634553909e+00
    1.7830149841e+02   -8.4646501541e+00
    1.7840150452e+02   -8.6629905701e+00
    1.7850149536e+02   -8.8570842743e+00
    1.7860150146e+02   -9.0453386307e+00
    1.7870170593e+02   -9.2259731293e+00
    1.7880149841e+02   -9.3970603943e+00
    1.7890170288e+02   -9.5565862656e+00
    1.7900169373e+02   -9.7025232315e+00
    1.7910159302e+02   -9.8329353333e+00
    1.7920170593e+02   -9.9461078644e+00
    1.7930149841e+02   -1.0040698051e+01
    1.7940170288e+02   -1.0115921974e+01
    1.7950169373e+02   -1.0171761513e+01
    1.7960169983e+02   -1.0209196091e+01
    1.7970170593e+02   -1.0230453491e+01
    1.7980169678e+02   -1.0239264488e+01
    1.7990159607e+02   -1.0241127968e+01
endcurve
