Curveplot
LS-DYNA keyword deck by LS-PrePost
Abscissa
Ordinate
XY data
NBDLHeadxCoo-1 #pts=2000
* Minval=     1.8239990234e+01 at time=       199.9027862549
* Maxval=     1.4122399902e+02 at time=       133.0988464355
    0.0000000000e+00    3.8422401428e+01
    9.9829651415e-02    3.8422401428e+01
    1.9989773631e-01    3.8422401428e+01
    2.9996579885e-01    3.8422401428e+01
    3.9986932278e-01    3.8422401428e+01
    4.9995762110e-01    3.8422401428e+01
    5.9996491671e-01    3.8422401428e+01
    6.9980049133e-01    3.8422401428e+01
    7.9991865158e-01    3.8422401428e+01
    8.9989852905e-01    3.8422401428e+01
    9.9991065264e-01    3.8422401428e+01
    1.0999978781e+00    3.8422500610e+01
    1.1998884678e+00    3.8422500610e+01
    1.2998635769e+00    3.8422500610e+01
    1.3998732567e+00    3.8422500610e+01
    1.4999809265e+00    3.8422599792e+01
    1.5998630524e+00    3.8422599792e+01
    1.6998765469e+00    3.8422599792e+01
    1.7999650240e+00    3.8422698975e+01
    1.8999402523e+00    3.8422698975e+01
    1.9999154806e+00    3.8422798157e+01
    2.0999050140e+00    3.8422798157e+01
    2.1998383999e+00    3.8422798157e+01
    2.2998137474e+00    3.8422897339e+01
    2.3997890949e+00    3.8423000336e+01
    2.4999763966e+00    3.8423000336e+01
    2.5999517441e+00    3.8423099518e+01
    2.6999270916e+00    3.8423099518e+01
    2.7999022007e+00    3.8423202515e+01
    2.8999035358e+00    3.8423301697e+01
    2.9998786449e+00    3.8423400879e+01
    3.0998537540e+00    3.8423400879e+01
    3.1999840736e+00    3.8423500061e+01
    3.2999591827e+00    3.8423599243e+01
    3.3999271393e+00    3.8423698425e+01
    3.4999475479e+00    3.8423797607e+01
    3.5999226570e+00    3.8423900604e+01
    3.6998977661e+00    3.8423999786e+01
    3.7998728752e+00    3.8424098969e+01
    3.8998479843e+00    3.8424201965e+01
    3.9998228550e+00    3.8424301147e+01
    4.0997977257e+00    3.8424400330e+01
    4.1999850273e+00    3.8424499512e+01
    4.2999601364e+00    3.8424697876e+01
    4.3999352455e+00    3.8424797058e+01
    4.4999098778e+00    3.8424900055e+01
    4.5998849869e+00    3.8424999237e+01
    4.6998600960e+00    3.8425201416e+01
    4.7998347282e+00    3.8425300598e+01
    4.8998098373e+00    3.8425399780e+01
    4.9999966621e+00    3.8425598145e+01
    5.0999712944e+00    3.8425697327e+01
    5.1999464035e+00    3.8425899506e+01
    5.2999210358e+00    3.8426002502e+01
    5.3998961449e+00    3.8426200867e+01
    5.4998707771e+00    3.8426399231e+01
    5.5998454094e+00    3.8426498413e+01
    5.6997985840e+00    3.8426700592e+01
    5.7999858856e+00    3.8426898956e+01
    5.8999605179e+00    3.8427001953e+01
    5.9999356270e+00    3.8427200317e+01
    6.0999102592e+00    3.8427398682e+01
    6.1998848915e+00    3.8427597046e+01
    6.2998595238e+00    3.8427799225e+01
    6.3998341560e+00    3.8428001404e+01
    6.4998087883e+00    3.8428199768e+01
    6.5999956131e+00    3.8428398132e+01
    6.6999702454e+00    3.8428600311e+01
    6.7999448776e+00    3.8428802490e+01
    6.8999190331e+00    3.8429000854e+01
    6.9998936653e+00    3.8429199219e+01
    7.0998682976e+00    3.8429500580e+01
    7.1998429298e+00    3.8429698944e+01
    7.2998170853e+00    3.8429901123e+01
    7.3997917175e+00    3.8430198669e+01
    7.4999785423e+00    3.8430397034e+01
    7.5999526978e+00    3.8430599213e+01
    7.6999273300e+00    3.8430900574e+01
    7.7999014854e+00    3.8431098938e+01
    7.8998756409e+00    3.8431400299e+01
    7.9998502731e+00    3.8431701660e+01
    8.0998239517e+00    3.8431900024e+01
    8.1997985840e+00    3.8432197571e+01
    8.2999849319e+00    3.8432498932e+01
    8.3999595642e+00    3.8432701111e+01
    8.4999332428e+00    3.8432998657e+01
    8.5999078751e+00    3.8433300018e+01
    8.6998815536e+00    3.8433601379e+01
    8.7998561859e+00    3.8433898926e+01
    8.8998298645e+00    3.8434200287e+01
    8.9998035431e+00    3.8434501648e+01
    9.0999898911e+00    3.8434799194e+01
    9.1999645233e+00    3.8435100555e+01
    9.2999382019e+00    3.8435401917e+01
    9.3999118805e+00    3.8435699463e+01
    9.4998865128e+00    3.8436000824e+01
    9.5998601913e+00    3.8436401367e+01
    9.6998338699e+00    3.8436698914e+01
    9.7998075485e+00    3.8437000275e+01
    9.8999938965e+00    3.8437400818e+01
    9.9999675751e+00    3.8437698364e+01
    1.0099941254e+01    3.8437999725e+01
    1.0199914932e+01    3.8438400269e+01
    1.0299888611e+01    3.8438800812e+01
    1.0399862289e+01    3.8439102173e+01
    1.0499835968e+01    3.8439498901e+01
    1.0599795341e+01    3.8439800262e+01
    1.0699897766e+01    3.8440200806e+01
    1.0799871445e+01    3.8440597534e+01
    1.0899845123e+01    3.8441001892e+01
    1.0999818802e+01    3.8441398621e+01
    1.1100004196e+01    3.8441799164e+01
    1.1199977875e+01    3.8442199707e+01
    1.1299950600e+01    3.8442600250e+01
    1.1399925232e+01    3.8443000793e+01
    1.1499897957e+01    3.8443397522e+01
    1.1599975586e+01    3.8443801880e+01
    1.1699950218e+01    3.8444198608e+01
    1.1799922943e+01    3.8444599152e+01
    1.1899895668e+01    3.8445098877e+01
    1.1999869347e+01    3.8445499420e+01
    1.2099843025e+01    3.8445800781e+01
    1.2199815750e+01    3.8446300507e+01
    1.2300001144e+01    3.8446701050e+01
    1.2399973869e+01    3.8447200775e+01
    1.2499946594e+01    3.8447601318e+01
    1.2599920273e+01    3.8448101044e+01
    1.2699892998e+01    3.8448600769e+01
    1.2799865723e+01    3.8449001312e+01
    1.2899839401e+01    3.8449501038e+01
    1.2999812126e+01    3.8450000763e+01
    1.3099996567e+01    3.8450500488e+01
    1.3199970245e+01    3.8451000214e+01
    1.3299942970e+01    3.8451499939e+01
    1.3399915695e+01    3.8451999664e+01
    1.3499888420e+01    3.8452499390e+01
    1.3599861145e+01    3.8452899933e+01
    1.3699832916e+01    3.8453399658e+01
    1.3799805641e+01    3.8453899384e+01
    1.3899991035e+01    3.8454399109e+01
    1.3999962807e+01    3.8455001831e+01
    1.4099935532e+01    3.8455497742e+01
    1.4199908257e+01    3.8456100464e+01
    1.4299880028e+01    3.8456600189e+01
    1.4399852753e+01    3.8457099915e+01
    1.4499824524e+01    3.8457698822e+01
    1.4600008965e+01    3.8458198547e+01
    1.4699981689e+01    3.8458702087e+01
    1.4799954414e+01    3.8459300995e+01
    1.4899926186e+01    3.8459899902e+01
    1.4999897957e+01    3.8460502625e+01
    1.5099869728e+01    3.8460998535e+01
    1.5199842453e+01    3.8461601257e+01
    1.5299814224e+01    3.8462200165e+01
    1.5399997711e+01    3.8462699890e+01
    1.5499968529e+01    3.8463298798e+01
    1.5599941254e+01    3.8464000702e+01
    1.5699913025e+01    3.8464599609e+01
    1.5799883842e+01    3.8465198517e+01
    1.5899855614e+01    3.8465801239e+01
    1.5999828339e+01    3.8466499329e+01
    1.6100011826e+01    3.8467002869e+01
    1.6199983597e+01    3.8467597961e+01
    1.6299953461e+01    3.8468299866e+01
    1.6399925232e+01    3.8468902588e+01
    1.6499897003e+01    3.8469600677e+01
    1.6599868774e+01    3.8470298767e+01
    1.6699838638e+01    3.8470798492e+01
    1.6800022125e+01    3.8471500397e+01
    1.6899993896e+01    3.8472198486e+01
    1.6999963760e+01    3.8472900391e+01
    1.7099935532e+01    3.8473598480e+01
    1.7199905396e+01    3.8474197388e+01
    1.7299877167e+01    3.8474899292e+01
    1.7399848938e+01    3.8475601196e+01
    1.7499818802e+01    3.8476299286e+01
    1.7600000381e+01    3.8476997375e+01
    1.7699972153e+01    3.8477699280e+01
    1.7799942017e+01    3.8478401184e+01
    1.7899913788e+01    3.8479099274e+01
    1.7999883652e+01    3.8479900360e+01
    1.8099853516e+01    3.8480499268e+01
    1.8199823380e+01    3.8481300354e+01
    1.8300006866e+01    3.8482002258e+01
    1.8399976730e+01    3.8482799530e+01
    1.8499946594e+01    3.8483497620e+01
    1.8599916458e+01    3.8484199524e+01
    1.8699886322e+01    3.8485000610e+01
    1.8799860001e+01    3.8485801697e+01
    1.8899982452e+01    3.8486499786e+01
    1.8999921799e+01    3.8487300873e+01
    1.9099847794e+01    3.8488101959e+01
    1.9199861526e+01    3.8488800049e+01
    1.9299932480e+01    3.8489601135e+01
    1.9399908066e+01    3.8490501404e+01
    1.9499937057e+01    3.8491302490e+01
    1.9599939346e+01    3.8492000580e+01
    1.9699874878e+01    3.8492900848e+01
    1.9799932480e+01    3.8493698120e+01
    1.9900016785e+01    3.8494499207e+01
    1.9999877930e+01    3.8495300293e+01
    2.0099882126e+01    3.8496101379e+01
    2.0199951172e+01    3.8497001648e+01
    2.0299837112e+01    3.8497798920e+01
    2.0399921417e+01    3.8498600006e+01
    2.0499912262e+01    3.8499500275e+01
    2.0599981308e+01    3.8500301361e+01
    2.0699920654e+01    3.8501197815e+01
    2.0799818039e+01    3.8501998901e+01
    2.0899955750e+01    3.8502899170e+01
    2.0999841690e+01    3.8503799438e+01
    2.1099861145e+01    3.8504699707e+01
    2.1199935913e+01    3.8505500793e+01
    2.1299966812e+01    3.8506301880e+01
    2.1399850845e+01    3.8507301331e+01
    2.1499963760e+01    3.8508098602e+01
    2.1600006104e+01    3.8509098053e+01
    2.1699911118e+01    3.8510002136e+01
    2.1799932480e+01    3.8510803223e+01
    2.1899858475e+01    3.8511699677e+01
    2.2000003815e+01    3.8512699127e+01
    2.2100008011e+01    3.8513599396e+01
    2.2199977875e+01    3.8514499664e+01
    2.2299985886e+01    3.8515399933e+01
    2.2399873734e+01    3.8516300201e+01
    2.2499895096e+01    3.8517200470e+01
    2.2599882126e+01    3.8518100739e+01
    2.2699956894e+01    3.8519001007e+01
    2.2799926758e+01    3.8520000458e+01
    2.2899843216e+01    3.8520900726e+01
    2.2999893188e+01    3.8521797180e+01
    2.3100025177e+01    3.8522800446e+01
    2.3199930191e+01    3.8523799896e+01
    2.3299982071e+01    3.8524700165e+01
    2.3399963379e+01    3.8525699615e+01
    2.3500003815e+01    3.8526702881e+01
    2.3599962234e+01    3.8527500153e+01
    2.3699974060e+01    3.8528499603e+01
    2.3799974442e+01    3.8529499054e+01
    2.3899995804e+01    3.8530399323e+01
    2.3999912262e+01    3.8531402588e+01
    2.4099966049e+01    3.8532402039e+01
    2.4200002670e+01    3.8533401489e+01
    2.4299907684e+01    3.8534301758e+01
    2.4400051117e+01    3.8535301208e+01
    2.4500036240e+01    3.8536300659e+01
    2.4599899292e+01    3.8537200928e+01
    2.4699941635e+01    3.8538299561e+01
    2.4799968719e+01    3.8539299011e+01
    2.4899950027e+01    3.8540199280e+01
    2.5000015259e+01    3.8541198730e+01
    2.5100030899e+01    3.8542198181e+01
    2.5200025558e+01    3.8543300629e+01
    2.5299892426e+01    3.8544300079e+01
    2.5400012970e+01    3.8545299530e+01
    2.5500013351e+01    3.8546199799e+01
    2.5600028992e+01    3.8547199249e+01
    2.5699935913e+01    3.8548198700e+01
    2.5799974442e+01    3.8549301147e+01
    2.5899896622e+01    3.8550300598e+01
    2.5999944687e+01    3.8551200867e+01
    2.6100053787e+01    3.8552299500e+01
    2.6199918747e+01    3.8553199768e+01
    2.6299961090e+01    3.8554298401e+01
    2.6399984360e+01    3.8555301666e+01
    2.6500011444e+01    3.8556400299e+01
    2.6599903107e+01    3.8557300568e+01
    2.6699920654e+01    3.8558300018e+01
    2.6799888611e+01    3.8559402466e+01
    2.6899900436e+01    3.8560401917e+01
    2.6999967575e+01    3.8561500549e+01
    2.7099941254e+01    3.8562500000e+01
    2.7200010300e+01    3.8563499451e+01
    2.7299930573e+01    3.8564498901e+01
    2.7399984360e+01    3.8565601349e+01
    2.7500015259e+01    3.8566600800e+01
    2.7599964142e+01    3.8567699432e+01
    2.7700046539e+01    3.8568702698e+01
    2.7799875259e+01    3.8569698334e+01
    2.7900022507e+01    3.8570800781e+01
    2.7999933243e+01    3.8571800232e+01
    2.8100065231e+01    3.8572898865e+01
    2.8199972153e+01    3.8573898315e+01
    2.8299861908e+01    3.8574897766e+01
    2.8400003433e+01    3.8576000214e+01
    2.8499872208e+01    3.8576999664e+01
    2.8600063324e+01    3.8578102112e+01
    2.8699998856e+01    3.8579101562e+01
    2.8799924850e+01    3.8580101013e+01
    2.8900035858e+01    3.8581199646e+01
    2.8999906540e+01    3.8582199097e+01
    2.9100017548e+01    3.8583297729e+01
    2.9200069427e+01    3.8584400177e+01
    2.9300062180e+01    3.8585399628e+01
    2.9399963379e+01    3.8586502075e+01
    2.9500032425e+01    3.8587600708e+01
    2.9599891663e+01    3.8588600159e+01
    2.9699974060e+01    3.8589698792e+01
    2.9799875259e+01    3.8590698242e+01
    2.9899946213e+01    3.8591701508e+01
    2.9999992371e+01    3.8592800140e+01
    3.0099983215e+01    3.8593898773e+01
    3.0199962616e+01    3.8594902039e+01
    3.0299926758e+01    3.8596000671e+01
    3.0399997711e+01    3.8597099304e+01
    3.0499897003e+01    3.8598197937e+01
    3.0599901199e+01    3.8599201202e+01
    3.0700002670e+01    3.8600200653e+01
    3.0799953461e+01    3.8601299286e+01
    3.0899894714e+01    3.8602500916e+01
    3.1000043869e+01    3.8603500366e+01
    3.1099905014e+01    3.8604598999e+01
    3.1200031281e+01    3.8605701447e+01
    3.1299888611e+01    3.8606700897e+01
    3.1399988174e+01    3.8607799530e+01
    3.1499889374e+01    3.8609001160e+01
    3.1600053787e+01    3.8610099792e+01
    3.1699911118e+01    3.8611198425e+01
    3.1799966812e+01    3.8612300873e+01
    3.1900043488e+01    3.8613399506e+01
    3.1999923706e+01    3.8614402771e+01
    3.2100063324e+01    3.8615600586e+01
    3.2200073242e+01    3.8616699219e+01
    3.2299957275e+01    3.8617797852e+01
    3.2399871826e+01    3.8618999481e+01
    3.2499862671e+01    3.8620101929e+01
    3.2600044250e+01    3.8621299744e+01
    3.2699985504e+01    3.8622398376e+01
    3.2799953461e+01    3.8623500824e+01
    3.2900001526e+01    3.8624698639e+01
    3.2999904633e+01    3.8625900269e+01
    3.3099910736e+01    3.8627098083e+01
    3.3199932098e+01    3.8628200531e+01
    3.3300006866e+01    3.8629398346e+01
    3.3399974823e+01    3.8630599976e+01
    3.3499946594e+01    3.8631797791e+01
    3.3600032806e+01    3.8632999420e+01
    3.3699996948e+01    3.8634201050e+01
    3.3800045013e+01    3.8635398865e+01
    3.3899894714e+01    3.8636699677e+01
    3.3999931335e+01    3.8637901306e+01
    3.4099918365e+01    3.8639099121e+01
    3.4199966431e+01    3.8640399933e+01
    3.4300029755e+01    3.8641700745e+01
    3.4399837494e+01    3.8642997742e+01
    3.4499874115e+01    3.8644199371e+01
    3.4599956512e+01    3.8645401001e+01
    3.4699874878e+01    3.8646800995e+01
    3.4799869537e+01    3.8648101807e+01
    3.4899917603e+01    3.8649398804e+01
    3.4999900818e+01    3.8650699615e+01
    3.5099830627e+01    3.8652099609e+01
    3.5199874878e+01    3.8653400421e+01
    3.5299835205e+01    3.8654701233e+01
    3.5400005341e+01    3.8655998230e+01
    3.5499958038e+01    3.8657501221e+01
    3.5600021362e+01    3.8658901215e+01
    3.5699913025e+01    3.8660198212e+01
    3.5799842834e+01    3.8661598206e+01
    3.5899971008e+01    3.8663002014e+01
    3.6000003815e+01    3.8664398193e+01
    3.6099884033e+01    3.8665901184e+01
    3.6200000763e+01    3.8667301178e+01
    3.6299804688e+01    3.8668800354e+01
    3.6399990082e+01    3.8670200348e+01
    3.6499923706e+01    3.8671699524e+01
    3.6599800110e+01    3.8673202515e+01
    3.6699954987e+01    3.8674697876e+01
    3.6799804688e+01    3.8676200867e+01
    3.6899791718e+01    3.8677700043e+01
    3.6999794006e+01    3.8679199219e+01
    3.7099948883e+01    3.8680801392e+01
    3.7199974060e+01    3.8682399750e+01
    3.7299896240e+01    3.8683998108e+01
    3.7399974823e+01    3.8685501099e+01
    3.7499980927e+01    3.8687202454e+01
    3.7599910736e+01    3.8688800812e+01
    3.7699966431e+01    3.8690399170e+01
    3.7799819946e+01    3.8692100525e+01
    3.7899925232e+01    3.8693798065e+01
    3.7999942780e+01    3.8695400238e+01
    3.8099895477e+01    3.8697097778e+01
    3.8199897766e+01    3.8698898315e+01
    3.8299911499e+01    3.8700599670e+01
    3.8399963379e+01    3.8702400208e+01
    3.8499767303e+01    3.8704101562e+01
    3.8599807739e+01    3.8705902100e+01
    3.8699954987e+01    3.8707599640e+01
    3.8799797058e+01    3.8709499359e+01
    3.8899940491e+01    3.8711299896e+01
    3.8999851227e+01    3.8713199615e+01
    3.9099842072e+01    3.8715099335e+01
    3.9199882507e+01    3.8716999054e+01
    3.9299961090e+01    3.8718902588e+01
    3.9399768829e+01    3.8720802307e+01
    3.9499763489e+01    3.8722801208e+01
    3.9599910736e+01    3.8724700928e+01
    3.9699913025e+01    3.8726699829e+01
    3.9799816132e+01    3.8728599548e+01
    3.9899791718e+01    3.8730697632e+01
    3.9999835968e+01    3.8732700348e+01
    4.0099945068e+01    3.8734901428e+01
    4.0199871063e+01    3.8736900330e+01
    4.0299938202e+01    3.8738998413e+01
    4.0399822235e+01    3.8741100311e+01
    4.0499881744e+01    3.8743301392e+01
    4.0599781036e+01    3.8745498657e+01
    4.0699756622e+01    3.8747600555e+01
    4.0799781799e+01    3.8749801636e+01
    4.0899829865e+01    3.8751998901e+01
    4.0999740601e+01    3.8754299164e+01
    4.1099838257e+01    3.8756599426e+01
    4.1199802399e+01    3.8758800507e+01
    4.1299755096e+01    3.8761199951e+01
    4.1399837494e+01    3.8763599396e+01
    4.1499774933e+01    3.8765899658e+01
    4.1599872589e+01    3.8768199921e+01
    4.1699718475e+01    3.8770698547e+01
    4.1799816132e+01    3.8773101807e+01
    4.1899742126e+01    3.8775497437e+01
    4.1999904633e+01    3.8778099060e+01
    4.2099842072e+01    3.8780498505e+01
    4.2199825287e+01    3.8782997131e+01
    4.2299835205e+01    3.8785598755e+01
    4.2399879456e+01    3.8788101196e+01
    4.2499774933e+01    3.8790702820e+01
    4.2599704742e+01    3.8793399811e+01
    4.2699913025e+01    3.8796100616e+01
    4.2799839020e+01    3.8798698425e+01
    4.2899833679e+01    3.8801399231e+01
    4.2999885559e+01    3.8804100037e+01
    4.3099773407e+01    3.8806800842e+01
    4.3199748993e+01    3.8809700012e+01
    4.3299743652e+01    3.8812400818e+01
    4.3399879456e+01    3.8815200806e+01
    4.3499835968e+01    3.8818000793e+01
    4.3599803925e+01    3.8820899963e+01
    4.3699695587e+01    3.8823898315e+01
    4.3799701691e+01    3.8826801300e+01
    4.3899723053e+01    3.8829700470e+01
    4.3999732971e+01    3.8832698822e+01
    4.4099876404e+01    3.8835700989e+01
    4.4199844360e+01    3.8838798523e+01
    4.4299777985e+01    3.8841697693e+01
    4.4399734497e+01    3.8844802856e+01
    4.4499889374e+01    3.8847999573e+01
    4.4599807739e+01    3.8851100922e+01
    4.4699699402e+01    3.8854301453e+01
    4.4799858093e+01    3.8857498169e+01
    4.4899803162e+01    3.8860702515e+01
    4.4999828339e+01    3.8863998413e+01
    4.5099811554e+01    3.8867298126e+01
    4.5199729919e+01    3.8870498657e+01
    4.5299667358e+01    3.8873901367e+01
    4.5399749756e+01    3.8877300262e+01
    4.5499774933e+01    3.8880599976e+01
    4.5599723816e+01    3.8884201050e+01
    4.5699855804e+01    3.8887699127e+01
    4.5799667358e+01    3.8891201019e+01
    4.5899818420e+01    3.8894699097e+01
    4.5999832153e+01    3.8898300171e+01
    4.6099754333e+01    3.8901901245e+01
    4.6199783325e+01    3.8905498505e+01
    4.6299861908e+01    3.8909301758e+01
    4.6399650574e+01    3.8913002014e+01
    4.6499824524e+01    3.8916702271e+01
    4.6599704742e+01    3.8920501709e+01
    4.6699783325e+01    3.8924400330e+01
    4.6799839020e+01    3.8928298950e+01
    4.6899841309e+01    3.8932201385e+01
    4.6999698639e+01    3.8936199188e+01
    4.7099700928e+01    3.8940200806e+01
    4.7199756622e+01    3.8944297791e+01
    4.7299652100e+01    3.8948398590e+01
    4.7399646759e+01    3.8952499390e+01
    4.7499797821e+01    3.8956703186e+01
    4.7599746704e+01    3.8960899353e+01
    4.7699787140e+01    3.8965202332e+01
    4.7799633026e+01    3.8969501495e+01
    4.7899799347e+01    3.8973899841e+01
    4.7999805450e+01    3.8978302002e+01
    4.8099681854e+01    3.8982799530e+01
    4.8199817657e+01    3.8987300873e+01
    4.8299812317e+01    3.8991798401e+01
    4.8399658203e+01    3.8996498108e+01
    4.8499641418e+01    3.9001197815e+01
    4.8599765778e+01    3.9005901337e+01
    4.8699718475e+01    3.9010601044e+01
    4.8799625397e+01    3.9015499115e+01
    4.8899742126e+01    3.9020401001e+01
    4.8999790192e+01    3.9025299072e+01
    4.9099773407e+01    3.9030300140e+01
    4.9199623108e+01    3.9035301208e+01
    4.9299736023e+01    3.9040500641e+01
    4.9399692535e+01    3.9045700073e+01
    4.9499595642e+01    3.9050800323e+01
    4.9599739075e+01    3.9056198120e+01
    4.9699798584e+01    3.9061599731e+01
    4.9799770355e+01    3.9067001343e+01
    4.9899597168e+01    3.9072502136e+01
    4.9999599457e+01    3.9078098297e+01
    5.0099624634e+01    3.9083702087e+01
    5.0199584961e+01    3.9089500427e+01
    5.0299610138e+01    3.9095199585e+01
    5.0399639130e+01    3.9101100922e+01
    5.0499629974e+01    3.9106998444e+01
    5.0599620819e+01    3.9113098145e+01
    5.0699581146e+01    3.9119201660e+01
    5.0799674988e+01    3.9125301361e+01
    5.0899761200e+01    3.9131599426e+01
    5.0999740601e+01    3.9137901306e+01
    5.1099773407e+01    3.9144298553e+01
    5.1199710846e+01    3.9150901794e+01
    5.1299705505e+01    3.9157402039e+01
    5.1399581909e+01    3.9164199829e+01
    5.1499652863e+01    3.9170997620e+01
    5.1599586487e+01    3.9177700043e+01
    5.1699607849e+01    3.9184799194e+01
    5.1799575806e+01    3.9191799164e+01
    5.1899681091e+01    3.9198997498e+01
    5.1999664307e+01    3.9206199646e+01
    5.2099586487e+01    3.9213600159e+01
    5.2199668884e+01    3.9221000671e+01
    5.2299751282e+01    3.9228599548e+01
    5.2399658203e+01    3.9236301422e+01
    5.2499614716e+01    3.9244102478e+01
    5.2599670410e+01    3.9251899719e+01
    5.2699745178e+01    3.9259899139e+01
    5.2799739838e+01    3.9268001556e+01
    5.2899574280e+01    3.9276298523e+01
    5.2999759674e+01    3.9284599304e+01
    5.3099597931e+01    3.9293098450e+01
    5.3199596405e+01    3.9301700592e+01
    5.3299678802e+01    3.9310298920e+01
    5.3399662018e+01    3.9319099426e+01
    5.3499694824e+01    3.9328102112e+01
    5.3599693298e+01    3.9337200165e+01
    5.3699710846e+01    3.9346298218e+01
    5.3799610138e+01    3.9355598450e+01
    5.3899742126e+01    3.9365100861e+01
    5.3999538422e+01    3.9374698639e+01
    5.4099628448e+01    3.9384399414e+01
    5.4199584961e+01    3.9394302368e+01
    5.4299713135e+01    3.9404296875e+01
    5.4399524689e+01    3.9414501190e+01
    5.4499572754e+01    3.9424900055e+01
    5.4599536896e+01    3.9435298920e+01
    5.4699707031e+01    3.9445999146e+01
    5.4799533844e+01    3.9456699371e+01
    5.4899566650e+01    3.9467700958e+01
    5.4999675751e+01    3.9478698730e+01
    5.5099712372e+01    3.9490100861e+01
    5.5199615479e+01    3.9501399994e+01
    5.5299690247e+01    3.9513000488e+01
    5.5399623871e+01    3.9524799347e+01
    5.5499584198e+01    3.9536697388e+01
    5.5599529266e+01    3.9548797607e+01
    5.5699707031e+01    3.9561100006e+01
    5.5799671173e+01    3.9573501587e+01
    5.5899665833e+01    3.9586196899e+01
    5.5999511719e+01    3.9598999023e+01
    5.6099651337e+01    3.9611900330e+01
    5.6199676514e+01    3.9625198364e+01
    5.6299499512e+01    3.9638500214e+01
    5.6399646759e+01    3.9652000427e+01
    5.6499698639e+01    3.9665802002e+01
    5.6599533081e+01    3.9679702759e+01
    5.6699642181e+01    3.9693901062e+01
    5.6799556732e+01    3.9708198547e+01
    5.6899665833e+01    3.9722599030e+01
    5.6999649048e+01    3.9737300873e+01
    5.7099594116e+01    3.9752300262e+01
    5.7199661255e+01    3.9767299652e+01
    5.7299690247e+01    3.9782699585e+01
    5.7399482727e+01    3.9798202515e+01
    5.7499691010e+01    3.9814002991e+01
    5.7599643707e+01    3.9829898834e+01
    5.7699478149e+01    3.9846000671e+01
    5.7799476624e+01    3.9862300873e+01
    5.7899639130e+01    3.9878997803e+01
    5.7999538422e+01    3.9895797729e+01
    5.8099475861e+01    3.9912799835e+01
    5.8199481964e+01    3.9930099487e+01
    5.8299633026e+01    3.9947601318e+01
    5.8399494171e+01    3.9965301514e+01
    5.8499668121e+01    3.9983200073e+01
    5.8599628448e+01    4.0001399994e+01
    5.8699581146e+01    4.0019901276e+01
    5.8799571991e+01    4.0038421631e+01
    5.8899463654e+01    4.0057319641e+01
    5.8999515533e+01    4.0076431274e+01
    5.9099571228e+01    4.0095760345e+01
    5.9199573517e+01    4.0115329742e+01
    5.9299480438e+01    4.0135120392e+01
    5.9399658203e+01    4.0155220032e+01
    5.9499645233e+01    4.0175449371e+01
    5.9599456787e+01    4.0195907593e+01
    5.9699611664e+01    4.0216670990e+01
    5.9799549103e+01    4.0237659454e+01
    5.9899559021e+01    4.0258857727e+01
    5.9999515533e+01    4.0280281067e+01
    6.0099472046e+01    4.0302017212e+01
    6.0199645996e+01    4.0323951721e+01
    6.0299472809e+01    4.0346118927e+01
    6.0399547577e+01    4.0368480682e+01
    6.0499538422e+01    4.0391151428e+01
    6.0599472046e+01    4.0414039612e+01
    6.0699539185e+01    4.0437118530e+01
    6.0799533844e+01    4.0460517883e+01
    6.0899578094e+01    4.0484107971e+01
    6.0999454498e+01    4.0507919312e+01
    6.1099441528e+01    4.0531921387e+01
    6.1199558258e+01    4.0556221008e+01
    6.1299545288e+01    4.0580821991e+01
    6.1399433136e+01    4.0605522156e+01
    6.1499443054e+01    4.0630508423e+01
    6.1599521637e+01    4.0655792236e+01
    6.1699550629e+01    4.0681369781e+01
    6.1799461365e+01    4.0707050323e+01
    6.1899429321e+01    4.0733009338e+01
    6.1999427795e+01    4.0759159088e+01
    6.2099529266e+01    4.0785682678e+01
    6.2199504852e+01    4.0812309265e+01
    6.2299537659e+01    4.0839309692e+01
    6.2399612427e+01    4.0866489410e+01
    6.2499465942e+01    4.0893779755e+01
    6.2599575043e+01    4.0921508789e+01
    6.2699554443e+01    4.0949340820e+01
    6.2799522400e+01    4.0977447510e+01
    6.2899440765e+01    4.1005840302e+01
    6.2999534607e+01    4.1034481049e+01
    6.3099430084e+01    4.1063220978e+01
    6.3199581146e+01    4.1092399597e+01
    6.3299514771e+01    4.1121669769e+01
    6.3399593353e+01    4.1151187897e+01
    6.3499477386e+01    4.1181007385e+01
    6.3599445343e+01    4.1211071014e+01
    6.3699596405e+01    4.1241378784e+01
    6.3799568176e+01    4.1271869659e+01
    6.3899570465e+01    4.1302619934e+01
    6.3999485016e+01    4.1333629608e+01
    6.4099586487e+01    4.1364879608e+01
    6.4199386597e+01    4.1396327972e+01
    6.4299415588e+01    4.1427989960e+01
    6.4399436951e+01    4.1460010529e+01
    6.4499458313e+01    4.1492290497e+01
    6.4599456787e+01    4.1524707794e+01
    6.4699554443e+01    4.1557472229e+01
    6.4799453735e+01    4.1590389252e+01
    6.4899398804e+01    4.1623657227e+01
    6.4999519348e+01    4.1657241821e+01
    6.5099487305e+01    4.1690990448e+01
    6.5199470520e+01    4.1724971771e+01
    6.5299530029e+01    4.1759292603e+01
    6.5399520874e+01    4.1793838501e+01
    6.5499435425e+01    4.1828639984e+01
    6.5599365234e+01    4.1863670349e+01
    6.5699394226e+01    4.1899120331e+01
    6.5799545288e+01    4.1934780121e+01
    6.5899345398e+01    4.1970611572e+01
    6.5999458313e+01    4.2006931305e+01
    6.6099472046e+01    4.2043380737e+01
    6.6199348450e+01    4.2080181122e+01
    6.6299530029e+01    4.2117248535e+01
    6.6399383545e+01    4.2154590607e+01
    6.6499496460e+01    4.2192306519e+01
    6.6599403381e+01    4.2230278015e+01
    6.6699417114e+01    4.2268539429e+01
    6.6799354553e+01    4.2307128906e+01
    6.6899368286e+01    4.2346019745e+01
    6.6999542236e+01    4.2385280609e+01
    6.7099487305e+01    4.2424800873e+01
    6.7199432373e+01    4.2464710236e+01
    6.7299446106e+01    4.2504920959e+01
    6.7399452209e+01    4.2545429230e+01
    6.7499458313e+01    4.2586349487e+01
    6.7599464417e+01    4.2627559662e+01
    6.7699356079e+01    4.2669078827e+01
    6.7799354553e+01    4.2710979462e+01
    6.7899360657e+01    4.2753269196e+01
    6.7999404907e+01    4.2795951843e+01
    6.8099357605e+01    4.2838932037e+01
    6.8199378967e+01    4.2882289886e+01
    6.8299308777e+01    4.2926040649e+01
    6.8399345398e+01    4.2970260620e+01
    6.8499496460e+01    4.3014839172e+01
    6.8599349976e+01    4.3059661865e+01
    6.8699325562e+01    4.3105033875e+01
    6.8799369812e+01    4.3150756836e+01
    6.8899475098e+01    4.3196949005e+01
    6.8999359131e+01    4.3243457794e+01
    6.9099472046e+01    4.3290588379e+01
    6.9199401855e+01    4.3337928772e+01
    6.9299430847e+01    4.3385810852e+01
    6.9399360657e+01    4.3434078217e+01
    6.9499496460e+01    4.3482856750e+01
    6.9599304199e+01    4.3531982422e+01
    6.9699333191e+01    4.3581703186e+01
    6.9799316406e+01    4.3631889343e+01
    6.9899330139e+01    4.3682529449e+01
    6.9999465942e+01    4.3733688354e+01
    7.0099487305e+01    4.3785320282e+01
    7.0199317932e+01    4.3837341309e+01
    7.0299285889e+01    4.3889881134e+01
    7.0399345398e+01    4.3943038940e+01
    7.0499298096e+01    4.3996673584e+01
    7.0599441528e+01    4.4050979614e+01
    7.0699348450e+01    4.4105590820e+01
    7.0799484253e+01    4.4160972595e+01
    7.0899459839e+01    4.4216827393e+01
    7.0999450684e+01    4.4273212433e+01
    7.1099464417e+01    4.4330108643e+01
    7.1199394226e+01    4.4387660980e+01
    7.1299369812e+01    4.4445720673e+01
    7.1399414062e+01    4.4504482269e+01
    7.1499336243e+01    4.4563789368e+01
    7.1599441528e+01    4.4623760223e+01
    7.1699409485e+01    4.4684379578e+01
    7.1799400330e+01    4.4745613098e+01
    7.1899375916e+01    4.4807437897e+01
    7.1999336243e+01    4.4869991302e+01
    7.2099349976e+01    4.4933120728e+01
    7.2199386597e+01    4.4997051239e+01
    7.2299278259e+01    4.5061611176e+01
    7.2399429321e+01    4.5126991272e+01
    7.2499458313e+01    4.5193000793e+01
    7.2599456787e+01    4.5259803772e+01
    7.2699409485e+01    4.5327198029e+01
    7.2799377441e+01    4.5395481110e+01
    7.2899307251e+01    4.5464458466e+01
    7.2999351501e+01    4.5534271240e+01
    7.3099273682e+01    4.5604797363e+01
    7.3199394226e+01    4.5676326752e+01
    7.3299240112e+01    4.5748416901e+01
    7.3399276733e+01    4.5821510315e+01
    7.3499435425e+01    4.5895530701e+01
    7.3599433899e+01    4.5970249176e+01
    7.3699264526e+01    4.6045692444e+01
    7.3799270630e+01    4.6122219086e+01
    7.3899246216e+01    4.6199512482e+01
    7.3999343872e+01    4.6277900696e+01
    7.4099357605e+01    4.6357059479e+01
    7.4199432373e+01    4.6437240601e+01
    7.4299316406e+01    4.6518119812e+01
    7.4399261475e+01    4.6600021362e+01
    7.4499305725e+01    4.6682899475e+01
    7.4599372864e+01    4.6766700745e+01
    7.4699401855e+01    4.6851539612e+01
    7.4799400330e+01    4.6937297821e+01
    7.4899299622e+01    4.7023921967e+01
    7.4999382019e+01    4.7111671448e+01
    7.5099365234e+01    4.7200366974e+01
    7.5199386597e+01    4.7290050507e+01
    7.5299278259e+01    4.7380687714e+01
    7.5399383545e+01    4.7472530365e+01
    7.5499267578e+01    4.7565151215e+01
    7.5599250793e+01    4.7658920288e+01
    7.5699333191e+01    4.7753917694e+01
    7.5799209595e+01    4.7849689484e+01
    7.5899337769e+01    4.7946819305e+01
    7.5999252319e+01    4.8044811249e+01
    7.6099235535e+01    4.8143932343e+01
    7.6199272156e+01    4.8244289398e+01
    7.6299331665e+01    4.8345687866e+01
    7.6399200439e+01    4.8448131561e+01
    7.6499351501e+01    4.8551879883e+01
    7.6599266052e+01    4.8656578064e+01
    7.6699295044e+01    4.8762561798e+01
    7.6799201965e+01    4.8869518280e+01
    7.6899345398e+01    4.8977897644e+01
    7.6999183655e+01    4.9087036133e+01
    7.7099258423e+01    4.9197677612e+01
    7.7199363708e+01    4.9309619904e+01
    7.7299301147e+01    4.9422431946e+01
    7.7399307251e+01    4.9536617279e+01
    7.7499191284e+01    4.9651859283e+01
    7.7599342346e+01    4.9768539429e+01
    7.7699264526e+01    4.9886230469e+01
    7.7799285889e+01    5.0005249023e+01
    7.7899353027e+01    5.0125602722e+01
    7.7999214172e+01    5.0246929169e+01
    7.8099174500e+01    5.0369567871e+01
    7.8199340820e+01    5.0493850708e+01
    7.8299301147e+01    5.0618991852e+01
    7.8399177551e+01    5.0745307922e+01
    7.8499176025e+01    5.0873111725e+01
    7.8599342346e+01    5.1002441406e+01
    7.8699203491e+01    5.1132560730e+01
    7.8799194336e+01    5.1264129639e+01
    7.8899276733e+01    5.1397151947e+01
    7.8999343872e+01    5.1531379700e+01
    7.9099166870e+01    5.1666656494e+01
    7.9199287415e+01    5.1803550720e+01
    7.9299293518e+01    5.1941692352e+01
    7.9399345398e+01    5.2081089020e+01
    7.9499282837e+01    5.2221721649e+01
    7.9599197388e+01    5.2363632202e+01
    7.9699226379e+01    5.2507019043e+01
    7.9799354553e+01    5.2651908875e+01
    7.9899230957e+01    5.2797698975e+01
    7.9999191284e+01    5.2944969177e+01
    8.0099227905e+01    5.3093719482e+01
    8.0199317932e+01    5.3243850708e+01
    8.0299148560e+01    5.3394969940e+01
    8.0399208069e+01    5.3547740936e+01
    8.0499275208e+01    5.3702011108e+01
    8.0599243164e+01    5.3857440948e+01
    8.0699119568e+01    5.4014106750e+01
    8.0799316406e+01    5.4172630310e+01
    8.0899208069e+01    5.4332141876e+01
    8.0999114990e+01    5.4493000031e+01
    8.1099296570e+01    5.4655712128e+01
    8.1199241638e+01    5.4819530487e+01
    8.1299171448e+01    5.4984706879e+01
    8.1399177551e+01    5.5151451111e+01
    8.1499137878e+01    5.5319549561e+01
    8.1599197388e+01    5.5489177704e+01
    8.1699142456e+01    5.5660110474e+01
    8.1799102783e+01    5.5832508087e+01
    8.1899139404e+01    5.6006542206e+01
    8.1999313354e+01    5.6182239532e+01
    8.2099189758e+01    5.6358947754e+01
    8.2199203491e+01    5.6537307739e+01
    8.2299255371e+01    5.6717178345e+01
    8.2399253845e+01    5.6898536682e+01
    8.2499122620e+01    5.7081050873e+01
    8.2599266052e+01    5.7265651703e+01
    8.2699180603e+01    5.7451259613e+01
    8.2799163818e+01    5.7638622284e+01
    8.2899261475e+01    5.7827579498e+01
    8.2999153137e+01    5.8017711639e+01
    8.3099098206e+01    5.8209472656e+01
    8.3199249268e+01    5.8403110504e+01
    8.3299263000e+01    5.8597938538e+01
    8.3399093628e+01    5.8794090271e+01
    8.3499191284e+01    5.8992141724e+01
    8.3599205017e+01    5.9191699982e+01
    8.3699211121e+01    5.9392581940e+01
    8.3799079895e+01    5.9594909668e+01
    8.3899215698e+01    5.9799179077e+01
    8.3999168396e+01    6.0004623413e+01
    8.4099243164e+01    6.0211826324e+01
    8.4199241638e+01    6.0420379639e+01
    8.4299194336e+01    6.0630439758e+01
    8.4399253845e+01    6.0842338562e+01
    8.4499092102e+01    6.1055213928e+01
    8.4599136353e+01    6.1270103455e+01
    8.4699234009e+01    6.1486660004e+01
    8.4799156189e+01    6.1704414368e+01
    8.4899276733e+01    6.1924247742e+01
    8.4999069214e+01    6.2144821167e+01
    8.5099235535e+01    6.2367965698e+01
    8.5199111938e+01    6.2591907501e+01
    8.5299194336e+01    6.2817962646e+01
    8.5399131775e+01    6.3045227051e+01
    8.5499122620e+01    6.3274265289e+01
    8.5599052429e+01    6.3504680634e+01
    8.5699058533e+01    6.3736831665e+01
    8.5799240112e+01    6.3971065521e+01
    8.5899185181e+01    6.4206169128e+01
    8.5999130249e+01    6.4442939758e+01
    8.6099258423e+01    6.4681655884e+01
    8.6199043274e+01    6.4921028137e+01
    8.6299125671e+01    6.5162681580e+01
    8.6399055481e+01    6.5405548096e+01
    8.6499214172e+01    6.5650451660e+01
    8.6599113464e+01    6.5896286011e+01
    8.6699043274e+01    6.6143669128e+01
    8.6799201965e+01    6.6393028259e+01
    8.6899085999e+01    6.6643325806e+01
    8.6999206543e+01    6.6895561218e+01
    8.7099227905e+01    6.7149154663e+01
    8.7199188232e+01    6.7403976440e+01
    8.7299232483e+01    6.7660392761e+01
    8.7399131775e+01    6.7917922974e+01
    8.7499122620e+01    6.8177101135e+01
    8.7599029541e+01    6.8437492371e+01
    8.7699211121e+01    6.8699935913e+01
    8.7799034119e+01    6.8962776184e+01
    8.7899032593e+01    6.9227478027e+01
    8.7999076843e+01    6.9493652344e+01
    8.8099082947e+01    6.9761077881e+01
    8.8199005127e+01    7.0029548645e+01
    8.8299125671e+01    7.0299888611e+01
    8.8399070740e+01    7.0570976257e+01
    8.8499145508e+01    7.0843627930e+01
    8.8599159241e+01    7.1117416382e+01
    8.8699073792e+01    7.1392105103e+01
    8.8799201965e+01    7.1668655396e+01
    8.8898986816e+01    7.1945350647e+01
    8.8999153137e+01    7.2224342346e+01
    8.9099166870e+01    7.2503944397e+01
    8.9199020386e+01    7.2784301758e+01
    8.9299026489e+01    7.3066131592e+01
    8.9399024963e+01    7.3349029541e+01
    8.9499038696e+01    7.3633010864e+01
    8.9599029541e+01    7.3917846680e+01
    8.9699203491e+01    7.4204261780e+01
    8.9799087524e+01    7.4490760803e+01
    8.9899192810e+01    7.4778732300e+01
    8.9999000549e+01    7.5066902161e+01
    9.0099113464e+01    7.5356643677e+01
    9.0198974609e+01    7.5646583557e+01
    9.0299163818e+01    7.5938217163e+01
    9.0399162292e+01    7.6230125427e+01
    9.0499183655e+01    7.6522842407e+01
    9.0598991394e+01    7.6815544128e+01
    9.0698966980e+01    7.7109382629e+01
    9.0799133301e+01    7.7404388428e+01
    9.0899055481e+01    7.7699295044e+01
    9.0998985291e+01    7.7994812012e+01
    9.1099021912e+01    7.8291107178e+01
    9.1199172974e+01    7.8588272095e+01
    9.1299118042e+01    7.8885314941e+01
    9.1399101257e+01    7.9182723999e+01
    9.1498985291e+01    7.9480308533e+01
    9.1599105835e+01    7.9778900146e+01
    9.1698966980e+01    8.0077003479e+01
    9.1799041748e+01    8.0375900269e+01
    9.1899147034e+01    8.0675102234e+01
    9.1999084473e+01    8.0974105835e+01
    9.2099006653e+01    8.1273101807e+01
    9.2198959351e+01    8.1572204590e+01
    9.2299064636e+01    8.1871795654e+01
    9.2399154663e+01    8.2171302795e+01
    9.2498962402e+01    8.2470100403e+01
    9.2599021912e+01    8.2769302368e+01
    9.2698936462e+01    8.3068099976e+01
    9.2798980713e+01    8.3366905212e+01
    9.2898994446e+01    8.3665397644e+01
    9.2999015808e+01    8.3963699341e+01
    9.3099044800e+01    8.4261604309e+01
    9.3198944092e+01    8.4558700562e+01
    9.3298957825e+01    8.4855697632e+01
    9.3398986816e+01    8.5152297974e+01
    9.3499076843e+01    8.5448501587e+01
    9.3598999023e+01    8.5743499756e+01
    9.3698936462e+01    8.6038497925e+01
    9.3799026489e+01    8.6332801819e+01
    9.3898925781e+01    8.6625404358e+01
    9.3999122620e+01    8.6919006348e+01
    9.4099044800e+01    8.7209899902e+01
    9.4199050903e+01    8.7501403809e+01
    9.4299087524e+01    8.7791397095e+01
    9.4399070740e+01    8.8080299377e+01
    9.4499069214e+01    8.8368797302e+01
    9.4599037170e+01    8.8655105591e+01
    9.4698905945e+01    8.8940299988e+01
    9.4799102783e+01    8.9225204468e+01
    9.4899085999e+01    8.9509300232e+01
    9.4999023438e+01    8.9790199280e+01
    9.5098953247e+01    9.0070800781e+01
    9.5199043274e+01    9.0350402832e+01
    9.5299026489e+01    9.0627998352e+01
    9.5398963928e+01    9.0904296875e+01
    9.5499084473e+01    9.1178695679e+01
    9.5598892212e+01    9.1451599121e+01
    9.5699035645e+01    9.1722999573e+01
    9.5798973083e+01    9.1992599487e+01
    9.5898971558e+01    9.2261596680e+01
    9.5998939514e+01    9.2527206421e+01
    9.6098960876e+01    9.2792198181e+01
    9.6198982239e+01    9.3054702759e+01
    9.6299026489e+01    9.3316696167e+01
    9.6399047852e+01    9.3575302124e+01
    9.6498878479e+01    9.3832000732e+01
    9.6598922729e+01    9.4087501526e+01
    9.6698913574e+01    9.4341796875e+01
    9.6799018860e+01    9.4593101501e+01
    9.6898948669e+01    9.4842597961e+01
    9.6999015808e+01    9.5091094971e+01
    9.7098991394e+01    9.5336395264e+01
    9.7199058533e+01    9.5579902649e+01
    9.7298866272e+01    9.5821701050e+01
    9.7399047852e+01    9.6061798096e+01
    9.7498893738e+01    9.6298599243e+01
    9.7598983765e+01    9.6535003662e+01
    9.7699005127e+01    9.6768096924e+01
    9.7798965454e+01    9.6999900818e+01
    9.7898925781e+01    9.7229293823e+01
    9.7998939514e+01    9.7455902100e+01
    9.8098861694e+01    9.7681404114e+01
    9.8198860168e+01    9.7905105591e+01
    9.8298942566e+01    9.8125999451e+01
    9.8399040222e+01    9.8345397949e+01
    9.8499023438e+01    9.8562698364e+01
    9.8599021912e+01    9.8777404785e+01
    9.8698982239e+01    9.8989906311e+01
    9.8799018860e+01    9.9201499939e+01
    9.8898887634e+01    9.9410308838e+01
    9.8999008179e+01    9.9616699219e+01
    9.9099006653e+01    9.9822105408e+01
    9.9198928833e+01    1.0002429962e+02
    9.9298835754e+01    1.0022520447e+02
    9.9398895264e+01    1.0042399597e+02
    9.9498931885e+01    1.0062139893e+02
    9.9598831177e+01    1.0081599426e+02
    9.9698875427e+01    1.0100859833e+02
    9.9798988342e+01    1.0120050049e+02
    9.9898971558e+01    1.0138949585e+02
    9.9998939514e+01    1.0157620239e+02
    1.0009883881e+02    1.0176170349e+02
    1.0019899750e+02    1.0194580078e+02
    1.0029886627e+02    1.0212680817e+02
    1.0039890289e+02    1.0230670929e+02
    1.0049897003e+02    1.0248500061e+02
    1.0059886932e+02    1.0266079712e+02
    1.0069886780e+02    1.0283580017e+02
    1.0079895020e+02    1.0300920105e+02
    1.0089894104e+02    1.0318059540e+02
    1.0099897003e+02    1.0334950256e+02
    1.0109890747e+02    1.0351760101e+02
    1.0119880676e+02    1.0368450928e+02
    1.0129891968e+02    1.0384930420e+02
    1.0139900970e+02    1.0401390076e+02
    1.0149887848e+02    1.0417519379e+02
    1.0159884644e+02    1.0433580017e+02
    1.0169898987e+02    1.0449549866e+02
    1.0179891205e+02    1.0465399170e+02
    1.0189897919e+02    1.0481059265e+02
    1.0199897003e+02    1.0496640015e+02
    1.0209893036e+02    1.0512110901e+02
    1.0219891357e+02    1.0527469635e+02
    1.0229889679e+02    1.0542700195e+02
    1.0239881897e+02    1.0557860565e+02
    1.0249894714e+02    1.0572909546e+02
    1.0259896088e+02    1.0587910461e+02
    1.0269892883e+02    1.0602720642e+02
    1.0279897308e+02    1.0617489624e+02
    1.0289888000e+02    1.0632230377e+02
    1.0299889374e+02    1.0646910095e+02
    1.0309887695e+02    1.0661399078e+02
    1.0319893646e+02    1.0675959778e+02
    1.0329876709e+02    1.0690330505e+02
    1.0339877319e+02    1.0704729462e+02
    1.0349891663e+02    1.0719049835e+02
    1.0359893036e+02    1.0733261108e+02
    1.0369882202e+02    1.0747529602e+02
    1.0379882812e+02    1.0761660767e+02
    1.0389875793e+02    1.0775740051e+02
    1.0399897766e+02    1.0789889526e+02
    1.0409877014e+02    1.0803970337e+02
    1.0419896698e+02    1.0818060303e+02
    1.0429875946e+02    1.0831979370e+02
    1.0439895630e+02    1.0846010590e+02
    1.0449887848e+02    1.0860000610e+02
    1.0459895325e+02    1.0873950195e+02
    1.0469892883e+02    1.0887860107e+02
    1.0479894257e+02    1.0901789856e+02
    1.0489878845e+02    1.0915730286e+02
    1.0499880219e+02    1.0929609680e+02
    1.0509892273e+02    1.0943569946e+02
    1.0519885254e+02    1.0957469940e+02
    1.0529878998e+02    1.0971389771e+02
    1.0539887238e+02    1.0985380554e+02
    1.0549889374e+02    1.0999240112e+02
    1.0559880066e+02    1.1013179016e+02
    1.0569889832e+02    1.1027180481e+02
    1.0579882050e+02    1.1041110229e+02
    1.0589881134e+02    1.1055149841e+02
    1.0599890900e+02    1.1069070435e+02
    1.0609886932e+02    1.1083110046e+02
    1.0619886780e+02    1.1097190094e+02
    1.0629894257e+02    1.1111160278e+02
    1.0639894104e+02    1.1125229645e+02
    1.0649871826e+02    1.1139369965e+02
    1.0659892273e+02    1.1153439331e+02
    1.0669892120e+02    1.1167569733e+02
    1.0679881287e+02    1.1181809235e+02
    1.0689888763e+02    1.1196010590e+02
    1.0699890137e+02    1.1210209656e+02
    1.0709892273e+02    1.1224449921e+02
    1.0719877625e+02    1.1238749695e+02
    1.0729885864e+02    1.1252999115e+02
    1.0739871979e+02    1.1267420197e+02
    1.0749891663e+02    1.1281820679e+02
    1.0759877014e+02    1.1296179962e+02
    1.0769891357e+02    1.1310650635e+02
    1.0779882050e+02    1.1325109100e+02
    1.0789878845e+02    1.1339620209e+02
    1.0799873352e+02    1.1354199982e+02
    1.0809887695e+02    1.1368840027e+02
    1.0819880676e+02    1.1383479309e+02
    1.0829881287e+02    1.1398149872e+02
    1.0839872742e+02    1.1412850189e+02
    1.0849875641e+02    1.1427550507e+02
    1.0859880066e+02    1.1442330170e+02
    1.0869873810e+02    1.1457239532e+02
    1.0879881287e+02    1.1472060394e+02
    1.0889875031e+02    1.1487020874e+02
    1.0899884033e+02    1.1501979065e+02
    1.0909873199e+02    1.1516939545e+02
    1.0919877625e+02    1.1531990051e+02
    1.0929888916e+02    1.1546990204e+02
    1.0939875793e+02    1.1562099457e+02
    1.0949887848e+02    1.1577259064e+02
    1.0959884644e+02    1.1592390442e+02
    1.0969872284e+02    1.1607650757e+02
    1.0979872131e+02    1.1622829437e+02
    1.0989878845e+02    1.1638159943e+02
    1.0999880219e+02    1.1653500366e+02
    1.1009867096e+02    1.1668820953e+02
    1.1019886780e+02    1.1684220886e+02
    1.1029878998e+02    1.1699579620e+02
    1.1039868164e+02    1.1714949799e+02
    1.1049880219e+02    1.1730469513e+02
    1.1059887695e+02    1.1745999908e+02
    1.1069870758e+02    1.1761459351e+02
    1.1079873657e+02    1.1776999664e+02
    1.1089865875e+02    1.1792589569e+02
    1.1099877930e+02    1.1808160400e+02
    1.1109870148e+02    1.1823830414e+02
    1.1119885254e+02    1.1839460754e+02
    1.1129869843e+02    1.1855150604e+02
    1.1139881897e+02    1.1870770264e+02
    1.1149880981e+02    1.1886560059e+02
    1.1159867859e+02    1.1902219391e+02
    1.1169886017e+02    1.1917979431e+02
    1.1179872131e+02    1.1933719635e+02
    1.1189885712e+02    1.1949489594e+02
    1.1199886322e+02    1.1965340424e+02
    1.1209864807e+02    1.1981098938e+02
    1.1219864655e+02    1.1996920013e+02
    1.1229878998e+02    1.2012899780e+02
    1.1239868164e+02    1.2028600311e+02
    1.1249884796e+02    1.2044499969e+02
    1.1259877014e+02    1.2060400391e+02
    1.1269869232e+02    1.2076299286e+02
    1.1279878235e+02    1.2092199707e+02
    1.1289871216e+02    1.2108200836e+02
    1.1299880981e+02    1.2123999023e+02
    1.1309883881e+02    1.2140000153e+02
    1.1319876099e+02    1.2155899811e+02
    1.1329872894e+02    1.2171800995e+02
    1.1339878845e+02    1.2187799835e+02
    1.1349881744e+02    1.2203800201e+02
    1.1359866333e+02    1.2219699097e+02
    1.1369873810e+02    1.2235600281e+02
    1.1379875946e+02    1.2251599884e+02
    1.1389878082e+02    1.2267499542e+02
    1.1399871826e+02    1.2283399200e+02
    1.1409877777e+02    1.2299399567e+02
    1.1419863129e+02    1.2315200043e+02
    1.1429882050e+02    1.2331199646e+02
    1.1439864349e+02    1.2347100830e+02
    1.1449865723e+02    1.2362899780e+02
    1.1459876251e+02    1.2378799438e+02
    1.1469873047e+02    1.2394799042e+02
    1.1479879761e+02    1.2410599518e+02
    1.1489861298e+02    1.2426499939e+02
    1.1499873352e+02    1.2442399597e+02
    1.1509880066e+02    1.2458200836e+02
    1.1519869995e+02    1.2474000549e+02
    1.1529878998e+02    1.2489899445e+02
    1.1539859009e+02    1.2505699921e+02
    1.1549874115e+02    1.2521500397e+02
    1.1559877014e+02    1.2537200165e+02
    1.1569860840e+02    1.2552899933e+02
    1.1579863739e+02    1.2568600464e+02
    1.1589869690e+02    1.2584300232e+02
    1.1599867249e+02    1.2599900055e+02
    1.1609870148e+02    1.2615699768e+02
    1.1619873810e+02    1.2631299591e+02
    1.1629866028e+02    1.2646799469e+02
    1.1639872742e+02    1.2662400055e+02
    1.1649877167e+02    1.2677999878e+02
    1.1659873199e+02    1.2693500519e+02
    1.1669860077e+02    1.2708999634e+02
    1.1679862213e+02    1.2724400330e+02
    1.1689872742e+02    1.2739900208e+02
    1.1699874878e+02    1.2755200195e+02
    1.1709874725e+02    1.2770600891e+02
    1.1719869995e+02    1.2785998535e+02
    1.1729859161e+02    1.2801199341e+02
    1.1739871216e+02    1.2816400146e+02
    1.1749859619e+02    1.2831700134e+02
    1.1759864807e+02    1.2846800232e+02
    1.1769863129e+02    1.2861999512e+02
    1.1779856110e+02    1.2877000427e+02
    1.1789862823e+02    1.2892001343e+02
    1.1799874878e+02    1.2907099915e+02
    1.1809867859e+02    1.2922000122e+02
    1.1819854736e+02    1.2936900330e+02
    1.1829860687e+02    1.2951699829e+02
    1.1839862061e+02    1.2966600037e+02
    1.1849862671e+02    1.2981301880e+02
    1.1859873199e+02    1.2996000671e+02
    1.1869873810e+02    1.3010700989e+02
    1.1879865265e+02    1.3025199890e+02
    1.1889869690e+02    1.3039797974e+02
    1.1899852753e+02    1.3054199219e+02
    1.1909867859e+02    1.3068598938e+02
    1.1919872284e+02    1.3083000183e+02
    1.1929859161e+02    1.3097299194e+02
    1.1939868927e+02    1.3111502075e+02
    1.1949870300e+02    1.3125801086e+02
    1.1959854889e+02    1.3139799500e+02
    1.1969869232e+02    1.3153901672e+02
    1.1979872894e+02    1.3167799377e+02
    1.1989859772e+02    1.3181700134e+02
    1.1999858093e+02    1.3195500183e+02
    1.2009866333e+02    1.3209300232e+02
    1.2019854736e+02    1.3222900391e+02
    1.2029866791e+02    1.3236700439e+02
    1.2039866638e+02    1.3250199890e+02
    1.2049871826e+02    1.3263600159e+02
    1.2059873199e+02    1.3277000427e+02
    1.2069870758e+02    1.3290301514e+02
    1.2079855347e+02    1.3303498840e+02
    1.2089855194e+02    1.3316598511e+02
    1.2099859619e+02    1.3329800415e+02
    1.2109860992e+02    1.3342700195e+02
    1.2119860077e+02    1.3355598450e+02
    1.2129860687e+02    1.3368402100e+02
    1.2139852142e+02    1.3381100464e+02
    1.2149851990e+02    1.3393698120e+02
    1.2159860992e+02    1.3406300354e+02
    1.2169857025e+02    1.3418798828e+02
    1.2179850769e+02    1.3431098938e+02
    1.2189862061e+02    1.3443400574e+02
    1.2199855042e+02    1.3455601501e+02
    1.2209867096e+02    1.3467599487e+02
    1.2219860077e+02    1.3479598999e+02
    1.2229856873e+02    1.3491600037e+02
    1.2239864349e+02    1.3503401184e+02
    1.2249855042e+02    1.3515000916e+02
    1.2259850311e+02    1.3526599121e+02
    1.2269864655e+02    1.3538101196e+02
    1.2279863739e+02    1.3549497986e+02
    1.2289853668e+02    1.3560798645e+02
    1.2299846649e+02    1.3572000122e+02
    1.2309850311e+02    1.3583100891e+02
    1.2319863129e+02    1.3594001770e+02
    1.2329865265e+02    1.3604899597e+02
    1.2339865112e+02    1.3615701294e+02
    1.2349854279e+02    1.3626298523e+02
    1.2359866333e+02    1.3636900330e+02
    1.2369860077e+02    1.3647300720e+02
    1.2379866028e+02    1.3657699585e+02
    1.2389865112e+02    1.3667799377e+02
    1.2399848938e+02    1.3677900696e+02
    1.2409848785e+02    1.3688002014e+02
    1.2419847107e+02    1.3697799683e+02
    1.2429846191e+02    1.3707600403e+02
    1.2439865112e+02    1.3717298889e+02
    1.2449865723e+02    1.3726799011e+02
    1.2459858704e+02    1.3736199951e+02
    1.2469862366e+02    1.3745500183e+02
    1.2479860687e+02    1.3754798889e+02
    1.2489846802e+02    1.3763899231e+02
    1.2499861145e+02    1.3772900391e+02
    1.2509857941e+02    1.3781799316e+02
    1.2519850159e+02    1.3790498352e+02
    1.2529857635e+02    1.3799099731e+02
    1.2539845276e+02    1.3807600403e+02
    1.2549854279e+02    1.3816000366e+02
    1.2559845734e+02    1.3824398804e+02
    1.2569846344e+02    1.3832600403e+02
    1.2579850006e+02    1.3840600586e+02
    1.2589845276e+02    1.3848599243e+02
    1.2599844360e+02    1.3856399536e+02
    1.2609854889e+02    1.3864100647e+02
    1.2619847107e+02    1.3871697998e+02
    1.2629843903e+02    1.3879200745e+02
    1.2639846039e+02    1.3886500549e+02
    1.2649859619e+02    1.3893798828e+02
    1.2659857941e+02    1.3900901794e+02
    1.2669859314e+02    1.3907901001e+02
    1.2679855347e+02    1.3914801025e+02
    1.2689849091e+02    1.3921598816e+02
    1.2699848938e+02    1.3928199768e+02
    1.2709860229e+02    1.3934800720e+02
    1.2719848633e+02    1.3941200256e+02
    1.2729855347e+02    1.3947500610e+02
    1.2739858246e+02    1.3953599548e+02
    1.2749842834e+02    1.3959701538e+02
    1.2759857941e+02    1.3965699768e+02
    1.2769846344e+02    1.3971400452e+02
    1.2779856110e+02    1.3977198792e+02
    1.2789852142e+02    1.3982798767e+02
    1.2799846649e+02    1.3988200378e+02
    1.2809858704e+02    1.3993499756e+02
    1.2819856262e+02    1.3998799133e+02
    1.2829852295e+02    1.4003900146e+02
    1.2839848328e+02    1.4008898926e+02
    1.2849862671e+02    1.4013900757e+02
    1.2859843445e+02    1.4018598938e+02
    1.2869854736e+02    1.4023199463e+02
    1.2879856873e+02    1.4027798462e+02
    1.2889849854e+02    1.4032199097e+02
    1.2899856567e+02    1.4036601257e+02
    1.2909849548e+02    1.4040699768e+02
    1.2919860840e+02    1.4044902039e+02
    1.2929850769e+02    1.4048899841e+02
    1.2939860535e+02    1.4052699280e+02
    1.2949862671e+02    1.4056498718e+02
    1.2959852600e+02    1.4060099792e+02
    1.2969859314e+02    1.4063600159e+02
    1.2979858398e+02    1.4067100525e+02
    1.2989869690e+02    1.4070401001e+02
    1.2999870300e+02    1.4073600769e+02
    1.3009855652e+02    1.4076699829e+02
    1.3019856262e+02    1.4079701233e+02
    1.3029855347e+02    1.4082600403e+02
    1.3039866638e+02    1.4085401917e+02
    1.3049859619e+02    1.4087998962e+02
    1.3059854126e+02    1.4090600586e+02
    1.3069876099e+02    1.4092999268e+02
    1.3079873657e+02    1.4095501709e+02
    1.3089877319e+02    1.4097700500e+02
    1.3099874878e+02    1.4099801636e+02
    1.3109858704e+02    1.4101898193e+02
    1.3119862366e+02    1.4103898621e+02
    1.3129875183e+02    1.4105700684e+02
    1.3139857483e+02    1.4107501221e+02
    1.3149870300e+02    1.4109098816e+02
    1.3159867859e+02    1.4110699463e+02
    1.3169871521e+02    1.4112098694e+02
    1.3179870605e+02    1.4113499451e+02
    1.3189880371e+02    1.4114700317e+02
    1.3199885559e+02    1.4115901184e+02
    1.3209883118e+02    1.4116902161e+02
    1.3219874573e+02    1.4117900085e+02
    1.3229881287e+02    1.4118800354e+02
    1.3239877319e+02    1.4119500732e+02
    1.3249870300e+02    1.4120199585e+02
    1.3259877014e+02    1.4120800781e+02
    1.3269871521e+02    1.4121301270e+02
    1.3279882812e+02    1.4121697998e+02
    1.3289874268e+02    1.4122000122e+02
    1.3299876404e+02    1.4122201538e+02
    1.3309884644e+02    1.4122399902e+02
    1.3319885254e+02    1.4122399902e+02
    1.3329893494e+02    1.4122302246e+02
    1.3339871216e+02    1.4122201538e+02
    1.3349880981e+02    1.4122000122e+02
    1.3359892273e+02    1.4121701050e+02
    1.3369877625e+02    1.4121298218e+02
    1.3379881287e+02    1.4120797729e+02
    1.3389883423e+02    1.4120199585e+02
    1.3399879456e+02    1.4119500732e+02
    1.3409877014e+02    1.4118801880e+02
    1.3419877625e+02    1.4117999268e+02
    1.3429876709e+02    1.4116998291e+02
    1.3439886475e+02    1.4115997314e+02
    1.3449897766e+02    1.4114898682e+02
    1.3459892273e+02    1.4113702393e+02
    1.3469880676e+02    1.4112399292e+02
    1.3479902649e+02    1.4111001587e+02
    1.3489897156e+02    1.4109597778e+02
    1.3499902344e+02    1.4108001709e+02
    1.3509881592e+02    1.4106298828e+02
    1.3519883728e+02    1.4104598999e+02
    1.3529893494e+02    1.4102700806e+02
    1.3539895630e+02    1.4100802612e+02
    1.3549902344e+02    1.4098699951e+02
    1.3559893799e+02    1.4096600342e+02
    1.3569894409e+02    1.4094500732e+02
    1.3579891968e+02    1.4092098999e+02
    1.3589900208e+02    1.4089797974e+02
    1.3599905396e+02    1.4087200928e+02
    1.3609902954e+02    1.4084597778e+02
    1.3619891357e+02    1.4082000732e+02
    1.3629908752e+02    1.4079202271e+02
    1.3639897156e+02    1.4076300049e+02
    1.3649891663e+02    1.4073400879e+02
    1.3659898376e+02    1.4070300293e+02
    1.3669891357e+02    1.4067199707e+02
    1.3679913330e+02    1.4063900757e+02
    1.3689906311e+02    1.4060601807e+02
    1.3699914551e+02    1.4057101440e+02
    1.3709892273e+02    1.4053601074e+02
    1.3719912720e+02    1.4050000000e+02
    1.3729902649e+02    1.4046301270e+02
    1.3739912415e+02    1.4042398071e+02
    1.3749908447e+02    1.4038500977e+02
    1.3759902954e+02    1.4034500122e+02
    1.3769897461e+02    1.4030401611e+02
    1.3779902649e+02    1.4026202393e+02
    1.3789920044e+02    1.4021801758e+02
    1.3799917603e+02    1.4017300415e+02
    1.3809913635e+02    1.4012899780e+02
    1.3819915771e+02    1.4008200073e+02
    1.3829916382e+02    1.4003500366e+02
    1.3839906311e+02    1.3998699951e+02
    1.3849917603e+02    1.3993701172e+02
    1.3859906006e+02    1.3988699341e+02
    1.3869917297e+02    1.3983499146e+02
    1.3879908752e+02    1.3978298950e+02
    1.3889918518e+02    1.3973001099e+02
    1.3899916077e+02    1.3967599487e+02
    1.3909919739e+02    1.3961999512e+02
    1.3919918823e+02    1.3956298828e+02
    1.3929925537e+02    1.3950601196e+02
    1.3939921570e+02    1.3944799805e+02
    1.3949920654e+02    1.3938900757e+02
    1.3959927368e+02    1.3932800293e+02
    1.3969911194e+02    1.3926699829e+02
    1.3979911804e+02    1.3920498657e+02
    1.3989923096e+02    1.3914099121e+02
    1.3999920654e+02    1.3907699585e+02
    1.4009913635e+02    1.3901202393e+02
    1.4019932556e+02    1.3894500732e+02
    1.4029917908e+02    1.3887799072e+02
    1.4039930725e+02    1.3880899048e+02
    1.4049923706e+02    1.3874002075e+02
    1.4059916687e+02    1.3866900635e+02
    1.4069931030e+02    1.3859799194e+02
    1.4079931641e+02    1.3852600098e+02
    1.4089927673e+02    1.3845300293e+02
    1.4099928284e+02    1.3837799072e+02
    1.4109930420e+02    1.3830300903e+02
    1.4119921875e+02    1.3822698975e+02
    1.4129936218e+02    1.3814898682e+02
    1.4139941406e+02    1.3807101440e+02
    1.4149937439e+02    1.3799099731e+02
    1.4159936523e+02    1.3791101074e+02
    1.4169926453e+02    1.3782901001e+02
    1.4179939270e+02    1.3774798584e+02
    1.4189926147e+02    1.3766497803e+02
    1.4199942017e+02    1.3757998657e+02
    1.4209924316e+02    1.3749600220e+02
    1.4219937134e+02    1.3740899658e+02
    1.4229934692e+02    1.3732199097e+02
    1.4239947510e+02    1.3723400879e+02
    1.4249949646e+02    1.3714501953e+02
    1.4259941101e+02    1.3705499268e+02
    1.4269946289e+02    1.3696499634e+02
    1.4279945374e+02    1.3687298584e+02
    1.4289942932e+02    1.3678100586e+02
    1.4299937439e+02    1.3668798828e+02
    1.4309936523e+02    1.3659298706e+02
    1.4319938660e+02    1.3649801636e+02
    1.4329933167e+02    1.3640200806e+02
    1.4339938354e+02    1.3630398560e+02
    1.4349948120e+02    1.3620703125e+02
    1.4359948730e+02    1.3610800171e+02
    1.4369935608e+02    1.3600900269e+02
    1.4379934692e+02    1.3590795898e+02
    1.4389953613e+02    1.3580700684e+02
    1.4399955750e+02    1.3570498657e+02
    1.4409941101e+02    1.3560302734e+02
    1.4419952393e+02    1.3549902344e+02
    1.4429940796e+02    1.3539398193e+02
    1.4439942932e+02    1.3528897095e+02
    1.4449960327e+02    1.3518301392e+02
    1.4459956360e+02    1.3507598877e+02
    1.4469949341e+02    1.3496902466e+02
    1.4479946899e+02    1.3485998535e+02
    1.4489952087e+02    1.3475100708e+02
    1.4499952698e+02    1.3464099121e+02
    1.4509950256e+02    1.3453100586e+02
    1.4519958496e+02    1.3442001343e+02
    1.4529959106e+02    1.3430798340e+02
    1.4539950562e+02    1.3419601440e+02
    1.4549963379e+02    1.3408200073e+02
    1.4559959412e+02    1.3396798706e+02
    1.4569949341e+02    1.3385296631e+02
    1.4579968262e+02    1.3373797607e+02
    1.4589947510e+02    1.3362200928e+02
    1.4599955750e+02    1.3350604248e+02
    1.4609959412e+02    1.3338699341e+02
    1.4619963074e+02    1.3326898193e+02
    1.4629963684e+02    1.3315103149e+02
    1.4639971924e+02    1.3303100586e+02
    1.4649955750e+02    1.3291101074e+02
    1.4659953308e+02    1.3279101562e+02
    1.4669961548e+02    1.3267001343e+02
    1.4679962158e+02    1.3254699707e+02
    1.4689959717e+02    1.3242501831e+02
    1.4699957275e+02    1.3230200195e+02
    1.4709965515e+02    1.3217898560e+02
    1.4719976807e+02    1.3205401611e+02
    1.4729974365e+02    1.3192901611e+02
    1.4739964294e+02    1.3180398560e+02
    1.4749966431e+02    1.3167700195e+02
    1.4759971619e+02    1.3155102539e+02
    1.4769975281e+02    1.3142300415e+02
    1.4779975891e+02    1.3129598999e+02
    1.4789979553e+02    1.3116702271e+02
    1.4799975586e+02    1.3103900146e+02
    1.4809977722e+02    1.3090902710e+02
    1.4819970703e+02    1.3077996826e+02
    1.4829983521e+02    1.3064898682e+02
    1.4839973450e+02    1.3051898193e+02
    1.4849964905e+02    1.3038699341e+02
    1.4859971619e+02    1.3025497437e+02
    1.4869964600e+02    1.3012402344e+02
    1.4879980469e+02    1.2998999023e+02
    1.4889979553e+02    1.2985699463e+02
    1.4899969482e+02    1.2972399902e+02
    1.4909986877e+02    1.2958999634e+02
    1.4919975281e+02    1.2945602417e+02
    1.4929980469e+02    1.2932098389e+02
    1.4939984131e+02    1.2918499756e+02
    1.4949975586e+02    1.2905102539e+02
    1.4959985352e+02    1.2891400146e+02
    1.4969972229e+02    1.2877801514e+02
    1.4979971313e+02    1.2864099121e+02
    1.4989991760e+02    1.2850302124e+02
    1.4999978638e+02    1.2836599731e+02
    1.5009974670e+02    1.2822897339e+02
    1.5019973755e+02    1.2808999634e+02
    1.5029980469e+02    1.2795101929e+02
    1.5039993286e+02    1.2781201172e+02
    1.5049993896e+02    1.2767300415e+02
    1.5059976196e+02    1.2753399658e+02
    1.5069996643e+02    1.2739401245e+02
    1.5079991150e+02    1.2725299072e+02
    1.5089982605e+02    1.2711300659e+02
    1.5099981689e+02    1.2697201538e+02
    1.5109999084e+02    1.2683099365e+02
    1.5119984436e+02    1.2668902588e+02
    1.5129997253e+02    1.2654696655e+02
    1.5139996338e+02    1.2640499878e+02
    1.5149993896e+02    1.2626303101e+02
    1.5159989929e+02    1.2611996460e+02
    1.5170002747e+02    1.2597799683e+02
    1.5179997253e+02    1.2583502197e+02
    1.5189993286e+02    1.2569100952e+02
    1.5199995422e+02    1.2554800415e+02
    1.5210000610e+02    1.2540301514e+02
    1.5219989014e+02    1.2526000977e+02
    1.5229988098e+02    1.2511599731e+02
    1.5239996338e+02    1.2497103882e+02
    1.5249993896e+02    1.2482598877e+02
    1.5260003662e+02    1.2468099976e+02
    1.5270007324e+02    1.2453598022e+02
    1.5280003357e+02    1.2439001465e+02
    1.5290010071e+02    1.2424502563e+02
    1.5300010681e+02    1.2409899902e+02
    1.5309994507e+02    1.2395397949e+02
    1.5319999695e+02    1.2380798340e+02
    1.5330014038e+02    1.2366198730e+02
    1.5340014648e+02    1.2351501465e+02
    1.5350010681e+02    1.2336798096e+02
    1.5360006714e+02    1.2322198486e+02
    1.5369995117e+02    1.2307604980e+02
    1.5380012512e+02    1.2292797852e+02
    1.5390016174e+02    1.2278204346e+02
    1.5400007629e+02    1.2263500977e+02
    1.5410017395e+02    1.2248699951e+02
    1.5420013428e+02    1.2233996582e+02
    1.5430009460e+02    1.2219201660e+02
    1.5440002441e+02    1.2204498291e+02
    1.5450004578e+02    1.2189703369e+02
    1.5460011292e+02    1.2174902344e+02
    1.5470004272e+02    1.2160198975e+02
    1.5480012512e+02    1.2145404053e+02
    1.5490016174e+02    1.2130499268e+02
    1.5500004578e+02    1.2115698242e+02
    1.5510011292e+02    1.2101000977e+02
    1.5520021057e+02    1.2086096191e+02
    1.5530026245e+02    1.2071301270e+02
    1.5540016174e+02    1.2056402588e+02
    1.5550022888e+02    1.2041601562e+02
    1.5560023499e+02    1.2026696777e+02
    1.5570014954e+02    1.2011999512e+02
    1.5580029297e+02    1.1997003174e+02
    1.5590031433e+02    1.1982202148e+02
    1.5600019836e+02    1.1967199707e+02
    1.5610011292e+02    1.1952398682e+02
    1.5620022583e+02    1.1937500000e+02
    1.5630029297e+02    1.1922601318e+02
    1.5640014648e+02    1.1907696533e+02
    1.5650021362e+02    1.1892803955e+02
    1.5660029602e+02    1.1877905273e+02
    1.5670019531e+02    1.1863000488e+02
    1.5680024719e+02    1.1848095703e+02
    1.5690023804e+02    1.1833099365e+02
    1.5700018311e+02    1.1818200684e+02
    1.5710034180e+02    1.1803198242e+02
    1.5720031738e+02    1.1788195801e+02
    1.5730032349e+02    1.1773297119e+02
    1.5740019226e+02    1.1758203125e+02
    1.5750021362e+02    1.1743298340e+02
    1.5760021973e+02    1.1728295898e+02
    1.5770028687e+02    1.1713299561e+02
    1.5780041504e+02    1.1698297119e+02
    1.5790043640e+02    1.1683197021e+02
    1.5800036621e+02    1.1668194580e+02
    1.5810023499e+02    1.1653100586e+02
    1.5820034790e+02    1.1638098145e+02
    1.5830035400e+02    1.1622998047e+02
    1.5840034485e+02    1.1607904053e+02
    1.5850039673e+02    1.1592803955e+02
    1.5860026550e+02    1.1577801514e+02
    1.5870025635e+02    1.1562701416e+02
    1.5880044556e+02    1.1547497559e+02
    1.5890049744e+02    1.1532403564e+02
    1.5900045776e+02    1.1517199707e+02
    1.5910028076e+02    1.1502105713e+02
    1.5920040894e+02    1.1486901855e+02
    1.5930032349e+02    1.1471704102e+02
    1.5940051270e+02    1.1456396484e+02
    1.5950047302e+02    1.1441198730e+02
    1.5960031128e+02    1.1425994873e+02
    1.5970050049e+02    1.1410797119e+02
    1.5980050659e+02    1.1395397949e+02
    1.5990046692e+02    1.1380200195e+02
    1.6000054932e+02    1.1364801025e+02
    1.6010047913e+02    1.1349499512e+02
    1.6020056152e+02    1.1334100342e+02
    1.6030056763e+02    1.1318701172e+02
    1.6040046692e+02    1.1303399658e+02
    1.6050050354e+02    1.1287902832e+02
    1.6060058594e+02    1.1272399902e+02
    1.6070050049e+02    1.1256903076e+02
    1.6080043030e+02    1.1241400146e+02
    1.6090051270e+02    1.1225799561e+02
    1.6100044250e+02    1.1210296631e+02
    1.6110052490e+02    1.1194702148e+02
    1.6120057678e+02    1.1179003906e+02
    1.6130047607e+02    1.1163299561e+02
    1.6140055847e+02    1.1147698975e+02
    1.6150064087e+02    1.1131903076e+02
    1.6160047913e+02    1.1116204834e+02
    1.6170062256e+02    1.1100299072e+02
    1.6180053711e+02    1.1084503174e+02
    1.6190046692e+02    1.1068701172e+02
    1.6200065613e+02    1.1052697754e+02
    1.6210055542e+02    1.1036700439e+02
    1.6220068359e+02    1.1020703125e+02
    1.6230061340e+02    1.1004699707e+02
    1.6240049744e+02    1.0988702393e+02
    1.6250062561e+02    1.0972503662e+02
    1.6260069275e+02    1.0956298828e+02
    1.6270065308e+02    1.0940197754e+02
    1.6280056763e+02    1.0923901367e+02
    1.6290069580e+02    1.0907598877e+02
    1.6300068665e+02    1.0891198730e+02
    1.6310055542e+02    1.0874902344e+02
    1.6320072937e+02    1.0858398438e+02
    1.6330064392e+02    1.0841900635e+02
    1.6340066528e+02    1.0825402832e+02
    1.6350062561e+02    1.0808795166e+02
    1.6360064697e+02    1.0792102051e+02
    1.6370063782e+02    1.0775402832e+02
    1.6380070496e+02    1.0758599854e+02
    1.6390060425e+02    1.0741796875e+02
    1.6400065613e+02    1.0725000000e+02
    1.6410069275e+02    1.0707897949e+02
    1.6420062256e+02    1.0691003418e+02
    1.6430070496e+02    1.0673999023e+02
    1.6440075684e+02    1.0656799316e+02
    1.6450068665e+02    1.0639599609e+02
    1.6460063171e+02    1.0622399902e+02
    1.6470083618e+02    1.0604998779e+02
    1.6480067444e+02    1.0587701416e+02
    1.6490066528e+02    1.0570300293e+02
    1.6500068665e+02    1.0552801514e+02
    1.6510075378e+02    1.0535198975e+02
    1.6520088196e+02    1.0517498779e+02
    1.6530082703e+02    1.0499804688e+02
    1.6540078735e+02    1.0482000732e+02
    1.6550086975e+02    1.0464099121e+02
    1.6560083008e+02    1.0446197510e+02
    1.6570082092e+02    1.0428295898e+02
    1.6580087280e+02    1.0410198975e+02
    1.6590084839e+02    1.0391998291e+02
    1.6600074768e+02    1.0373901367e+02
    1.6610079956e+02    1.0355603027e+02
    1.6620080566e+02    1.0337200928e+02
    1.6630073547e+02    1.0318701172e+02
    1.6640089417e+02    1.0300201416e+02
    1.6650073242e+02    1.0281701660e+02
    1.6660081482e+02    1.0263000488e+02
    1.6670077515e+02    1.0244201660e+02
    1.6680082703e+02    1.0225402832e+02
    1.6690092468e+02    1.0206500244e+02
    1.6700079346e+02    1.0187500000e+02
    1.6710087585e+02    1.0168395996e+02
    1.6720097351e+02    1.0149200439e+02
    1.6730079651e+02    1.0130004883e+02
    1.6740098572e+02    1.0110699463e+02
    1.6750082397e+02    1.0091400146e+02
    1.6760098267e+02    1.0071801758e+02
    1.6770089722e+02    1.0052301025e+02
    1.6780096436e+02    1.0032696533e+02
    1.6790086365e+02    1.0012902832e+02
    1.6800097656e+02    9.9930969238e+01
    1.6810087585e+02    9.9731994629e+01
    1.6820083618e+02    9.9533020020e+01
    1.6830099487e+02    9.9331970215e+01
    1.6840103149e+02    9.9129943848e+01
    1.6850097656e+02    9.8928955078e+01
    1.6860093689e+02    9.8724975586e+01
    1.6870106506e+02    9.8520019531e+01
    1.6880093384e+02    9.8315002441e+01
    1.6890103149e+02    9.8109985352e+01
    1.6900099182e+02    9.7903015137e+01
    1.6910090637e+02    9.7695007324e+01
    1.6920109558e+02    9.7486999512e+01
    1.6930111694e+02    9.7277038574e+01
    1.6940107727e+02    9.7065979004e+01
    1.6950105286e+02    9.6854003906e+01
    1.6960101318e+02    9.6641967773e+01
    1.6970100403e+02    9.6429016113e+01
    1.6980105591e+02    9.6214965820e+01
    1.6990103149e+02    9.6000000000e+01
    1.7000109863e+02    9.5783020020e+01
    1.7010104370e+02    9.5566040039e+01
    1.7020111084e+02    9.5348999023e+01
    1.7030116272e+02    9.5129028320e+01
    1.7040109253e+02    9.4910034180e+01
    1.7050112915e+02    9.4689025879e+01
    1.7060110474e+02    9.4466979980e+01
    1.7070118713e+02    9.4244995117e+01
    1.7080119324e+02    9.4020996094e+01
    1.7090107727e+02    9.3796997070e+01
    1.7100120544e+02    9.3570983887e+01
    1.7110107422e+02    9.3344970703e+01
    1.7120115662e+02    9.3117004395e+01
    1.7130119324e+02    9.2888977051e+01
    1.7140107727e+02    9.2660034180e+01
    1.7150106812e+02    9.2429992676e+01
    1.7160119629e+02    9.2199035645e+01
    1.7170115662e+02    9.1965942383e+01
    1.7180122375e+02    9.1733032227e+01
    1.7190118408e+02    9.1498962402e+01
    1.7200123596e+02    9.1264038086e+01
    1.7210113525e+02    9.1027954102e+01
    1.7220109558e+02    9.0791015625e+01
    1.7230128479e+02    9.0552978516e+01
    1.7240130615e+02    9.0313964844e+01
    1.7250126648e+02    9.0075012207e+01
    1.7260116577e+02    8.9834960938e+01
    1.7270121765e+02    8.9593017578e+01
    1.7280131531e+02    8.9349975586e+01
    1.7290124512e+02    8.9106994629e+01
    1.7300120544e+02    8.8861999512e+01
    1.7310134888e+02    8.8615966797e+01
    1.7320137024e+02    8.8369995117e+01
    1.7330125427e+02    8.8121948242e+01
    1.7340124512e+02    8.7873962402e+01
    1.7350129700e+02    8.7625000000e+01
    1.7360133362e+02    8.7375000000e+01
    1.7370132446e+02    8.7123046875e+01
    1.7380131531e+02    8.6872009277e+01
    1.7390133667e+02    8.6619018555e+01
    1.7400138855e+02    8.6363952637e+01
    1.7410133362e+02    8.6109008789e+01
    1.7420120239e+02    8.5854003906e+01
    1.7430134583e+02    8.5596984863e+01
    1.7440136719e+02    8.5340026855e+01
    1.7450129700e+02    8.5080993652e+01
    1.7460140991e+02    8.4820983887e+01
    1.7470132446e+02    8.4560974121e+01
    1.7480140686e+02    8.4299987793e+01
    1.7490129089e+02    8.4037963867e+01
    1.7500137329e+02    8.3773986816e+01
    1.7510131836e+02    8.3510986328e+01
    1.7520143127e+02    8.3245971680e+01
    1.7530134583e+02    8.2979980469e+01
    1.7540130615e+02    8.2713989258e+01
    1.7550129700e+02    8.2447021484e+01
    1.7560145569e+02    8.2177978516e+01
    1.7570141602e+02    8.1908996582e+01
    1.7580148315e+02    8.1638977051e+01
    1.7590141296e+02    8.1367980957e+01
    1.7600152588e+02    8.1095947266e+01
    1.7610150146e+02    8.0823974609e+01
    1.7620143127e+02    8.0551025391e+01
    1.7630134583e+02    8.0276977539e+01
    1.7640141296e+02    8.0002014160e+01
    1.7650154114e+02    7.9726013184e+01
    1.7660151672e+02    7.9449035645e+01
    1.7670147705e+02    7.9174011230e+01
    1.7680140686e+02    7.8890014648e+01
    1.7690138245e+02    7.8611999512e+01
    1.7700143433e+02    7.8331970215e+01
    1.7710148621e+02    7.8051025391e+01
    1.7720158386e+02    7.7776977539e+01
    1.7730145264e+02    7.7486999512e+01
    1.7740141296e+02    7.7213989258e+01
    1.7750155640e+02    7.6926025391e+01
    1.7760162354e+02    7.6639038086e+01
    1.7770162964e+02    7.6351989746e+01
    1.7780149841e+02    7.6076049805e+01
    1.7790159607e+02    7.5783996582e+01
    1.7800152588e+02    7.5494995117e+01
    1.7810165405e+02    7.5210998535e+01
    1.7820147705e+02    7.4921020508e+01
    1.7830151367e+02    7.4637023926e+01
    1.7840167236e+02    7.4338928223e+01
    1.7850163269e+02    7.4053955078e+01
    1.7860165405e+02    7.3765991211e+01
    1.7870161438e+02    7.3469055176e+01
    1.7880151367e+02    7.3181945801e+01
    1.7890153503e+02    7.2891967773e+01
    1.7900166321e+02    7.2598022461e+01
    1.7910162354e+02    7.2297058105e+01
    1.7920153809e+02    7.2005981445e+01
    1.7930166626e+02    7.1708984375e+01
    1.7940156555e+02    7.1417053223e+01
    1.7950172424e+02    7.1118041992e+01
    1.7960171509e+02    7.0821960449e+01
    1.7970170593e+02    7.0535034180e+01
    1.7980166626e+02    7.0237060547e+01
    1.7990171814e+02    6.9936950684e+01
    1.8000161743e+02    6.9638977051e+01
    1.8010166931e+02    6.9337036133e+01
    1.8020164490e+02    6.9045959473e+01
    1.8030177307e+02    6.8740966797e+01
    1.8040173340e+02    6.8449035645e+01
    1.8050173950e+02    6.8144958496e+01
    1.8060169983e+02    6.7841003418e+01
    1.8070173645e+02    6.7545043945e+01
    1.8080180359e+02    6.7249938965e+01
    1.8090170288e+02    6.6940002441e+01
    1.8100163269e+02    6.6650024414e+01
    1.8110180664e+02    6.6339965820e+01
    1.8120173645e+02    6.6039978027e+01
    1.8130169678e+02    6.5739990234e+01
    1.8140185547e+02    6.5439941406e+01
    1.8150180054e+02    6.5140014648e+01
    1.8160174561e+02    6.4840026855e+01
    1.8170184326e+02    6.4529968262e+01
    1.8180177307e+02    6.4229980469e+01
    1.8190182495e+02    6.3930053711e+01
    1.8200170898e+02    6.3619995117e+01
    1.8210174561e+02    6.3319946289e+01
    1.8220190430e+02    6.3020019531e+01
    1.8230178833e+02    6.2719970703e+01
    1.8240188599e+02    6.2410034180e+01
    1.8250177002e+02    6.2109985352e+01
    1.8260177612e+02    6.1810058594e+01
    1.8270193481e+02    6.1500000000e+01
    1.8280189514e+02    6.1199951172e+01
    1.8290179443e+02    6.0900024414e+01
    1.8300175476e+02    6.0589965820e+01
    1.8310194397e+02    6.0290039062e+01
    1.8320196533e+02    5.9989990234e+01
    1.8330180359e+02    5.9679931641e+01
    1.8340188599e+02    5.9380004883e+01
    1.8350190735e+02    5.9079956055e+01
    1.8360185242e+02    5.8780029297e+01
    1.8370195007e+02    5.8479980469e+01
    1.8380189514e+02    5.8180053711e+01
    1.8390194702e+02    5.7869995117e+01
    1.8400183105e+02    5.7569946289e+01
    1.8410197449e+02    5.7270019531e+01
    1.8420190430e+02    5.6969970703e+01
    1.8430203247e+02    5.6660034180e+01
    1.8440194702e+02    5.6359985352e+01
    1.8450198364e+02    5.6070068359e+01
    1.8460203552e+02    5.5759887695e+01
    1.8470193481e+02    5.5459960938e+01
    1.8480204773e+02    5.5169921875e+01
    1.8490191650e+02    5.4869995117e+01
    1.8500195312e+02    5.4560058594e+01
    1.8510200500e+02    5.4270019531e+01
    1.8520188904e+02    5.3960083008e+01
    1.8530197144e+02    5.3670043945e+01
    1.8540205383e+02    5.3369995117e+01
    1.8550201416e+02    5.3079956055e+01
    1.8560194397e+02    5.2780029297e+01
    1.8570199585e+02    5.2479980469e+01
    1.8580195618e+02    5.2190063477e+01
    1.8590197754e+02    5.1890014648e+01
    1.8600213623e+02    5.1590087891e+01
    1.8610200500e+02    5.1300048828e+01
    1.8620199585e+02    5.1010009766e+01
    1.8630203247e+02    5.0719970703e+01
    1.8640211487e+02    5.0429931641e+01
    1.8650202942e+02    5.0130004883e+01
    1.8660200500e+02    4.9839965820e+01
    1.8670204163e+02    4.9550048828e+01
    1.8680201721e+02    4.9260009766e+01
    1.8690209961e+02    4.8970092773e+01
    1.8700215149e+02    4.8679931641e+01
    1.8710209656e+02    4.8390014648e+01
    1.8720199585e+02    4.8099975586e+01
    1.8730216980e+02    4.7809936523e+01
    1.8740213013e+02    4.7530029297e+01
    1.8750219727e+02    4.7250000000e+01
    1.8760208130e+02    4.6950073242e+01
    1.8770219421e+02    4.6680053711e+01
    1.8780212402e+02    4.6389892578e+01
    1.8790205383e+02    4.6099975586e+01
    1.8800219727e+02    4.5829956055e+01
    1.8810205078e+02    4.5540039062e+01
    1.8820225525e+02    4.5260009766e+01
    1.8830212402e+02    4.4979980469e+01
    1.8840219116e+02    4.4700073242e+01
    1.8850221252e+02    4.4429931641e+01
    1.8860220337e+02    4.4140014648e+01
    1.8870219421e+02    4.3859985352e+01
    1.8880221558e+02    4.3589965820e+01
    1.8890222168e+02    4.3310058594e+01
    1.8900219727e+02    4.3040039062e+01
    1.8910215759e+02    4.2760009766e+01
    1.8920216370e+02    4.2489990234e+01
    1.8930216980e+02    4.2219970703e+01
    1.8940234375e+02    4.1939941406e+01
    1.8950216675e+02    4.1670043945e+01
    1.8960217285e+02    4.1400024414e+01
    1.8970223999e+02    4.1130004883e+01
    1.8980224609e+02    4.0859985352e+01
    1.8990225220e+02    4.0589965820e+01
    1.9000233459e+02    4.0329956055e+01
    1.9010227966e+02    4.0060058594e+01
    1.9020239258e+02    3.9800048828e+01
    1.9030232239e+02    3.9530029297e+01
    1.9040235901e+02    3.9269897461e+01
    1.9050221252e+02    3.9010009766e+01
    1.9060237122e+02    3.8739990234e+01
    1.9070234680e+02    3.8479980469e+01
    1.9080242920e+02    3.8220092773e+01
    1.9090240479e+02    3.7959960938e+01
    1.9100233459e+02    3.7699951172e+01
    1.9110223389e+02    3.7449951172e+01
    1.9120245361e+02    3.7190063477e+01
    1.9130235291e+02    3.6940063477e+01
    1.9140226746e+02    3.6679931641e+01
    1.9150231934e+02    3.6419921875e+01
    1.9160231018e+02    3.6170043945e+01
    1.9170228577e+02    3.5920043945e+01
    1.9180238342e+02    3.5669921875e+01
    1.9190235901e+02    3.5419921875e+01
    1.9200248718e+02    3.5160034180e+01
    1.9210244751e+02    3.4910034180e+01
    1.9220234680e+02    3.4669921875e+01
    1.9230232239e+02    3.4429931641e+01
    1.9240234375e+02    3.4180053711e+01
    1.9250250244e+02    3.3930053711e+01
    1.9260252380e+02    3.3690063477e+01
    1.9270233154e+02    3.3449951172e+01
    1.9280253601e+02    3.3199951172e+01
    1.9290249634e+02    3.2960083008e+01
    1.9300234985e+02    3.2719970703e+01
    1.9310244751e+02    3.2479980469e+01
    1.9320239258e+02    3.2239990234e+01
    1.9330256653e+02    3.2010009766e+01
    1.9340255737e+02    3.1760009766e+01
    1.9350244141e+02    3.1530029297e+01
    1.9360255432e+02    3.1290039062e+01
    1.9370249939e+02    3.1059936523e+01
    1.9380244446e+02    3.0819946289e+01
    1.9390261841e+02    3.0599975586e+01
    1.9400245667e+02    3.0360107422e+01
    1.9410244751e+02    3.0130004883e+01
    1.9420246887e+02    2.9900024414e+01
    1.9430250549e+02    2.9670043945e+01
    1.9440255737e+02    2.9439941406e+01
    1.9450250244e+02    2.9209960938e+01
    1.9460266113e+02    2.8989990234e+01
    1.9470260620e+02    2.8760009766e+01
    1.9480247498e+02    2.8540039062e+01
    1.9490255737e+02    2.8310058594e+01
    1.9500263977e+02    2.8089965820e+01
    1.9510261536e+02    2.7859985352e+01
    1.9520257568e+02    2.7650024414e+01
    1.9530262756e+02    2.7429931641e+01
    1.9540263367e+02    2.7209960938e+01
    1.9550270081e+02    2.6990112305e+01
    1.9560252380e+02    2.6770019531e+01
    1.9570271301e+02    2.6550048828e+01
    1.9580259705e+02    2.6339965820e+01
    1.9590254211e+02    2.6130004883e+01
    1.9600270081e+02    2.5910034180e+01
    1.9610255432e+02    2.5699951172e+01
    1.9620268250e+02    2.5489990234e+01
    1.9630255127e+02    2.5270019531e+01
    1.9640270996e+02    2.5069946289e+01
    1.9650260925e+02    2.4859985352e+01
    1.9660275269e+02    2.4639892578e+01
    1.9670269775e+02    2.4440063477e+01
    1.9680261230e+02    2.4230102539e+01
    1.9690275574e+02    2.4030029297e+01
    1.9700280762e+02    2.3820068359e+01
    1.9710270691e+02    2.3609985352e+01
    1.9720263672e+02    2.3420043945e+01
    1.9730261230e+02    2.3209960938e+01
    1.9740280151e+02    2.3010009766e+01
    1.9750282288e+02    2.2800048828e+01
    1.9760264587e+02    2.2599975586e+01
    1.9770274353e+02    2.2400024414e+01
    1.9780273438e+02    2.2209960938e+01
    1.9790283203e+02    2.2010009766e+01
    1.9800268555e+02    2.1809936523e+01
    1.9810284424e+02    2.1609985352e+01
    1.9820272827e+02    2.1420043945e+01
    1.9830268860e+02    2.1229980469e+01
    1.9840274048e+02    2.1040039062e+01
    1.9850279236e+02    2.0849975586e+01
    1.9860285950e+02    2.0650024414e+01
    1.9870272827e+02    2.0469970703e+01
    1.9880279541e+02    2.0270019531e+01
    1.9890281677e+02    2.0079956055e+01
    1.9900291443e+02    1.9890014648e+01
    1.9910276794e+02    1.9709960938e+01
    1.9920283508e+02    1.9520019531e+01
    1.9930282593e+02    1.9339965820e+01
    1.9940289307e+02    1.9150024414e+01
    1.9950274658e+02    1.8959960938e+01
    1.9960293579e+02    1.8780029297e+01
    1.9970283508e+02    1.8599975586e+01
    1.9980296326e+02    1.8420043945e+01
    1.9990278625e+02    1.8239990234e+01
endcurve
