Curveplot
LS-DYNA keyword deck by LS-PrePost
Abscissa
Ordinate
XY data
NBDLHeadzCoo-1 #pts=2000
* Minval=     1.0381700134e+02 at time=       131.8988037109
* Maxval=     1.5483009338e+02 at time=       193.9026184082
    0.0000000000e+00    1.5358110046e+02
    9.9829651415e-02    1.5358110046e+02
    1.9989773631e-01    1.5358110046e+02
    2.9996579885e-01    1.5358110046e+02
    3.9986932278e-01    1.5358110046e+02
    4.9995762110e-01    1.5358110046e+02
    5.9996491671e-01    1.5358110046e+02
    6.9980049133e-01    1.5358110046e+02
    7.9991865158e-01    1.5358110046e+02
    8.9989852905e-01    1.5358110046e+02
    9.9991065264e-01    1.5358110046e+02
    1.0999978781e+00    1.5358110046e+02
    1.1998884678e+00    1.5358110046e+02
    1.2998635769e+00    1.5358110046e+02
    1.3998732567e+00    1.5358110046e+02
    1.4999809265e+00    1.5358110046e+02
    1.5998630524e+00    1.5358110046e+02
    1.6998765469e+00    1.5358110046e+02
    1.7999650240e+00    1.5358110046e+02
    1.8999402523e+00    1.5358110046e+02
    1.9999154806e+00    1.5358110046e+02
    2.0999050140e+00    1.5358110046e+02
    2.1998383999e+00    1.5358110046e+02
    2.2998137474e+00    1.5358110046e+02
    2.3997890949e+00    1.5358110046e+02
    2.4999763966e+00    1.5358110046e+02
    2.5999517441e+00    1.5358110046e+02
    2.6999270916e+00    1.5358110046e+02
    2.7999022007e+00    1.5358110046e+02
    2.8999035358e+00    1.5358110046e+02
    2.9998786449e+00    1.5358110046e+02
    3.0998537540e+00    1.5358110046e+02
    3.1999840736e+00    1.5358110046e+02
    3.2999591827e+00    1.5358110046e+02
    3.3999271393e+00    1.5358110046e+02
    3.4999475479e+00    1.5358110046e+02
    3.5999226570e+00    1.5358110046e+02
    3.6998977661e+00    1.5358110046e+02
    3.7998728752e+00    1.5358110046e+02
    3.8998479843e+00    1.5358110046e+02
    3.9998228550e+00    1.5358110046e+02
    4.0997977257e+00    1.5358110046e+02
    4.1999850273e+00    1.5358110046e+02
    4.2999601364e+00    1.5358110046e+02
    4.3999352455e+00    1.5358110046e+02
    4.4999098778e+00    1.5358110046e+02
    4.5998849869e+00    1.5358110046e+02
    4.6998600960e+00    1.5358110046e+02
    4.7998347282e+00    1.5358110046e+02
    4.8998098373e+00    1.5358110046e+02
    4.9999966621e+00    1.5358110046e+02
    5.0999712944e+00    1.5358110046e+02
    5.1999464035e+00    1.5358110046e+02
    5.2999210358e+00    1.5358110046e+02
    5.3998961449e+00    1.5358110046e+02
    5.4998707771e+00    1.5358110046e+02
    5.5998454094e+00    1.5358110046e+02
    5.6997985840e+00    1.5358110046e+02
    5.7999858856e+00    1.5358110046e+02
    5.8999605179e+00    1.5358110046e+02
    5.9999356270e+00    1.5358110046e+02
    6.0999102592e+00    1.5358110046e+02
    6.1998848915e+00    1.5358110046e+02
    6.2998595238e+00    1.5358110046e+02
    6.3998341560e+00    1.5358110046e+02
    6.4998087883e+00    1.5358110046e+02
    6.5999956131e+00    1.5358110046e+02
    6.6999702454e+00    1.5358110046e+02
    6.7999448776e+00    1.5358110046e+02
    6.8999190331e+00    1.5358110046e+02
    6.9998936653e+00    1.5358110046e+02
    7.0998682976e+00    1.5358110046e+02
    7.1998429298e+00    1.5358110046e+02
    7.2998170853e+00    1.5358110046e+02
    7.3997917175e+00    1.5358110046e+02
    7.4999785423e+00    1.5358110046e+02
    7.5999526978e+00    1.5358110046e+02
    7.6999273300e+00    1.5358110046e+02
    7.7999014854e+00    1.5358110046e+02
    7.8998756409e+00    1.5358110046e+02
    7.9998502731e+00    1.5358110046e+02
    8.0998239517e+00    1.5358110046e+02
    8.1997985840e+00    1.5358110046e+02
    8.2999849319e+00    1.5358110046e+02
    8.3999595642e+00    1.5358110046e+02
    8.4999332428e+00    1.5358110046e+02
    8.5999078751e+00    1.5358110046e+02
    8.6998815536e+00    1.5358110046e+02
    8.7998561859e+00    1.5358110046e+02
    8.8998298645e+00    1.5358110046e+02
    8.9998035431e+00    1.5358110046e+02
    9.0999898911e+00    1.5358110046e+02
    9.1999645233e+00    1.5358110046e+02
    9.2999382019e+00    1.5358110046e+02
    9.3999118805e+00    1.5358110046e+02
    9.4998865128e+00    1.5358110046e+02
    9.5998601913e+00    1.5358110046e+02
    9.6998338699e+00    1.5358110046e+02
    9.7998075485e+00    1.5358110046e+02
    9.8999938965e+00    1.5358110046e+02
    9.9999675751e+00    1.5358110046e+02
    1.0099941254e+01    1.5358110046e+02
    1.0199914932e+01    1.5358110046e+02
    1.0299888611e+01    1.5358110046e+02
    1.0399862289e+01    1.5358110046e+02
    1.0499835968e+01    1.5358110046e+02
    1.0599795341e+01    1.5358110046e+02
    1.0699897766e+01    1.5358110046e+02
    1.0799871445e+01    1.5358110046e+02
    1.0899845123e+01    1.5358110046e+02
    1.0999818802e+01    1.5358110046e+02
    1.1100004196e+01    1.5358110046e+02
    1.1199977875e+01    1.5358110046e+02
    1.1299950600e+01    1.5358110046e+02
    1.1399925232e+01    1.5358110046e+02
    1.1499897957e+01    1.5358110046e+02
    1.1599975586e+01    1.5358110046e+02
    1.1699950218e+01    1.5358110046e+02
    1.1799922943e+01    1.5358110046e+02
    1.1899895668e+01    1.5358110046e+02
    1.1999869347e+01    1.5358110046e+02
    1.2099843025e+01    1.5358110046e+02
    1.2199815750e+01    1.5358110046e+02
    1.2300001144e+01    1.5358110046e+02
    1.2399973869e+01    1.5358110046e+02
    1.2499946594e+01    1.5358110046e+02
    1.2599920273e+01    1.5358110046e+02
    1.2699892998e+01    1.5358110046e+02
    1.2799865723e+01    1.5358110046e+02
    1.2899839401e+01    1.5358110046e+02
    1.2999812126e+01    1.5358110046e+02
    1.3099996567e+01    1.5358110046e+02
    1.3199970245e+01    1.5358110046e+02
    1.3299942970e+01    1.5358110046e+02
    1.3399915695e+01    1.5358110046e+02
    1.3499888420e+01    1.5358110046e+02
    1.3599861145e+01    1.5358110046e+02
    1.3699832916e+01    1.5358110046e+02
    1.3799805641e+01    1.5358110046e+02
    1.3899991035e+01    1.5358110046e+02
    1.3999962807e+01    1.5358110046e+02
    1.4099935532e+01    1.5358110046e+02
    1.4199908257e+01    1.5358110046e+02
    1.4299880028e+01    1.5358110046e+02
    1.4399852753e+01    1.5358110046e+02
    1.4499824524e+01    1.5358110046e+02
    1.4600008965e+01    1.5358110046e+02
    1.4699981689e+01    1.5358110046e+02
    1.4799954414e+01    1.5358110046e+02
    1.4899926186e+01    1.5358110046e+02
    1.4999897957e+01    1.5358110046e+02
    1.5099869728e+01    1.5358110046e+02
    1.5199842453e+01    1.5358110046e+02
    1.5299814224e+01    1.5358110046e+02
    1.5399997711e+01    1.5358110046e+02
    1.5499968529e+01    1.5358110046e+02
    1.5599941254e+01    1.5358110046e+02
    1.5699913025e+01    1.5358110046e+02
    1.5799883842e+01    1.5358110046e+02
    1.5899855614e+01    1.5358110046e+02
    1.5999828339e+01    1.5358110046e+02
    1.6100011826e+01    1.5358110046e+02
    1.6199983597e+01    1.5358110046e+02
    1.6299953461e+01    1.5358110046e+02
    1.6399925232e+01    1.5358110046e+02
    1.6499897003e+01    1.5358110046e+02
    1.6599868774e+01    1.5358110046e+02
    1.6699838638e+01    1.5358110046e+02
    1.6800022125e+01    1.5358110046e+02
    1.6899993896e+01    1.5358110046e+02
    1.6999963760e+01    1.5358110046e+02
    1.7099935532e+01    1.5358110046e+02
    1.7199905396e+01    1.5358110046e+02
    1.7299877167e+01    1.5358110046e+02
    1.7399848938e+01    1.5358110046e+02
    1.7499818802e+01    1.5358110046e+02
    1.7600000381e+01    1.5358110046e+02
    1.7699972153e+01    1.5358110046e+02
    1.7799942017e+01    1.5358110046e+02
    1.7899913788e+01    1.5358110046e+02
    1.7999883652e+01    1.5358110046e+02
    1.8099853516e+01    1.5358110046e+02
    1.8199823380e+01    1.5358110046e+02
    1.8300006866e+01    1.5358110046e+02
    1.8399976730e+01    1.5358110046e+02
    1.8499946594e+01    1.5358110046e+02
    1.8599916458e+01    1.5358110046e+02
    1.8699886322e+01    1.5358110046e+02
    1.8799860001e+01    1.5358110046e+02
    1.8899982452e+01    1.5358110046e+02
    1.8999921799e+01    1.5358110046e+02
    1.9099847794e+01    1.5358110046e+02
    1.9199861526e+01    1.5358110046e+02
    1.9299932480e+01    1.5358110046e+02
    1.9399908066e+01    1.5358110046e+02
    1.9499937057e+01    1.5358110046e+02
    1.9599939346e+01    1.5358110046e+02
    1.9699874878e+01    1.5358110046e+02
    1.9799932480e+01    1.5358110046e+02
    1.9900016785e+01    1.5358110046e+02
    1.9999877930e+01    1.5358110046e+02
    2.0099882126e+01    1.5358110046e+02
    2.0199951172e+01    1.5358110046e+02
    2.0299837112e+01    1.5358110046e+02
    2.0399921417e+01    1.5358110046e+02
    2.0499912262e+01    1.5358110046e+02
    2.0599981308e+01    1.5358110046e+02
    2.0699920654e+01    1.5358110046e+02
    2.0799818039e+01    1.5358110046e+02
    2.0899955750e+01    1.5358110046e+02
    2.0999841690e+01    1.5358110046e+02
    2.1099861145e+01    1.5358110046e+02
    2.1199935913e+01    1.5358110046e+02
    2.1299966812e+01    1.5358110046e+02
    2.1399850845e+01    1.5358110046e+02
    2.1499963760e+01    1.5358110046e+02
    2.1600006104e+01    1.5358110046e+02
    2.1699911118e+01    1.5358110046e+02
    2.1799932480e+01    1.5358110046e+02
    2.1899858475e+01    1.5358110046e+02
    2.2000003815e+01    1.5358110046e+02
    2.2100008011e+01    1.5358110046e+02
    2.2199977875e+01    1.5358110046e+02
    2.2299985886e+01    1.5358110046e+02
    2.2399873734e+01    1.5358110046e+02
    2.2499895096e+01    1.5358110046e+02
    2.2599882126e+01    1.5358110046e+02
    2.2699956894e+01    1.5358110046e+02
    2.2799926758e+01    1.5358110046e+02
    2.2899843216e+01    1.5358110046e+02
    2.2999893188e+01    1.5358110046e+02
    2.3100025177e+01    1.5358110046e+02
    2.3199930191e+01    1.5358110046e+02
    2.3299982071e+01    1.5358110046e+02
    2.3399963379e+01    1.5358110046e+02
    2.3500003815e+01    1.5358110046e+02
    2.3599962234e+01    1.5358110046e+02
    2.3699974060e+01    1.5358110046e+02
    2.3799974442e+01    1.5358110046e+02
    2.3899995804e+01    1.5358110046e+02
    2.3999912262e+01    1.5358110046e+02
    2.4099966049e+01    1.5358110046e+02
    2.4200002670e+01    1.5358110046e+02
    2.4299907684e+01    1.5358110046e+02
    2.4400051117e+01    1.5358110046e+02
    2.4500036240e+01    1.5358110046e+02
    2.4599899292e+01    1.5358110046e+02
    2.4699941635e+01    1.5358110046e+02
    2.4799968719e+01    1.5358110046e+02
    2.4899950027e+01    1.5358110046e+02
    2.5000015259e+01    1.5358110046e+02
    2.5100030899e+01    1.5358110046e+02
    2.5200025558e+01    1.5358110046e+02
    2.5299892426e+01    1.5358110046e+02
    2.5400012970e+01    1.5358110046e+02
    2.5500013351e+01    1.5358110046e+02
    2.5600028992e+01    1.5358110046e+02
    2.5699935913e+01    1.5358110046e+02
    2.5799974442e+01    1.5358110046e+02
    2.5899896622e+01    1.5358110046e+02
    2.5999944687e+01    1.5358110046e+02
    2.6100053787e+01    1.5358110046e+02
    2.6199918747e+01    1.5358110046e+02
    2.6299961090e+01    1.5358110046e+02
    2.6399984360e+01    1.5358009338e+02
    2.6500011444e+01    1.5358009338e+02
    2.6599903107e+01    1.5358009338e+02
    2.6699920654e+01    1.5358009338e+02
    2.6799888611e+01    1.5358009338e+02
    2.6899900436e+01    1.5358009338e+02
    2.6999967575e+01    1.5358009338e+02
    2.7099941254e+01    1.5358009338e+02
    2.7200010300e+01    1.5358009338e+02
    2.7299930573e+01    1.5358009338e+02
    2.7399984360e+01    1.5358009338e+02
    2.7500015259e+01    1.5358009338e+02
    2.7599964142e+01    1.5358009338e+02
    2.7700046539e+01    1.5358009338e+02
    2.7799875259e+01    1.5358009338e+02
    2.7900022507e+01    1.5358009338e+02
    2.7999933243e+01    1.5358009338e+02
    2.8100065231e+01    1.5358009338e+02
    2.8199972153e+01    1.5357910156e+02
    2.8299861908e+01    1.5357910156e+02
    2.8400003433e+01    1.5357910156e+02
    2.8499872208e+01    1.5357910156e+02
    2.8600063324e+01    1.5357910156e+02
    2.8699998856e+01    1.5357910156e+02
    2.8799924850e+01    1.5357910156e+02
    2.8900035858e+01    1.5357910156e+02
    2.8999906540e+01    1.5357910156e+02
    2.9100017548e+01    1.5357910156e+02
    2.9200069427e+01    1.5357910156e+02
    2.9300062180e+01    1.5357910156e+02
    2.9399963379e+01    1.5357910156e+02
    2.9500032425e+01    1.5357809448e+02
    2.9599891663e+01    1.5357809448e+02
    2.9699974060e+01    1.5357809448e+02
    2.9799875259e+01    1.5357809448e+02
    2.9899946213e+01    1.5357809448e+02
    2.9999992371e+01    1.5357809448e+02
    3.0099983215e+01    1.5357809448e+02
    3.0199962616e+01    1.5357809448e+02
    3.0299926758e+01    1.5357809448e+02
    3.0399997711e+01    1.5357809448e+02
    3.0499897003e+01    1.5357809448e+02
    3.0599901199e+01    1.5357809448e+02
    3.0700002670e+01    1.5357710266e+02
    3.0799953461e+01    1.5357710266e+02
    3.0899894714e+01    1.5357710266e+02
    3.1000043869e+01    1.5357710266e+02
    3.1099905014e+01    1.5357710266e+02
    3.1200031281e+01    1.5357710266e+02
    3.1299888611e+01    1.5357710266e+02
    3.1399988174e+01    1.5357710266e+02
    3.1499889374e+01    1.5357710266e+02
    3.1600053787e+01    1.5357710266e+02
    3.1699911118e+01    1.5357609558e+02
    3.1799966812e+01    1.5357609558e+02
    3.1900043488e+01    1.5357609558e+02
    3.1999923706e+01    1.5357609558e+02
    3.2100063324e+01    1.5357609558e+02
    3.2200073242e+01    1.5357609558e+02
    3.2299957275e+01    1.5357609558e+02
    3.2399871826e+01    1.5357609558e+02
    3.2499862671e+01    1.5357609558e+02
    3.2600044250e+01    1.5357609558e+02
    3.2699985504e+01    1.5357510376e+02
    3.2799953461e+01    1.5357510376e+02
    3.2900001526e+01    1.5357510376e+02
    3.2999904633e+01    1.5357510376e+02
    3.3099910736e+01    1.5357510376e+02
    3.3199932098e+01    1.5357510376e+02
    3.3300006866e+01    1.5357510376e+02
    3.3399974823e+01    1.5357510376e+02
    3.3499946594e+01    1.5357510376e+02
    3.3600032806e+01    1.5357409668e+02
    3.3699996948e+01    1.5357409668e+02
    3.3800045013e+01    1.5357409668e+02
    3.3899894714e+01    1.5357409668e+02
    3.3999931335e+01    1.5357409668e+02
    3.4099918365e+01    1.5357409668e+02
    3.4199966431e+01    1.5357409668e+02
    3.4300029755e+01    1.5357409668e+02
    3.4399837494e+01    1.5357409668e+02
    3.4499874115e+01    1.5357310486e+02
    3.4599956512e+01    1.5357310486e+02
    3.4699874878e+01    1.5357310486e+02
    3.4799869537e+01    1.5357310486e+02
    3.4899917603e+01    1.5357310486e+02
    3.4999900818e+01    1.5357310486e+02
    3.5099830627e+01    1.5357310486e+02
    3.5199874878e+01    1.5357310486e+02
    3.5299835205e+01    1.5357310486e+02
    3.5400005341e+01    1.5357310486e+02
    3.5499958038e+01    1.5357209778e+02
    3.5600021362e+01    1.5357209778e+02
    3.5699913025e+01    1.5357209778e+02
    3.5799842834e+01    1.5357209778e+02
    3.5899971008e+01    1.5357209778e+02
    3.6000003815e+01    1.5357209778e+02
    3.6099884033e+01    1.5357209778e+02
    3.6200000763e+01    1.5357209778e+02
    3.6299804688e+01    1.5357209778e+02
    3.6399990082e+01    1.5357110596e+02
    3.6499923706e+01    1.5357110596e+02
    3.6599800110e+01    1.5357110596e+02
    3.6699954987e+01    1.5357110596e+02
    3.6799804688e+01    1.5357110596e+02
    3.6899791718e+01    1.5357110596e+02
    3.6999794006e+01    1.5357110596e+02
    3.7099948883e+01    1.5357110596e+02
    3.7199974060e+01    1.5357110596e+02
    3.7299896240e+01    1.5357110596e+02
    3.7399974823e+01    1.5357110596e+02
    3.7499980927e+01    1.5357009888e+02
    3.7599910736e+01    1.5357009888e+02
    3.7699966431e+01    1.5357009888e+02
    3.7799819946e+01    1.5357009888e+02
    3.7899925232e+01    1.5357009888e+02
    3.7999942780e+01    1.5357009888e+02
    3.8099895477e+01    1.5357009888e+02
    3.8199897766e+01    1.5357009888e+02
    3.8299911499e+01    1.5357009888e+02
    3.8399963379e+01    1.5357009888e+02
    3.8499767303e+01    1.5357009888e+02
    3.8599807739e+01    1.5356910706e+02
    3.8699954987e+01    1.5356910706e+02
    3.8799797058e+01    1.5356910706e+02
    3.8899940491e+01    1.5356910706e+02
    3.8999851227e+01    1.5356910706e+02
    3.9099842072e+01    1.5356910706e+02
    3.9199882507e+01    1.5356910706e+02
    3.9299961090e+01    1.5356910706e+02
    3.9399768829e+01    1.5356910706e+02
    3.9499763489e+01    1.5356910706e+02
    3.9599910736e+01    1.5356910706e+02
    3.9699913025e+01    1.5356910706e+02
    3.9799816132e+01    1.5356809998e+02
    3.9899791718e+01    1.5356809998e+02
    3.9999835968e+01    1.5356809998e+02
    4.0099945068e+01    1.5356809998e+02
    4.0199871063e+01    1.5356809998e+02
    4.0299938202e+01    1.5356809998e+02
    4.0399822235e+01    1.5356809998e+02
    4.0499881744e+01    1.5356809998e+02
    4.0599781036e+01    1.5356809998e+02
    4.0699756622e+01    1.5356809998e+02
    4.0799781799e+01    1.5356809998e+02
    4.0899829865e+01    1.5356809998e+02
    4.0999740601e+01    1.5356809998e+02
    4.1099838257e+01    1.5356709290e+02
    4.1199802399e+01    1.5356709290e+02
    4.1299755096e+01    1.5356709290e+02
    4.1399837494e+01    1.5356709290e+02
    4.1499774933e+01    1.5356709290e+02
    4.1599872589e+01    1.5356709290e+02
    4.1699718475e+01    1.5356709290e+02
    4.1799816132e+01    1.5356709290e+02
    4.1899742126e+01    1.5356709290e+02
    4.1999904633e+01    1.5356709290e+02
    4.2099842072e+01    1.5356709290e+02
    4.2199825287e+01    1.5356709290e+02
    4.2299835205e+01    1.5356709290e+02
    4.2399879456e+01    1.5356709290e+02
    4.2499774933e+01    1.5356610107e+02
    4.2599704742e+01    1.5356610107e+02
    4.2699913025e+01    1.5356610107e+02
    4.2799839020e+01    1.5356610107e+02
    4.2899833679e+01    1.5356610107e+02
    4.2999885559e+01    1.5356610107e+02
    4.3099773407e+01    1.5356610107e+02
    4.3199748993e+01    1.5356610107e+02
    4.3299743652e+01    1.5356610107e+02
    4.3399879456e+01    1.5356610107e+02
    4.3499835968e+01    1.5356610107e+02
    4.3599803925e+01    1.5356610107e+02
    4.3699695587e+01    1.5356610107e+02
    4.3799701691e+01    1.5356610107e+02
    4.3899723053e+01    1.5356509399e+02
    4.3999732971e+01    1.5356509399e+02
    4.4099876404e+01    1.5356509399e+02
    4.4199844360e+01    1.5356509399e+02
    4.4299777985e+01    1.5356509399e+02
    4.4399734497e+01    1.5356509399e+02
    4.4499889374e+01    1.5356509399e+02
    4.4599807739e+01    1.5356509399e+02
    4.4699699402e+01    1.5356509399e+02
    4.4799858093e+01    1.5356509399e+02
    4.4899803162e+01    1.5356509399e+02
    4.4999828339e+01    1.5356509399e+02
    4.5099811554e+01    1.5356509399e+02
    4.5199729919e+01    1.5356509399e+02
    4.5299667358e+01    1.5356410217e+02
    4.5399749756e+01    1.5356410217e+02
    4.5499774933e+01    1.5356410217e+02
    4.5599723816e+01    1.5356410217e+02
    4.5699855804e+01    1.5356410217e+02
    4.5799667358e+01    1.5356410217e+02
    4.5899818420e+01    1.5356410217e+02
    4.5999832153e+01    1.5356410217e+02
    4.6099754333e+01    1.5356410217e+02
    4.6199783325e+01    1.5356410217e+02
    4.6299861908e+01    1.5356410217e+02
    4.6399650574e+01    1.5356309509e+02
    4.6499824524e+01    1.5356309509e+02
    4.6599704742e+01    1.5356309509e+02
    4.6699783325e+01    1.5356309509e+02
    4.6799839020e+01    1.5356309509e+02
    4.6899841309e+01    1.5356309509e+02
    4.6999698639e+01    1.5356309509e+02
    4.7099700928e+01    1.5356309509e+02
    4.7199756622e+01    1.5356309509e+02
    4.7299652100e+01    1.5356309509e+02
    4.7399646759e+01    1.5356210327e+02
    4.7499797821e+01    1.5356210327e+02
    4.7599746704e+01    1.5356210327e+02
    4.7699787140e+01    1.5356210327e+02
    4.7799633026e+01    1.5356210327e+02
    4.7899799347e+01    1.5356210327e+02
    4.7999805450e+01    1.5356210327e+02
    4.8099681854e+01    1.5356210327e+02
    4.8199817657e+01    1.5356109619e+02
    4.8299812317e+01    1.5356109619e+02
    4.8399658203e+01    1.5356109619e+02
    4.8499641418e+01    1.5356109619e+02
    4.8599765778e+01    1.5356109619e+02
    4.8699718475e+01    1.5356109619e+02
    4.8799625397e+01    1.5356109619e+02
    4.8899742126e+01    1.5356109619e+02
    4.8999790192e+01    1.5356010437e+02
    4.9099773407e+01    1.5356010437e+02
    4.9199623108e+01    1.5356010437e+02
    4.9299736023e+01    1.5356010437e+02
    4.9399692535e+01    1.5356010437e+02
    4.9499595642e+01    1.5356010437e+02
    4.9599739075e+01    1.5355909729e+02
    4.9699798584e+01    1.5355909729e+02
    4.9799770355e+01    1.5355909729e+02
    4.9899597168e+01    1.5355909729e+02
    4.9999599457e+01    1.5355909729e+02
    5.0099624634e+01    1.5355909729e+02
    5.0199584961e+01    1.5355810547e+02
    5.0299610138e+01    1.5355810547e+02
    5.0399639130e+01    1.5355810547e+02
    5.0499629974e+01    1.5355810547e+02
    5.0599620819e+01    1.5355810547e+02
    5.0699581146e+01    1.5355709839e+02
    5.0799674988e+01    1.5355709839e+02
    5.0899761200e+01    1.5355709839e+02
    5.0999740601e+01    1.5355709839e+02
    5.1099773407e+01    1.5355610657e+02
    5.1199710846e+01    1.5355610657e+02
    5.1299705505e+01    1.5355610657e+02
    5.1399581909e+01    1.5355610657e+02
    5.1499652863e+01    1.5355610657e+02
    5.1599586487e+01    1.5355509949e+02
    5.1699607849e+01    1.5355509949e+02
    5.1799575806e+01    1.5355509949e+02
    5.1899681091e+01    1.5355509949e+02
    5.1999664307e+01    1.5355410767e+02
    5.2099586487e+01    1.5355410767e+02
    5.2199668884e+01    1.5355410767e+02
    5.2299751282e+01    1.5355410767e+02
    5.2399658203e+01    1.5355310059e+02
    5.2499614716e+01    1.5355310059e+02
    5.2599670410e+01    1.5355310059e+02
    5.2699745178e+01    1.5355209351e+02
    5.2799739838e+01    1.5355209351e+02
    5.2899574280e+01    1.5355209351e+02
    5.2999759674e+01    1.5355110168e+02
    5.3099597931e+01    1.5355110168e+02
    5.3199596405e+01    1.5355110168e+02
    5.3299678802e+01    1.5355110168e+02
    5.3399662018e+01    1.5355009460e+02
    5.3499694824e+01    1.5355009460e+02
    5.3599693298e+01    1.5355009460e+02
    5.3699710846e+01    1.5354910278e+02
    5.3799610138e+01    1.5354910278e+02
    5.3899742126e+01    1.5354809570e+02
    5.3999538422e+01    1.5354809570e+02
    5.4099628448e+01    1.5354809570e+02
    5.4199584961e+01    1.5354710388e+02
    5.4299713135e+01    1.5354710388e+02
    5.4399524689e+01    1.5354710388e+02
    5.4499572754e+01    1.5354609680e+02
    5.4599536896e+01    1.5354609680e+02
    5.4699707031e+01    1.5354510498e+02
    5.4799533844e+01    1.5354510498e+02
    5.4899566650e+01    1.5354510498e+02
    5.4999675751e+01    1.5354409790e+02
    5.5099712372e+01    1.5354409790e+02
    5.5199615479e+01    1.5354310608e+02
    5.5299690247e+01    1.5354310608e+02
    5.5399623871e+01    1.5354209900e+02
    5.5499584198e+01    1.5354209900e+02
    5.5599529266e+01    1.5354209900e+02
    5.5699707031e+01    1.5354110718e+02
    5.5799671173e+01    1.5354110718e+02
    5.5899665833e+01    1.5354010010e+02
    5.5999511719e+01    1.5354010010e+02
    5.6099651337e+01    1.5353909302e+02
    5.6199676514e+01    1.5353909302e+02
    5.6299499512e+01    1.5353810120e+02
    5.6399646759e+01    1.5353810120e+02
    5.6499698639e+01    1.5353709412e+02
    5.6599533081e+01    1.5353610229e+02
    5.6699642181e+01    1.5353610229e+02
    5.6799556732e+01    1.5353509521e+02
    5.6899665833e+01    1.5353509521e+02
    5.6999649048e+01    1.5353410339e+02
    5.7099594116e+01    1.5353410339e+02
    5.7199661255e+01    1.5353309631e+02
    5.7299690247e+01    1.5353210449e+02
    5.7399482727e+01    1.5353210449e+02
    5.7499691010e+01    1.5353109741e+02
    5.7599643707e+01    1.5353109741e+02
    5.7699478149e+01    1.5353010559e+02
    5.7799476624e+01    1.5352909851e+02
    5.7899639130e+01    1.5352909851e+02
    5.7999538422e+01    1.5352810669e+02
    5.8099475861e+01    1.5352709961e+02
    5.8199481964e+01    1.5352709961e+02
    5.8299633026e+01    1.5352610779e+02
    5.8399494171e+01    1.5352510071e+02
    5.8499668121e+01    1.5352409363e+02
    5.8599628448e+01    1.5352409363e+02
    5.8699581146e+01    1.5352310181e+02
    5.8799571991e+01    1.5352209473e+02
    5.8899463654e+01    1.5352110291e+02
    5.8999515533e+01    1.5352110291e+02
    5.9099571228e+01    1.5352009583e+02
    5.9199573517e+01    1.5351910400e+02
    5.9299480438e+01    1.5351809692e+02
    5.9399658203e+01    1.5351710510e+02
    5.9499645233e+01    1.5351710510e+02
    5.9599456787e+01    1.5351609802e+02
    5.9699611664e+01    1.5351510620e+02
    5.9799549103e+01    1.5351409912e+02
    5.9899559021e+01    1.5351310730e+02
    5.9999515533e+01    1.5351210022e+02
    6.0099472046e+01    1.5351109314e+02
    6.0199645996e+01    1.5351010132e+02
    6.0299472809e+01    1.5350909424e+02
    6.0399547577e+01    1.5350810242e+02
    6.0499538422e+01    1.5350709534e+02
    6.0599472046e+01    1.5350610352e+02
    6.0699539185e+01    1.5350509644e+02
    6.0799533844e+01    1.5350410461e+02
    6.0899578094e+01    1.5350309753e+02
    6.0999454498e+01    1.5350210571e+02
    6.1099441528e+01    1.5350109863e+02
    6.1199558258e+01    1.5350010681e+02
    6.1299545288e+01    1.5349909973e+02
    6.1399433136e+01    1.5349810791e+02
    6.1499443054e+01    1.5349710083e+02
    6.1599521637e+01    1.5349609375e+02
    6.1699550629e+01    1.5349510193e+02
    6.1799461365e+01    1.5349409485e+02
    6.1899429321e+01    1.5349209595e+02
    6.1999427795e+01    1.5349110413e+02
    6.2099529266e+01    1.5349009705e+02
    6.2199504852e+01    1.5348910522e+02
    6.2299537659e+01    1.5348809814e+02
    6.2399612427e+01    1.5348609924e+02
    6.2499465942e+01    1.5348510742e+02
    6.2599575043e+01    1.5348410034e+02
    6.2699554443e+01    1.5348210144e+02
    6.2799522400e+01    1.5348109436e+02
    6.2899440765e+01    1.5348010254e+02
    6.2999534607e+01    1.5347810364e+02
    6.3099430084e+01    1.5347709656e+02
    6.3199581146e+01    1.5347610474e+02
    6.3299514771e+01    1.5347410583e+02
    6.3399593353e+01    1.5347309875e+02
    6.3499477386e+01    1.5347109985e+02
    6.3599445343e+01    1.5347010803e+02
    6.3699596405e+01    1.5346809387e+02
    6.3799568176e+01    1.5346710205e+02
    6.3899570465e+01    1.5346510315e+02
    6.3999485016e+01    1.5346409607e+02
    6.4099586487e+01    1.5346209717e+02
    6.4199386597e+01    1.5346110535e+02
    6.4299415588e+01    1.5345910645e+02
    6.4399436951e+01    1.5345710754e+02
    6.4499458313e+01    1.5345610046e+02
    6.4599456787e+01    1.5345410156e+02
    6.4699554443e+01    1.5345210266e+02
    6.4799453735e+01    1.5345109558e+02
    6.4899398804e+01    1.5344909668e+02
    6.4999519348e+01    1.5344709778e+02
    6.5099487305e+01    1.5344509888e+02
    6.5199470520e+01    1.5344410706e+02
    6.5299530029e+01    1.5344209290e+02
    6.5399520874e+01    1.5344009399e+02
    6.5499435425e+01    1.5343809509e+02
    6.5599365234e+01    1.5343609619e+02
    6.5699394226e+01    1.5343409729e+02
    6.5799545288e+01    1.5343209839e+02
    6.5899345398e+01    1.5343009949e+02
    6.5999458313e+01    1.5342810059e+02
    6.6099472046e+01    1.5342610168e+02
    6.6199348450e+01    1.5342410278e+02
    6.6299530029e+01    1.5342210388e+02
    6.6399383545e+01    1.5342010498e+02
    6.6499496460e+01    1.5341810608e+02
    6.6599403381e+01    1.5341610718e+02
    6.6699417114e+01    1.5341409302e+02
    6.6799354553e+01    1.5341209412e+02
    6.6899368286e+01    1.5341009521e+02
    6.6999542236e+01    1.5340710449e+02
    6.7099487305e+01    1.5340510559e+02
    6.7199432373e+01    1.5340310669e+02
    6.7299446106e+01    1.5340110779e+02
    6.7399452209e+01    1.5339810181e+02
    6.7499458313e+01    1.5339610291e+02
    6.7599464417e+01    1.5339410400e+02
    6.7699356079e+01    1.5339109802e+02
    6.7799354553e+01    1.5338909912e+02
    6.7899360657e+01    1.5338710022e+02
    6.7999404907e+01    1.5338409424e+02
    6.8099357605e+01    1.5338209534e+02
    6.8199378967e+01    1.5337910461e+02
    6.8299308777e+01    1.5337710571e+02
    6.8399345398e+01    1.5337409973e+02
    6.8499496460e+01    1.5337109375e+02
    6.8599349976e+01    1.5336909485e+02
    6.8699325562e+01    1.5336610413e+02
    6.8799369812e+01    1.5336410522e+02
    6.8899475098e+01    1.5336109924e+02
    6.8999359131e+01    1.5335809326e+02
    6.9099472046e+01    1.5335510254e+02
    6.9199401855e+01    1.5335310364e+02
    6.9299430847e+01    1.5335009766e+02
    6.9399360657e+01    1.5334710693e+02
    6.9499496460e+01    1.5334410095e+02
    6.9599304199e+01    1.5334109497e+02
    6.9699333191e+01    1.5333909607e+02
    6.9799316406e+01    1.5333610535e+02
    6.9899330139e+01    1.5333309937e+02
    6.9999465942e+01    1.5333009338e+02
    7.0099487305e+01    1.5332710266e+02
    7.0199317932e+01    1.5332409668e+02
    7.0299285889e+01    1.5332110596e+02
    7.0399345398e+01    1.5331709290e+02
    7.0499298096e+01    1.5331410217e+02
    7.0599441528e+01    1.5331109619e+02
    7.0699348450e+01    1.5330810547e+02
    7.0799484253e+01    1.5330509949e+02
    7.0899459839e+01    1.5330110168e+02
    7.0999450684e+01    1.5329809570e+02
    7.1099464417e+01    1.5329510498e+02
    7.1199394226e+01    1.5329110718e+02
    7.1299369812e+01    1.5328810120e+02
    7.1399414062e+01    1.5328509521e+02
    7.1499336243e+01    1.5328109741e+02
    7.1599441528e+01    1.5327810669e+02
    7.1699409485e+01    1.5327409363e+02
    7.1799400330e+01    1.5327110291e+02
    7.1899375916e+01    1.5326710510e+02
    7.1999336243e+01    1.5326310730e+02
    7.2099349976e+01    1.5326010132e+02
    7.2199386597e+01    1.5325610352e+02
    7.2299278259e+01    1.5325210571e+02
    7.2399429321e+01    1.5324810791e+02
    7.2499458313e+01    1.5324409485e+02
    7.2599456787e+01    1.5324009705e+02
    7.2699409485e+01    1.5323710632e+02
    7.2799377441e+01    1.5323309326e+02
    7.2899307251e+01    1.5322909546e+02
    7.2999351501e+01    1.5322410583e+02
    7.3099273682e+01    1.5322010803e+02
    7.3199394226e+01    1.5321609497e+02
    7.3299240112e+01    1.5321209717e+02
    7.3399276733e+01    1.5320809937e+02
    7.3499435425e+01    1.5320309448e+02
    7.3599433899e+01    1.5319909668e+02
    7.3699264526e+01    1.5319509888e+02
    7.3799270630e+01    1.5319009399e+02
    7.3899246216e+01    1.5318609619e+02
    7.3999343872e+01    1.5318110657e+02
    7.4099357605e+01    1.5317610168e+02
    7.4199432373e+01    1.5317210388e+02
    7.4299316406e+01    1.5316709900e+02
    7.4399261475e+01    1.5316209412e+02
    7.4499305725e+01    1.5315710449e+02
    7.4599372864e+01    1.5315209961e+02
    7.4699401855e+01    1.5314709473e+02
    7.4799400330e+01    1.5314210510e+02
    7.4899299622e+01    1.5313710022e+02
    7.4999382019e+01    1.5313209534e+02
    7.5099365234e+01    1.5312609863e+02
    7.5199386597e+01    1.5312109375e+02
    7.5299278259e+01    1.5311610413e+02
    7.5399383545e+01    1.5311010742e+02
    7.5499267578e+01    1.5310510254e+02
    7.5599250793e+01    1.5309910583e+02
    7.5699333191e+01    1.5309309387e+02
    7.5799209595e+01    1.5308709717e+02
    7.5899337769e+01    1.5308210754e+02
    7.5999252319e+01    1.5307609558e+02
    7.6099235535e+01    1.5307009888e+02
    7.6199272156e+01    1.5306309509e+02
    7.6299331665e+01    1.5305709839e+02
    7.6399200439e+01    1.5305110168e+02
    7.6499351501e+01    1.5304510498e+02
    7.6599266052e+01    1.5303810120e+02
    7.6699295044e+01    1.5303109741e+02
    7.6799201965e+01    1.5302510071e+02
    7.6899345398e+01    1.5301809692e+02
    7.6999183655e+01    1.5301109314e+02
    7.7099258423e+01    1.5300410461e+02
    7.7199363708e+01    1.5299710083e+02
    7.7299301147e+01    1.5299009705e+02
    7.7399307251e+01    1.5298309326e+02
    7.7499191284e+01    1.5297509766e+02
    7.7599342346e+01    1.5296809387e+02
    7.7699264526e+01    1.5296009827e+02
    7.7799285889e+01    1.5295210266e+02
    7.7899353027e+01    1.5294410706e+02
    7.7999214172e+01    1.5293609619e+02
    7.8099174500e+01    1.5292810059e+02
    7.8199340820e+01    1.5292010498e+02
    7.8299301147e+01    1.5291209412e+02
    7.8399177551e+01    1.5290310669e+02
    7.8499176025e+01    1.5289509583e+02
    7.8599342346e+01    1.5288609314e+02
    7.8699203491e+01    1.5287710571e+02
    7.8799194336e+01    1.5286810303e+02
    7.8899276733e+01    1.5285910034e+02
    7.8999343872e+01    1.5284910583e+02
    7.9099166870e+01    1.5284010315e+02
    7.9199287415e+01    1.5283009338e+02
    7.9299293518e+01    1.5282110596e+02
    7.9399345398e+01    1.5281109619e+02
    7.9499282837e+01    1.5280110168e+02
    7.9599197388e+01    1.5279010010e+02
    7.9699226379e+01    1.5278010559e+02
    7.9799354553e+01    1.5276910400e+02
    7.9899230957e+01    1.5275909424e+02
    7.9999191284e+01    1.5274810791e+02
    8.0099227905e+01    1.5273710632e+02
    8.0199317932e+01    1.5272509766e+02
    8.0299148560e+01    1.5271409607e+02
    8.0399208069e+01    1.5270210266e+02
    8.0499275208e+01    1.5269009399e+02
    8.0599243164e+01    1.5267810059e+02
    8.0699119568e+01    1.5266610718e+02
    8.0799316406e+01    1.5265409851e+02
    8.0899208069e+01    1.5264109802e+02
    8.0999114990e+01    1.5262809753e+02
    8.1099296570e+01    1.5261509705e+02
    8.1199241638e+01    1.5260209656e+02
    8.1299171448e+01    1.5258909607e+02
    8.1399177551e+01    1.5257510376e+02
    8.1499137878e+01    1.5256109619e+02
    8.1599197388e+01    1.5254710388e+02
    8.1699142456e+01    1.5253210449e+02
    8.1799102783e+01    1.5251809692e+02
    8.1899139404e+01    1.5250309753e+02
    8.1999313354e+01    1.5248809814e+02
    8.2099189758e+01    1.5247309875e+02
    8.2199203491e+01    1.5245710754e+02
    8.2299255371e+01    1.5244110107e+02
    8.2399253845e+01    1.5242509460e+02
    8.2499122620e+01    1.5240910339e+02
    8.2599266052e+01    1.5239210510e+02
    8.2699180603e+01    1.5237510681e+02
    8.2799163818e+01    1.5235809326e+02
    8.2899261475e+01    1.5234010315e+02
    8.2999153137e+01    1.5232310486e+02
    8.3099098206e+01    1.5230509949e+02
    8.3199249268e+01    1.5228610229e+02
    8.3299263000e+01    1.5226809692e+02
    8.3399093628e+01    1.5224909973e+02
    8.3499191284e+01    1.5223010254e+02
    8.3599205017e+01    1.5221009827e+02
    8.3699211121e+01    1.5219009399e+02
    8.3799079895e+01    1.5217010498e+02
    8.3899215698e+01    1.5214909363e+02
    8.3999168396e+01    1.5212910461e+02
    8.4099243164e+01    1.5210710144e+02
    8.4199241638e+01    1.5208610535e+02
    8.4299194336e+01    1.5206410217e+02
    8.4399253845e+01    1.5204209900e+02
    8.4499092102e+01    1.5201910400e+02
    8.4599136353e+01    1.5199609375e+02
    8.4699234009e+01    1.5197309875e+02
    8.4799156189e+01    1.5194909668e+02
    8.4899276733e+01    1.5192509460e+02
    8.4999069214e+01    1.5190110779e+02
    8.5099235535e+01    1.5187609863e+02
    8.5199111938e+01    1.5185110474e+02
    8.5299194336e+01    1.5182510376e+02
    8.5399131775e+01    1.5179910278e+02
    8.5499122620e+01    1.5177209473e+02
    8.5599052429e+01    1.5174609375e+02
    8.5699058533e+01    1.5171809387e+02
    8.5799240112e+01    1.5169009399e+02
    8.5899185181e+01    1.5166209412e+02
    8.5999130249e+01    1.5163409424e+02
    8.6099258423e+01    1.5160510254e+02
    8.6199043274e+01    1.5157510376e+02
    8.6299125671e+01    1.5154510498e+02
    8.6399055481e+01    1.5151510620e+02
    8.6499214172e+01    1.5148410034e+02
    8.6599113464e+01    1.5145210266e+02
    8.6699043274e+01    1.5142010498e+02
    8.6799201965e+01    1.5138810730e+02
    8.6899085999e+01    1.5135510254e+02
    8.6999206543e+01    1.5132209778e+02
    8.7099227905e+01    1.5128810120e+02
    8.7199188232e+01    1.5125309753e+02
    8.7299232483e+01    1.5121809387e+02
    8.7399131775e+01    1.5118310547e+02
    8.7499122620e+01    1.5114709473e+02
    8.7599029541e+01    1.5111010742e+02
    8.7699211121e+01    1.5107310486e+02
    8.7799034119e+01    1.5103509521e+02
    8.7899032593e+01    1.5099710083e+02
    8.7999076843e+01    1.5095809937e+02
    8.8099082947e+01    1.5091909790e+02
    8.8199005127e+01    1.5087910461e+02
    8.8299125671e+01    1.5083810425e+02
    8.8399070740e+01    1.5079710388e+02
    8.8499145508e+01    1.5075509644e+02
    8.8599159241e+01    1.5071310425e+02
    8.8699073792e+01    1.5067010498e+02
    8.8799201965e+01    1.5062609863e+02
    8.8898986816e+01    1.5058210754e+02
    8.8999153137e+01    1.5053610229e+02
    8.9099166870e+01    1.5049110413e+02
    8.9199020386e+01    1.5044509888e+02
    8.9299026489e+01    1.5039709473e+02
    8.9399024963e+01    1.5035009766e+02
    8.9499038696e+01    1.5030110168e+02
    8.9599029541e+01    1.5025210571e+02
    8.9699203491e+01    1.5020210266e+02
    8.9799087524e+01    1.5015209961e+02
    8.9899192810e+01    1.5010110474e+02
    8.9999000549e+01    1.5004910278e+02
    9.0099113464e+01    1.4999609375e+02
    9.0198974609e+01    1.4994309998e+02
    9.0299163818e+01    1.4988909912e+02
    9.0399162292e+01    1.4983410645e+02
    9.0499183655e+01    1.4977810669e+02
    9.0598991394e+01    1.4972210693e+02
    9.0698966980e+01    1.4966409302e+02
    9.0799133301e+01    1.4960609436e+02
    9.0899055481e+01    1.4954809570e+02
    9.0998985291e+01    1.4948809814e+02
    9.1099021912e+01    1.4942810059e+02
    9.1199172974e+01    1.4936610413e+02
    9.1299118042e+01    1.4930410767e+02
    9.1399101257e+01    1.4924110413e+02
    9.1498985291e+01    1.4917810059e+02
    9.1599105835e+01    1.4911309814e+02
    9.1698966980e+01    1.4904809570e+02
    9.1799041748e+01    1.4898109436e+02
    9.1899147034e+01    1.4891409302e+02
    9.1999084473e+01    1.4884609985e+02
    9.2099006653e+01    1.4877709961e+02
    9.2198959351e+01    1.4870710754e+02
    9.2299064636e+01    1.4863609314e+02
    9.2399154663e+01    1.4856509399e+02
    9.2498962402e+01    1.4849209595e+02
    9.2599021912e+01    1.4841909790e+02
    9.2698936462e+01    1.4834510803e+02
    9.2798980713e+01    1.4826910400e+02
    9.2898994446e+01    1.4819309998e+02
    9.2999015808e+01    1.4811610413e+02
    9.3099044800e+01    1.4803810120e+02
    9.3198944092e+01    1.4795910645e+02
    9.3298957825e+01    1.4787910461e+02
    9.3398986816e+01    1.4779809570e+02
    9.3499076843e+01    1.4771510315e+02
    9.3598999023e+01    1.4763310242e+02
    9.3698936462e+01    1.4754910278e+02
    9.3799026489e+01    1.4746409607e+02
    9.3898925781e+01    1.4737809753e+02
    9.3999122620e+01    1.4729110718e+02
    9.4099044800e+01    1.4720309448e+02
    9.4199050903e+01    1.4711410522e+02
    9.4299087524e+01    1.4702409363e+02
    9.4399070740e+01    1.4693310547e+02
    9.4499069214e+01    1.4684109497e+02
    9.4599037170e+01    1.4674810791e+02
    9.4698905945e+01    1.4665409851e+02
    9.4799102783e+01    1.4655909729e+02
    9.4899085999e+01    1.4646310425e+02
    9.4999023438e+01    1.4636610413e+02
    9.5098953247e+01    1.4626809692e+02
    9.5199043274e+01    1.4616909790e+02
    9.5299026489e+01    1.4606809998e+02
    9.5398963928e+01    1.4596710205e+02
    9.5499084473e+01    1.4586509705e+02
    9.5598892212e+01    1.4576210022e+02
    9.5699035645e+01    1.4565710449e+02
    9.5798973083e+01    1.4555209351e+02
    9.5898971558e+01    1.4544509888e+02
    9.5998939514e+01    1.4533810425e+02
    9.6098960876e+01    1.4522909546e+02
    9.6198982239e+01    1.4511911011e+02
    9.6299026489e+01    1.4500909424e+02
    9.6399047852e+01    1.4489709473e+02
    9.6498878479e+01    1.4478410339e+02
    9.6598922729e+01    1.4467010498e+02
    9.6698913574e+01    1.4455609131e+02
    9.6799018860e+01    1.4444009399e+02
    9.6898948669e+01    1.4432308960e+02
    9.6999015808e+01    1.4420510864e+02
    9.7098991394e+01    1.4408609009e+02
    9.7199058533e+01    1.4396609497e+02
    9.7298866272e+01    1.4384509277e+02
    9.7399047852e+01    1.4372309875e+02
    9.7498893738e+01    1.4360009766e+02
    9.7598983765e+01    1.4347610474e+02
    9.7699005127e+01    1.4335009766e+02
    9.7798965454e+01    1.4322409058e+02
    9.7898925781e+01    1.4309710693e+02
    9.7998939514e+01    1.4296910095e+02
    9.8098861694e+01    1.4284010315e+02
    9.8198860168e+01    1.4271009827e+02
    9.8298942566e+01    1.4257910156e+02
    9.8399040222e+01    1.4244709778e+02
    9.8499023438e+01    1.4231410217e+02
    9.8599021912e+01    1.4218109131e+02
    9.8698982239e+01    1.4204609680e+02
    9.8799018860e+01    1.4191009521e+02
    9.8898887634e+01    1.4177410889e+02
    9.8999008179e+01    1.4163610840e+02
    9.9099006653e+01    1.4149810791e+02
    9.9198928833e+01    1.4135910034e+02
    9.9298835754e+01    1.4121910095e+02
    9.9398895264e+01    1.4107710266e+02
    9.9498931885e+01    1.4093508911e+02
    9.9598831177e+01    1.4079309082e+02
    9.9698875427e+01    1.4064910889e+02
    9.9798988342e+01    1.4050509644e+02
    9.9898971558e+01    1.4035910034e+02
    9.9998939514e+01    1.4021310425e+02
    1.0009883881e+02    1.4006710815e+02
    1.0019899750e+02    1.3991909790e+02
    1.0029886627e+02    1.3977110291e+02
    1.0039890289e+02    1.3962210083e+02
    1.0049897003e+02    1.3947210693e+02
    1.0059886932e+02    1.3932110596e+02
    1.0069886780e+02    1.3917010498e+02
    1.0079895020e+02    1.3901809692e+02
    1.0089894104e+02    1.3886509705e+02
    1.0099897003e+02    1.3871209717e+02
    1.0109890747e+02    1.3855810547e+02
    1.0119880676e+02    1.3840409851e+02
    1.0129891968e+02    1.3824810791e+02
    1.0139900970e+02    1.3809210205e+02
    1.0149887848e+02    1.3793609619e+02
    1.0159884644e+02    1.3777909851e+02
    1.0169898987e+02    1.3762109375e+02
    1.0179891205e+02    1.3746310425e+02
    1.0189897919e+02    1.3730509949e+02
    1.0199897003e+02    1.3714511108e+02
    1.0209893036e+02    1.3698609924e+02
    1.0219891357e+02    1.3682611084e+02
    1.0229889679e+02    1.3666510010e+02
    1.0239881897e+02    1.3650408936e+02
    1.0249894714e+02    1.3634210205e+02
    1.0259896088e+02    1.3618009949e+02
    1.0269892883e+02    1.3601809692e+02
    1.0279897308e+02    1.3585510254e+02
    1.0289888000e+02    1.3569309998e+02
    1.0299889374e+02    1.3552909851e+02
    1.0309887695e+02    1.3536509705e+02
    1.0319893646e+02    1.3520111084e+02
    1.0329876709e+02    1.3503710938e+02
    1.0339877319e+02    1.3487210083e+02
    1.0349891663e+02    1.3470709229e+02
    1.0359893036e+02    1.3454209900e+02
    1.0369882202e+02    1.3437710571e+02
    1.0379882812e+02    1.3421109009e+02
    1.0389875793e+02    1.3404510498e+02
    1.0399897766e+02    1.3387908936e+02
    1.0409877014e+02    1.3371310425e+02
    1.0419896698e+02    1.3354609680e+02
    1.0429875946e+02    1.3338009644e+02
    1.0439895630e+02    1.3321310425e+02
    1.0449887848e+02    1.3304710388e+02
    1.0459895325e+02    1.3288009644e+02
    1.0469892883e+02    1.3271310425e+02
    1.0479894257e+02    1.3254609680e+02
    1.0489878845e+02    1.3237908936e+02
    1.0499880219e+02    1.3221209717e+02
    1.0509892273e+02    1.3204510498e+02
    1.0519885254e+02    1.3187809753e+02
    1.0529878998e+02    1.3171109009e+02
    1.0539887238e+02    1.3154409790e+02
    1.0549889374e+02    1.3137710571e+02
    1.0559880066e+02    1.3121009827e+02
    1.0569889832e+02    1.3104309082e+02
    1.0579882050e+02    1.3087609863e+02
    1.0589881134e+02    1.3070910645e+02
    1.0599890900e+02    1.3054309082e+02
    1.0609886932e+02    1.3037609863e+02
    1.0619886780e+02    1.3021009827e+02
    1.0629894257e+02    1.3004409790e+02
    1.0639894104e+02    1.2987809753e+02
    1.0649871826e+02    1.2971209717e+02
    1.0659892273e+02    1.2954609680e+02
    1.0669892120e+02    1.2938110352e+02
    1.0679881287e+02    1.2921609497e+02
    1.0689888763e+02    1.2905010986e+02
    1.0699890137e+02    1.2888610840e+02
    1.0709892273e+02    1.2872109985e+02
    1.0719877625e+02    1.2855709839e+02
    1.0729885864e+02    1.2839309692e+02
    1.0739871979e+02    1.2822909546e+02
    1.0749891663e+02    1.2806509399e+02
    1.0759877014e+02    1.2790209961e+02
    1.0769891357e+02    1.2773909760e+02
    1.0779882050e+02    1.2757710266e+02
    1.0789878845e+02    1.2741410065e+02
    1.0799873352e+02    1.2725209808e+02
    1.0809887695e+02    1.2709110260e+02
    1.0819880676e+02    1.2692910004e+02
    1.0829881287e+02    1.2676809692e+02
    1.0839872742e+02    1.2660810089e+02
    1.0849875641e+02    1.2644809723e+02
    1.0859880066e+02    1.2628810120e+02
    1.0869873810e+02    1.2612809753e+02
    1.0879881287e+02    1.2596910095e+02
    1.0889875031e+02    1.2581110382e+02
    1.0899884033e+02    1.2565209961e+02
    1.0909873199e+02    1.2549410248e+02
    1.0919877625e+02    1.2533709717e+02
    1.0929888916e+02    1.2518009949e+02
    1.0939875793e+02    1.2502310181e+02
    1.0949887848e+02    1.2486710358e+02
    1.0959884644e+02    1.2471109772e+02
    1.0969872284e+02    1.2455609894e+02
    1.0979872131e+02    1.2440110016e+02
    1.0989878845e+02    1.2424610138e+02
    1.0999880219e+02    1.2409210205e+02
    1.1009867096e+02    1.2393910217e+02
    1.1019886780e+02    1.2378510284e+02
    1.1029878998e+02    1.2363310242e+02
    1.1039868164e+02    1.2348110199e+02
    1.1049880219e+02    1.2332910156e+02
    1.1059887695e+02    1.2317710114e+02
    1.1069870758e+02    1.2302709961e+02
    1.1079873657e+02    1.2287609863e+02
    1.1089865875e+02    1.2272609711e+02
    1.1099877930e+02    1.2257710266e+02
    1.1109870148e+02    1.2242810059e+02
    1.1119885254e+02    1.2227909851e+02
    1.1129869843e+02    1.2213210297e+02
    1.1139881897e+02    1.2198410034e+02
    1.1149880981e+02    1.2183709717e+02
    1.1159867859e+02    1.2169110107e+02
    1.1169886017e+02    1.2154409790e+02
    1.1179872131e+02    1.2139910126e+02
    1.1189885712e+02    1.2125409698e+02
    1.1199886322e+02    1.2110910034e+02
    1.1209864807e+02    1.2096510315e+02
    1.1219864655e+02    1.2082209778e+02
    1.1229878998e+02    1.2067810059e+02
    1.1239868164e+02    1.2053610229e+02
    1.1249884796e+02    1.2039309692e+02
    1.1259877014e+02    1.2025209808e+02
    1.1269869232e+02    1.2011109924e+02
    1.1279878235e+02    1.1997010040e+02
    1.1289871216e+02    1.1983010101e+02
    1.1299880981e+02    1.1969010162e+02
    1.1309883881e+02    1.1955110168e+02
    1.1319876099e+02    1.1941210175e+02
    1.1329872894e+02    1.1927410126e+02
    1.1339878845e+02    1.1913610077e+02
    1.1349881744e+02    1.1899810028e+02
    1.1359866333e+02    1.1886199951e+02
    1.1369873810e+02    1.1872550201e+02
    1.1379875946e+02    1.1858969879e+02
    1.1389878082e+02    1.1845429993e+02
    1.1399871826e+02    1.1831939697e+02
    1.1409877777e+02    1.1818499756e+02
    1.1419863129e+02    1.1805120087e+02
    1.1429882050e+02    1.1791750336e+02
    1.1439864349e+02    1.1778489685e+02
    1.1449865723e+02    1.1765239716e+02
    1.1459876251e+02    1.1752030182e+02
    1.1469873047e+02    1.1738890076e+02
    1.1479879761e+02    1.1725779724e+02
    1.1489861298e+02    1.1712760162e+02
    1.1499873352e+02    1.1699739838e+02
    1.1509880066e+02    1.1686779785e+02
    1.1519869995e+02    1.1673889923e+02
    1.1529878998e+02    1.1661019897e+02
    1.1539859009e+02    1.1648239899e+02
    1.1549874115e+02    1.1635459900e+02
    1.1559877014e+02    1.1622740173e+02
    1.1569860840e+02    1.1610089874e+02
    1.1579863739e+02    1.1597470093e+02
    1.1589869690e+02    1.1584889984e+02
    1.1599867249e+02    1.1572370148e+02
    1.1609870148e+02    1.1559889984e+02
    1.1619873810e+02    1.1547450256e+02
    1.1629866028e+02    1.1535079956e+02
    1.1639872742e+02    1.1522730255e+02
    1.1649877167e+02    1.1510440063e+02
    1.1659873199e+02    1.1498200226e+02
    1.1669860077e+02    1.1486019897e+02
    1.1679862213e+02    1.1473860168e+02
    1.1689872742e+02    1.1461750031e+02
    1.1699874878e+02    1.1449690247e+02
    1.1709874725e+02    1.1437680054e+02
    1.1719869995e+02    1.1425720215e+02
    1.1729859161e+02    1.1413809967e+02
    1.1739871216e+02    1.1401930237e+02
    1.1749859619e+02    1.1390110016e+02
    1.1759864807e+02    1.1378330231e+02
    1.1769863129e+02    1.1366600037e+02
    1.1779856110e+02    1.1354920197e+02
    1.1789862823e+02    1.1343280029e+02
    1.1799874878e+02    1.1331670380e+02
    1.1809867859e+02    1.1320130157e+02
    1.1819854736e+02    1.1308650208e+02
    1.1829860687e+02    1.1297190094e+02
    1.1839862061e+02    1.1285790253e+02
    1.1849862671e+02    1.1274430084e+02
    1.1859873199e+02    1.1263120270e+02
    1.1869873810e+02    1.1251860046e+02
    1.1879865265e+02    1.1240650177e+02
    1.1889869690e+02    1.1229489899e+02
    1.1899852753e+02    1.1218389893e+02
    1.1909867859e+02    1.1207309723e+02
    1.1919872284e+02    1.1196289825e+02
    1.1929859161e+02    1.1185340118e+02
    1.1939868927e+02    1.1174410248e+02
    1.1949870300e+02    1.1163539886e+02
    1.1959854889e+02    1.1152739716e+02
    1.1969869232e+02    1.1141960144e+02
    1.1979872894e+02    1.1131240082e+02
    1.1989859772e+02    1.1120590210e+02
    1.1999858093e+02    1.1109980011e+02
    1.2009866333e+02    1.1099410248e+02
    1.2019854736e+02    1.1088919830e+02
    1.2029866791e+02    1.1078450012e+02
    1.2039866638e+02    1.1068050385e+02
    1.2049871826e+02    1.1057700348e+02
    1.2059873199e+02    1.1047409821e+02
    1.2069870758e+02    1.1037170410e+02
    1.2079855347e+02    1.1027000427e+02
    1.2089855194e+02    1.1016880035e+02
    1.2099859619e+02    1.1006800079e+02
    1.2109860992e+02    1.0996780396e+02
    1.2119860077e+02    1.0986820221e+02
    1.2129860687e+02    1.0976920319e+02
    1.2139852142e+02    1.0967079926e+02
    1.2149851990e+02    1.0957289886e+02
    1.2159860992e+02    1.0947540283e+02
    1.2169857025e+02    1.0937870026e+02
    1.2179850769e+02    1.0928260040e+02
    1.2189862061e+02    1.0918689728e+02
    1.2199855042e+02    1.0909200287e+02
    1.2209867096e+02    1.0899749756e+02
    1.2219860077e+02    1.0890380096e+02
    1.2229856873e+02    1.0881069946e+02
    1.2239864349e+02    1.0871810150e+02
    1.2249855042e+02    1.0862629700e+02
    1.2259850311e+02    1.0853500366e+02
    1.2269864655e+02    1.0844429779e+02
    1.2279863739e+02    1.0835430145e+02
    1.2289853668e+02    1.0826499939e+02
    1.2299846649e+02    1.0817639923e+02
    1.2309850311e+02    1.0808830261e+02
    1.2319863129e+02    1.0800080109e+02
    1.2329865265e+02    1.0791410065e+02
    1.2339865112e+02    1.0782810211e+02
    1.2349854279e+02    1.0774279785e+02
    1.2359866333e+02    1.0765810394e+02
    1.2369860077e+02    1.0757420349e+02
    1.2379866028e+02    1.0749089813e+02
    1.2389865112e+02    1.0740840149e+02
    1.2399848938e+02    1.0732669830e+02
    1.2409848785e+02    1.0724559784e+02
    1.2419847107e+02    1.0716519928e+02
    1.2429846191e+02    1.0708560181e+02
    1.2439865112e+02    1.0700659943e+02
    1.2449865723e+02    1.0692849731e+02
    1.2459858704e+02    1.0685120392e+02
    1.2469862366e+02    1.0677470398e+02
    1.2479860687e+02    1.0669899750e+02
    1.2489846802e+02    1.0662419891e+02
    1.2499861145e+02    1.0655000305e+02
    1.2509857941e+02    1.0647669983e+02
    1.2519850159e+02    1.0640429688e+02
    1.2529857635e+02    1.0633260345e+02
    1.2539845276e+02    1.0626200104e+02
    1.2549854279e+02    1.0619200134e+02
    1.2559845734e+02    1.0612290192e+02
    1.2569846344e+02    1.0605470276e+02
    1.2579850006e+02    1.0598729706e+02
    1.2589845276e+02    1.0592089844e+02
    1.2599844360e+02    1.0585530090e+02
    1.2609854889e+02    1.0579049683e+02
    1.2619847107e+02    1.0572679901e+02
    1.2629843903e+02    1.0566390228e+02
    1.2639846039e+02    1.0560189819e+02
    1.2649859619e+02    1.0554070282e+02
    1.2659857941e+02    1.0548059845e+02
    1.2669859314e+02    1.0542140198e+02
    1.2679855347e+02    1.0536309814e+02
    1.2689849091e+02    1.0530590057e+02
    1.2699848938e+02    1.0524950409e+02
    1.2709860229e+02    1.0519400024e+02
    1.2719848633e+02    1.0513970184e+02
    1.2729855347e+02    1.0508619690e+02
    1.2739858246e+02    1.0503379822e+02
    1.2749842834e+02    1.0498239899e+02
    1.2759857941e+02    1.0493190002e+02
    1.2769846344e+02    1.0488249969e+02
    1.2779856110e+02    1.0483409882e+02
    1.2789852142e+02    1.0478669739e+02
    1.2799846649e+02    1.0474040222e+02
    1.2809858704e+02    1.0469499969e+02
    1.2819856262e+02    1.0465080261e+02
    1.2829852295e+02    1.0460770416e+02
    1.2839848328e+02    1.0456559753e+02
    1.2849862671e+02    1.0452449799e+02
    1.2859843445e+02    1.0448460388e+02
    1.2869854736e+02    1.0444580078e+02
    1.2879856873e+02    1.0440799713e+02
    1.2889849854e+02    1.0437139893e+02
    1.2899856567e+02    1.0433589935e+02
    1.2909849548e+02    1.0430149841e+02
    1.2919860840e+02    1.0426820374e+02
    1.2929850769e+02    1.0423609924e+02
    1.2939860535e+02    1.0420510101e+02
    1.2949862671e+02    1.0417520142e+02
    1.2959852600e+02    1.0414649963e+02
    1.2969859314e+02    1.0411900330e+02
    1.2979858398e+02    1.0409259796e+02
    1.2989869690e+02    1.0406729889e+02
    1.2999870300e+02    1.0404329681e+02
    1.3009855652e+02    1.0402050018e+02
    1.3019856262e+02    1.0399880219e+02
    1.3029855347e+02    1.0397830200e+02
    1.3039866638e+02    1.0395899963e+02
    1.3049859619e+02    1.0394100189e+02
    1.3059854126e+02    1.0392410278e+02
    1.3069876099e+02    1.0390840149e+02
    1.3079873657e+02    1.0389399719e+02
    1.3089877319e+02    1.0388079834e+02
    1.3099874878e+02    1.0386890411e+02
    1.3109858704e+02    1.0385820007e+02
    1.3119862366e+02    1.0384870148e+02
    1.3129875183e+02    1.0384040070e+02
    1.3139857483e+02    1.0383339691e+02
    1.3149870300e+02    1.0382759857e+02
    1.3159867859e+02    1.0382309723e+02
    1.3169871521e+02    1.0381980133e+02
    1.3179870605e+02    1.0381780243e+02
    1.3189880371e+02    1.0381700134e+02
    1.3199885559e+02    1.0381749725e+02
    1.3209883118e+02    1.0381929779e+02
    1.3219874573e+02    1.0382230377e+02
    1.3229881287e+02    1.0382649994e+02
    1.3239877319e+02    1.0383209991e+02
    1.3249870300e+02    1.0383879852e+02
    1.3259877014e+02    1.0384690094e+02
    1.3269871521e+02    1.0385620117e+02
    1.3279882812e+02    1.0386679840e+02
    1.3289874268e+02    1.0387860107e+02
    1.3299876404e+02    1.0389170074e+02
    1.3309884644e+02    1.0390599823e+02
    1.3319885254e+02    1.0392160034e+02
    1.3329893494e+02    1.0393849945e+02
    1.3339871216e+02    1.0395660400e+02
    1.3349880981e+02    1.0397599792e+02
    1.3359892273e+02    1.0399670410e+02
    1.3369877625e+02    1.0401860046e+02
    1.3379881287e+02    1.0404180145e+02
    1.3389883423e+02    1.0406620026e+02
    1.3399879456e+02    1.0409190369e+02
    1.3409877014e+02    1.0411890411e+02
    1.3419877625e+02    1.0414710236e+02
    1.3429876709e+02    1.0417659760e+02
    1.3439886475e+02    1.0420739746e+02
    1.3449897766e+02    1.0423940277e+02
    1.3459892273e+02    1.0427259827e+02
    1.3469880676e+02    1.0430699921e+02
    1.3479902649e+02    1.0434269714e+02
    1.3489897156e+02    1.0437960052e+02
    1.3499902344e+02    1.0441770172e+02
    1.3509881592e+02    1.0445700073e+02
    1.3519883728e+02    1.0449749756e+02
    1.3529893494e+02    1.0453929901e+02
    1.3539895630e+02    1.0458219910e+02
    1.3549902344e+02    1.0462640381e+02
    1.3559893799e+02    1.0467160034e+02
    1.3569894409e+02    1.0471820068e+02
    1.3579891968e+02    1.0476580048e+02
    1.3589900208e+02    1.0481469727e+02
    1.3599905396e+02    1.0486470032e+02
    1.3609902954e+02    1.0491590118e+02
    1.3619891357e+02    1.0496820068e+02
    1.3629908752e+02    1.0502169800e+02
    1.3639897156e+02    1.0507630157e+02
    1.3649891663e+02    1.0513200378e+02
    1.3659898376e+02    1.0518890381e+02
    1.3669891357e+02    1.0524680328e+02
    1.3679913330e+02    1.0530599976e+02
    1.3689906311e+02    1.0536620331e+02
    1.3699914551e+02    1.0542749786e+02
    1.3709892273e+02    1.0548970032e+02
    1.3719912720e+02    1.0555329895e+02
    1.3729902649e+02    1.0561769867e+02
    1.3739912415e+02    1.0568330383e+02
    1.3749908447e+02    1.0574990082e+02
    1.3759902954e+02    1.0581760406e+02
    1.3769897461e+02    1.0588619995e+02
    1.3779902649e+02    1.0595590210e+02
    1.3789920044e+02    1.0602680206e+02
    1.3799917603e+02    1.0609850311e+02
    1.3809913635e+02    1.0617120361e+02
    1.3819915771e+02    1.0624490356e+02
    1.3829916382e+02    1.0631960297e+02
    1.3839906311e+02    1.0639510345e+02
    1.3849917603e+02    1.0647180176e+02
    1.3859906006e+02    1.0654920197e+02
    1.3869917297e+02    1.0662779999e+02
    1.3879908752e+02    1.0670709991e+02
    1.3889918518e+02    1.0678749847e+02
    1.3899916077e+02    1.0686869812e+02
    1.3909919739e+02    1.0695079803e+02
    1.3919918823e+02    1.0703379822e+02
    1.3929925537e+02    1.0711769867e+02
    1.3939921570e+02    1.0720230103e+02
    1.3949920654e+02    1.0728790283e+02
    1.3959927368e+02    1.0737429810e+02
    1.3969911194e+02    1.0746130371e+02
    1.3979911804e+02    1.0754940033e+02
    1.3989923096e+02    1.0763829803e+02
    1.3999920654e+02    1.0772789764e+02
    1.4009913635e+02    1.0781819916e+02
    1.4019932556e+02    1.0790950012e+02
    1.4029917908e+02    1.0800129700e+02
    1.4039930725e+02    1.0809410095e+02
    1.4049923706e+02    1.0818740082e+02
    1.4059916687e+02    1.0828140259e+02
    1.4069931030e+02    1.0837629700e+02
    1.4079931641e+02    1.0847180176e+02
    1.4089927673e+02    1.0856800079e+02
    1.4099928284e+02    1.0866480255e+02
    1.4109930420e+02    1.0876239777e+02
    1.4119921875e+02    1.0886050415e+02
    1.4129936218e+02    1.0895940399e+02
    1.4139941406e+02    1.0905889893e+02
    1.4149937439e+02    1.0915889740e+02
    1.4159936523e+02    1.0925949860e+02
    1.4169926453e+02    1.0936060333e+02
    1.4179939270e+02    1.0946260071e+02
    1.4189926147e+02    1.0956480408e+02
    1.4199942017e+02    1.0966790009e+02
    1.4209924316e+02    1.0977120209e+02
    1.4219937134e+02    1.0987529755e+02
    1.4229934692e+02    1.0997979736e+02
    1.4239947510e+02    1.1008499908e+02
    1.4249949646e+02    1.1019049835e+02
    1.4259941101e+02    1.1029640198e+02
    1.4269946289e+02    1.1040290070e+02
    1.4279945374e+02    1.1050980377e+02
    1.4289942932e+02    1.1061720276e+02
    1.4299937439e+02    1.1072489929e+02
    1.4309936523e+02    1.1083309937e+02
    1.4319938660e+02    1.1094180298e+02
    1.4329933167e+02    1.1105080414e+02
    1.4339938354e+02    1.1116030121e+02
    1.4349948120e+02    1.1127020264e+02
    1.4359948730e+02    1.1138030243e+02
    1.4369935608e+02    1.1149069977e+02
    1.4379934692e+02    1.1160160065e+02
    1.4389953613e+02    1.1171299744e+02
    1.4399955750e+02    1.1182460022e+02
    1.4409941101e+02    1.1193630219e+02
    1.4419952393e+02    1.1204850006e+02
    1.4429940796e+02    1.1216090393e+02
    1.4439942932e+02    1.1227359772e+02
    1.4449960327e+02    1.1238680267e+02
    1.4459956360e+02    1.1250000000e+02
    1.4469949341e+02    1.1261340332e+02
    1.4479946899e+02    1.1272710419e+02
    1.4489952087e+02    1.1284110260e+02
    1.4499952698e+02    1.1295529938e+02
    1.4509950256e+02    1.1306960297e+02
    1.4519958496e+02    1.1318430328e+02
    1.4529959106e+02    1.1329910278e+02
    1.4539950562e+02    1.1341400146e+02
    1.4549963379e+02    1.1352919769e+02
    1.4559959412e+02    1.1364450073e+02
    1.4569949341e+02    1.1375980377e+02
    1.4579968262e+02    1.1387560272e+02
    1.4589947510e+02    1.1399110413e+02
    1.4599955750e+02    1.1410690308e+02
    1.4609959412e+02    1.1422290039e+02
    1.4619963074e+02    1.1433899689e+02
    1.4629963684e+02    1.1445520020e+02
    1.4639971924e+02    1.1457150269e+02
    1.4649955750e+02    1.1468769836e+02
    1.4659953308e+02    1.1480400085e+02
    1.4669961548e+02    1.1492060089e+02
    1.4679962158e+02    1.1503710175e+02
    1.4689959717e+02    1.1515360260e+02
    1.4699957275e+02    1.1527020264e+02
    1.4709965515e+02    1.1538690186e+02
    1.4719976807e+02    1.1550370026e+02
    1.4729974365e+02    1.1562039948e+02
    1.4739964294e+02    1.1573690033e+02
    1.4749966431e+02    1.1585369873e+02
    1.4759971619e+02    1.1597039795e+02
    1.4769975281e+02    1.1608709717e+02
    1.4779975891e+02    1.1620380402e+02
    1.4789979553e+02    1.1632050323e+02
    1.4799975586e+02    1.1643710327e+02
    1.4809977722e+02    1.1655370331e+02
    1.4819970703e+02    1.1667020416e+02
    1.4829983521e+02    1.1678680420e+02
    1.4839973450e+02    1.1690319824e+02
    1.4849964905e+02    1.1701950073e+02
    1.4859971619e+02    1.1713590240e+02
    1.4869964600e+02    1.1725209808e+02
    1.4879980469e+02    1.1736849976e+02
    1.4889979553e+02    1.1748460388e+02
    1.4899969482e+02    1.1760050201e+02
    1.4909986877e+02    1.1771669769e+02
    1.4919975281e+02    1.1783250427e+02
    1.4929980469e+02    1.1794830322e+02
    1.4939984131e+02    1.1806400299e+02
    1.4949975586e+02    1.1817949677e+02
    1.4959985352e+02    1.1829520416e+02
    1.4969972229e+02    1.1841040039e+02
    1.4979971313e+02    1.1852560425e+02
    1.4989991760e+02    1.1864099884e+02
    1.4999978638e+02    1.1875589752e+02
    1.5009974670e+02    1.1887080383e+02
    1.5019973755e+02    1.1898509979e+02
    1.5029980469e+02    1.1910009766e+02
    1.5039993286e+02    1.1921510315e+02
    1.5049993896e+02    1.1932910156e+02
    1.5059976196e+02    1.1944309998e+02
    1.5069996643e+02    1.1955809784e+02
    1.5079991150e+02    1.1967210388e+02
    1.5089982605e+02    1.1978610229e+02
    1.5099981689e+02    1.1989910126e+02
    1.5109999084e+02    1.2001309967e+02
    1.5119984436e+02    1.2012609863e+02
    1.5129997253e+02    1.2024009705e+02
    1.5139996338e+02    1.2035310364e+02
    1.5149993896e+02    1.2046610260e+02
    1.5159989929e+02    1.2057910156e+02
    1.5170002747e+02    1.2069210052e+02
    1.5179997253e+02    1.2080410004e+02
    1.5189993286e+02    1.2091709900e+02
    1.5199995422e+02    1.2102909851e+02
    1.5210000610e+02    1.2114109802e+02
    1.5219989014e+02    1.2125309753e+02
    1.5229988098e+02    1.2136509705e+02
    1.5239996338e+02    1.2147710419e+02
    1.5249993896e+02    1.2158810425e+02
    1.5260003662e+02    1.2170010376e+02
    1.5270007324e+02    1.2181110382e+02
    1.5280003357e+02    1.2192310333e+02
    1.5290010071e+02    1.2203410339e+02
    1.5300010681e+02    1.2214410400e+02
    1.5309994507e+02    1.2225510406e+02
    1.5319999695e+02    1.2236610413e+02
    1.5330014038e+02    1.2247609711e+02
    1.5340014648e+02    1.2258709717e+02
    1.5350010681e+02    1.2269709778e+02
    1.5360006714e+02    1.2280709839e+02
    1.5369995117e+02    1.2291709900e+02
    1.5380012512e+02    1.2302709961e+02
    1.5390016174e+02    1.2313710022e+02
    1.5400007629e+02    1.2324610138e+02
    1.5410017395e+02    1.2335610199e+02
    1.5420013428e+02    1.2346510315e+02
    1.5430009460e+02    1.2357409668e+02
    1.5440002441e+02    1.2368309784e+02
    1.5450004578e+02    1.2379209900e+02
    1.5460011292e+02    1.2390110016e+02
    1.5470004272e+02    1.2401010132e+02
    1.5480012512e+02    1.2411910248e+02
    1.5490016174e+02    1.2422710419e+02
    1.5500004578e+02    1.2433609772e+02
    1.5510011292e+02    1.2444409943e+02
    1.5520021057e+02    1.2455310059e+02
    1.5530026245e+02    1.2466110229e+02
    1.5540016174e+02    1.2476910400e+02
    1.5550022888e+02    1.2487809753e+02
    1.5560023499e+02    1.2498609924e+02
    1.5570014954e+02    1.2509310150e+02
    1.5580029297e+02    1.2520210266e+02
    1.5590031433e+02    1.2530909729e+02
    1.5600019836e+02    1.2541709900e+02
    1.5610011292e+02    1.2552510071e+02
    1.5620022583e+02    1.2563310242e+02
    1.5630029297e+02    1.2574009705e+02
    1.5640014648e+02    1.2584809875e+02
    1.5650021362e+02    1.2595510101e+02
    1.5660029602e+02    1.2606310272e+02
    1.5670019531e+02    1.2617009735e+02
    1.5680024719e+02    1.2627809906e+02
    1.5690023804e+02    1.2638510132e+02
    1.5700018311e+02    1.2649310303e+02
    1.5710034180e+02    1.2660009766e+02
    1.5720031738e+02    1.2670709991e+02
    1.5730032349e+02    1.2681510162e+02
    1.5740019226e+02    1.2692210388e+02
    1.5750021362e+02    1.2702909851e+02
    1.5760021973e+02    1.2713710022e+02
    1.5770028687e+02    1.2724410248e+02
    1.5780041504e+02    1.2735210419e+02
    1.5790043640e+02    1.2745909882e+02
    1.5800036621e+02    1.2756610107e+02
    1.5810023499e+02    1.2767410278e+02
    1.5820034790e+02    1.2778109741e+02
    1.5830035400e+02    1.2788909912e+02
    1.5840034485e+02    1.2799610138e+02
    1.5850039673e+02    1.2810409546e+02
    1.5860026550e+02    1.2821109009e+02
    1.5870025635e+02    1.2831909180e+02
    1.5880044556e+02    1.2842709351e+02
    1.5890049744e+02    1.2853509521e+02
    1.5900045776e+02    1.2864208984e+02
    1.5910028076e+02    1.2875009155e+02
    1.5920040894e+02    1.2885809326e+02
    1.5930032349e+02    1.2896609497e+02
    1.5940051270e+02    1.2907409668e+02
    1.5950047302e+02    1.2918209839e+02
    1.5960031128e+02    1.2929010010e+02
    1.5970050049e+02    1.2939910889e+02
    1.5980050659e+02    1.2950711060e+02
    1.5990046692e+02    1.2961509705e+02
    1.6000054932e+02    1.2972409058e+02
    1.6010047913e+02    1.2983209229e+02
    1.6020056152e+02    1.2994110107e+02
    1.6030056763e+02    1.3005010986e+02
    1.6040046692e+02    1.3015910339e+02
    1.6050050354e+02    1.3026809692e+02
    1.6060058594e+02    1.3037710571e+02
    1.6070050049e+02    1.3048609924e+02
    1.6080043030e+02    1.3059509277e+02
    1.6090051270e+02    1.3070410156e+02
    1.6100044250e+02    1.3081410217e+02
    1.6110052490e+02    1.3092309570e+02
    1.6120057678e+02    1.3103311157e+02
    1.6130047607e+02    1.3114309692e+02
    1.6140055847e+02    1.3125309753e+02
    1.6150064087e+02    1.3136309814e+02
    1.6160047913e+02    1.3147309875e+02
    1.6170062256e+02    1.3158410645e+02
    1.6180053711e+02    1.3169409180e+02
    1.6190046692e+02    1.3180410767e+02
    1.6200065613e+02    1.3191510010e+02
    1.6210055542e+02    1.3202609253e+02
    1.6220068359e+02    1.3213710022e+02
    1.6230061340e+02    1.3224810791e+02
    1.6240049744e+02    1.3235910034e+02
    1.6250062561e+02    1.3247009277e+02
    1.6260069275e+02    1.3258209229e+02
    1.6270065308e+02    1.3269409180e+02
    1.6280056763e+02    1.3280509949e+02
    1.6290069580e+02    1.3291709900e+02
    1.6300068665e+02    1.3302909851e+02
    1.6310055542e+02    1.3314109802e+02
    1.6320072937e+02    1.3325309753e+02
    1.6330064392e+02    1.3336610413e+02
    1.6340066528e+02    1.3347810364e+02
    1.6350062561e+02    1.3359109497e+02
    1.6360064697e+02    1.3370410156e+02
    1.6370063782e+02    1.3381610107e+02
    1.6380070496e+02    1.3393009949e+02
    1.6390060425e+02    1.3404309082e+02
    1.6400065613e+02    1.3415609741e+02
    1.6410069275e+02    1.3426910400e+02
    1.6420062256e+02    1.3438310242e+02
    1.6430070496e+02    1.3449609375e+02
    1.6440075684e+02    1.3461010742e+02
    1.6450068665e+02    1.3472409058e+02
    1.6460063171e+02    1.3483810425e+02
    1.6470083618e+02    1.3495210266e+02
    1.6480067444e+02    1.3506610107e+02
    1.6490066528e+02    1.3518109131e+02
    1.6500068665e+02    1.3529510498e+02
    1.6510075378e+02    1.3541009521e+02
    1.6520088196e+02    1.3552410889e+02
    1.6530082703e+02    1.3563909912e+02
    1.6540078735e+02    1.3575408936e+02
    1.6550086975e+02    1.3586911011e+02
    1.6560083008e+02    1.3598410034e+02
    1.6570082092e+02    1.3609909058e+02
    1.6580087280e+02    1.3621411133e+02
    1.6590084839e+02    1.3633010864e+02
    1.6600074768e+02    1.3644509888e+02
    1.6610079956e+02    1.3656008911e+02
    1.6620080566e+02    1.3667610168e+02
    1.6630073547e+02    1.3679110718e+02
    1.6640089417e+02    1.3690710449e+02
    1.6650073242e+02    1.3702310181e+02
    1.6660081482e+02    1.3713909912e+02
    1.6670077515e+02    1.3725408936e+02
    1.6680082703e+02    1.3737010193e+02
    1.6690092468e+02    1.3748609924e+02
    1.6700079346e+02    1.3760211182e+02
    1.6710087585e+02    1.3771810913e+02
    1.6720097351e+02    1.3783410645e+02
    1.6730079651e+02    1.3795010376e+02
    1.6740098572e+02    1.3806610107e+02
    1.6750082397e+02    1.3818209839e+02
    1.6760098267e+02    1.3829809570e+02
    1.6770089722e+02    1.3841409302e+02
    1.6780096436e+02    1.3853109741e+02
    1.6790086365e+02    1.3864709473e+02
    1.6800097656e+02    1.3876309204e+02
    1.6810087585e+02    1.3887908936e+02
    1.6820083618e+02    1.3899510193e+02
    1.6830099487e+02    1.3911109924e+02
    1.6840103149e+02    1.3922711182e+02
    1.6850097656e+02    1.3934310913e+02
    1.6860093689e+02    1.3945809937e+02
    1.6870106506e+02    1.3957409668e+02
    1.6880093384e+02    1.3969009399e+02
    1.6890103149e+02    1.3980609131e+02
    1.6900099182e+02    1.3992109680e+02
    1.6910090637e+02    1.4003710938e+02
    1.6920109558e+02    1.4015209961e+02
    1.6930111694e+02    1.4026809692e+02
    1.6940107727e+02    1.4038310242e+02
    1.6950105286e+02    1.4049810791e+02
    1.6960101318e+02    1.4061309814e+02
    1.6970100403e+02    1.4072810364e+02
    1.6980105591e+02    1.4084310913e+02
    1.6990103149e+02    1.4095809937e+02
    1.7000109863e+02    1.4107209778e+02
    1.7010104370e+02    1.4118710327e+02
    1.7020111084e+02    1.4130110168e+02
    1.7030116272e+02    1.4141510010e+02
    1.7040109253e+02    1.4152909851e+02
    1.7050112915e+02    1.4164309692e+02
    1.7060110474e+02    1.4175610352e+02
    1.7070118713e+02    1.4187010193e+02
    1.7080119324e+02    1.4198309326e+02
    1.7090107727e+02    1.4209509277e+02
    1.7100120544e+02    1.4220809937e+02
    1.7110107422e+02    1.4232110596e+02
    1.7120115662e+02    1.4243310547e+02
    1.7130119324e+02    1.4254510498e+02
    1.7140107727e+02    1.4265710449e+02
    1.7150106812e+02    1.4276910400e+02
    1.7160119629e+02    1.4288009644e+02
    1.7170115662e+02    1.4299110413e+02
    1.7180122375e+02    1.4310211182e+02
    1.7190118408e+02    1.4321209717e+02
    1.7200123596e+02    1.4332308960e+02
    1.7210113525e+02    1.4343209839e+02
    1.7220109558e+02    1.4354209900e+02
    1.7230128479e+02    1.4365109253e+02
    1.7240130615e+02    1.4376010132e+02
    1.7250126648e+02    1.4386911011e+02
    1.7260116577e+02    1.4397711182e+02
    1.7270121765e+02    1.4408509827e+02
    1.7280131531e+02    1.4419309998e+02
    1.7290124512e+02    1.4430010986e+02
    1.7300120544e+02    1.4440710449e+02
    1.7310134888e+02    1.4451409912e+02
    1.7320137024e+02    1.4462010193e+02
    1.7330125427e+02    1.4472610474e+02
    1.7340124512e+02    1.4483110046e+02
    1.7350129700e+02    1.4493710327e+02
    1.7360133362e+02    1.4504110718e+02
    1.7370132446e+02    1.4514511108e+02
    1.7380131531e+02    1.4524909973e+02
    1.7390133667e+02    1.4535310364e+02
    1.7400138855e+02    1.4545610046e+02
    1.7410133362e+02    1.4555810547e+02
    1.7420120239e+02    1.4566009521e+02
    1.7430134583e+02    1.4576210022e+02
    1.7440136719e+02    1.4586309814e+02
    1.7450129700e+02    1.4596411133e+02
    1.7460140991e+02    1.4606410217e+02
    1.7470132446e+02    1.4616409302e+02
    1.7480140686e+02    1.4626309204e+02
    1.7490129089e+02    1.4636209106e+02
    1.7500137329e+02    1.4646009827e+02
    1.7510131836e+02    1.4655810547e+02
    1.7520143127e+02    1.4665609741e+02
    1.7530134583e+02    1.4675210571e+02
    1.7540130615e+02    1.4684809875e+02
    1.7550129700e+02    1.4694409180e+02
    1.7560145569e+02    1.4704010010e+02
    1.7570141602e+02    1.4713409424e+02
    1.7580148315e+02    1.4722909546e+02
    1.7590141296e+02    1.4732209778e+02
    1.7600152588e+02    1.4741510010e+02
    1.7610150146e+02    1.4750810242e+02
    1.7620143127e+02    1.4760009766e+02
    1.7630134583e+02    1.4769110107e+02
    1.7640141296e+02    1.4778210449e+02
    1.7650154114e+02    1.4787210083e+02
    1.7660151672e+02    1.4796209717e+02
    1.7670147705e+02    1.4805110168e+02
    1.7680140686e+02    1.4813909912e+02
    1.7690138245e+02    1.4822709656e+02
    1.7700143433e+02    1.4831509399e+02
    1.7710148621e+02    1.4840209961e+02
    1.7720158386e+02    1.4848809814e+02
    1.7730145264e+02    1.4857310486e+02
    1.7740141296e+02    1.4865809631e+02
    1.7750155640e+02    1.4874310303e+02
    1.7760162354e+02    1.4882609558e+02
    1.7770162964e+02    1.4890910339e+02
    1.7780149841e+02    1.4899209595e+02
    1.7790159607e+02    1.4907409668e+02
    1.7800152588e+02    1.4915510559e+02
    1.7810165405e+02    1.4923609924e+02
    1.7820147705e+02    1.4931509399e+02
    1.7830151367e+02    1.4939509583e+02
    1.7840167236e+02    1.4947410583e+02
    1.7850163269e+02    1.4955209351e+02
    1.7860165405e+02    1.4962910461e+02
    1.7870161438e+02    1.4970610046e+02
    1.7880151367e+02    1.4978210449e+02
    1.7890153503e+02    1.4985710144e+02
    1.7900166321e+02    1.4993209839e+02
    1.7910162354e+02    1.5000610352e+02
    1.7920153809e+02    1.5008009338e+02
    1.7930166626e+02    1.5015310669e+02
    1.7940156555e+02    1.5022509766e+02
    1.7950172424e+02    1.5029710388e+02
    1.7960171509e+02    1.5036810303e+02
    1.7970170593e+02    1.5043809509e+02
    1.7980166626e+02    1.5050810242e+02
    1.7990171814e+02    1.5057710266e+02
    1.8000161743e+02    1.5064509583e+02
    1.8010166931e+02    1.5071310425e+02
    1.8020164490e+02    1.5078010559e+02
    1.8030177307e+02    1.5084609985e+02
    1.8040173340e+02    1.5091209412e+02
    1.8050173950e+02    1.5097709656e+02
    1.8060169983e+02    1.5104209900e+02
    1.8070173645e+02    1.5110510254e+02
    1.8080180359e+02    1.5116909790e+02
    1.8090170288e+02    1.5123109436e+02
    1.8100163269e+02    1.5129310608e+02
    1.8110180664e+02    1.5135409546e+02
    1.8120173645e+02    1.5141510010e+02
    1.8130169678e+02    1.5147410583e+02
    1.8140185547e+02    1.5153410339e+02
    1.8150180054e+02    1.5159210205e+02
    1.8160174561e+02    1.5165010071e+02
    1.8170184326e+02    1.5170809937e+02
    1.8180177307e+02    1.5176409912e+02
    1.8190182495e+02    1.5182009888e+02
    1.8200170898e+02    1.5187609863e+02
    1.8210174561e+02    1.5193110657e+02
    1.8220190430e+02    1.5198510742e+02
    1.8230178833e+02    1.5203810120e+02
    1.8240188599e+02    1.5209109497e+02
    1.8250177002e+02    1.5214410400e+02
    1.8260177612e+02    1.5219509888e+02
    1.8270193481e+02    1.5224609375e+02
    1.8280189514e+02    1.5229710388e+02
    1.8290179443e+02    1.5234710693e+02
    1.8300175476e+02    1.5239610291e+02
    1.8310194397e+02    1.5244410706e+02
    1.8320196533e+02    1.5249209595e+02
    1.8330180359e+02    1.5254010010e+02
    1.8340188599e+02    1.5258709717e+02
    1.8350190735e+02    1.5263310242e+02
    1.8360185242e+02    1.5267910767e+02
    1.8370195007e+02    1.5272410583e+02
    1.8380189514e+02    1.5276809692e+02
    1.8390194702e+02    1.5281210327e+02
    1.8400183105e+02    1.5285510254e+02
    1.8410197449e+02    1.5289810181e+02
    1.8420190430e+02    1.5294009399e+02
    1.8430203247e+02    1.5298210144e+02
    1.8440194702e+02    1.5302310181e+02
    1.8450198364e+02    1.5306309509e+02
    1.8460203552e+02    1.5310310364e+02
    1.8470193481e+02    1.5314210510e+02
    1.8480204773e+02    1.5318110657e+02
    1.8490191650e+02    1.5321910095e+02
    1.8500195312e+02    1.5325709534e+02
    1.8510200500e+02    1.5329409790e+02
    1.8520188904e+02    1.5333110046e+02
    1.8530197144e+02    1.5336709595e+02
    1.8540205383e+02    1.5340310669e+02
    1.8550201416e+02    1.5343809509e+02
    1.8560194397e+02    1.5347210693e+02
    1.8570199585e+02    1.5350610352e+02
    1.8580195618e+02    1.5354010010e+02
    1.8590197754e+02    1.5357310486e+02
    1.8600213623e+02    1.5360510254e+02
    1.8610200500e+02    1.5363710022e+02
    1.8620199585e+02    1.5366909790e+02
    1.8630203247e+02    1.5370010376e+02
    1.8640211487e+02    1.5373010254e+02
    1.8650202942e+02    1.5376010132e+02
    1.8660200500e+02    1.5379010010e+02
    1.8670204163e+02    1.5381910706e+02
    1.8680201721e+02    1.5384710693e+02
    1.8690209961e+02    1.5387510681e+02
    1.8700215149e+02    1.5390310669e+02
    1.8710209656e+02    1.5393009949e+02
    1.8720199585e+02    1.5395710754e+02
    1.8730216980e+02    1.5398309326e+02
    1.8740213013e+02    1.5400909424e+02
    1.8750219727e+02    1.5403410339e+02
    1.8760208130e+02    1.5405909729e+02
    1.8770219421e+02    1.5408309937e+02
    1.8780212402e+02    1.5410710144e+02
    1.8790205383e+02    1.5413110352e+02
    1.8800219727e+02    1.5415409851e+02
    1.8810205078e+02    1.5417709351e+02
    1.8820225525e+02    1.5419909668e+02
    1.8830212402e+02    1.5422109985e+02
    1.8840219116e+02    1.5424209595e+02
    1.8850221252e+02    1.5426310730e+02
    1.8860220337e+02    1.5428410339e+02
    1.8870219421e+02    1.5430410767e+02
    1.8880221558e+02    1.5432409668e+02
    1.8890222168e+02    1.5434309387e+02
    1.8900219727e+02    1.5436210632e+02
    1.8910215759e+02    1.5438110352e+02
    1.8920216370e+02    1.5439909363e+02
    1.8930216980e+02    1.5441709900e+02
    1.8940234375e+02    1.5443409729e+02
    1.8950216675e+02    1.5445109558e+02
    1.8960217285e+02    1.5446710205e+02
    1.8970223999e+02    1.5448410034e+02
    1.8980224609e+02    1.5449909973e+02
    1.8990225220e+02    1.5451510620e+02
    1.9000233459e+02    1.5453010559e+02
    1.9010227966e+02    1.5454409790e+02
    1.9020239258e+02    1.5455909729e+02
    1.9030232239e+02    1.5457310486e+02
    1.9040235901e+02    1.5458610535e+02
    1.9050221252e+02    1.5459910583e+02
    1.9060237122e+02    1.5461210632e+02
    1.9070234680e+02    1.5462409973e+02
    1.9080242920e+02    1.5463609314e+02
    1.9090240479e+02    1.5464810181e+02
    1.9100233459e+02    1.5465910339e+02
    1.9110223389e+02    1.5467010498e+02
    1.9120245361e+02    1.5468110657e+02
    1.9130235291e+02    1.5469110107e+02
    1.9140226746e+02    1.5470109558e+02
    1.9150231934e+02    1.5471009827e+02
    1.9160231018e+02    1.5471910095e+02
    1.9170228577e+02    1.5472810364e+02
    1.9180238342e+02    1.5473609924e+02
    1.9190235901e+02    1.5474409485e+02
    1.9200248718e+02    1.5475210571e+02
    1.9210244751e+02    1.5475909424e+02
    1.9220234680e+02    1.5476609802e+02
    1.9230232239e+02    1.5477310181e+02
    1.9240234375e+02    1.5477909851e+02
    1.9250250244e+02    1.5478509521e+02
    1.9260252380e+02    1.5479010010e+02
    1.9270233154e+02    1.5479609680e+02
    1.9280253601e+02    1.5480009460e+02
    1.9290249634e+02    1.5480509949e+02
    1.9300234985e+02    1.5480909729e+02
    1.9310244751e+02    1.5481309509e+02
    1.9320239258e+02    1.5481610107e+02
    1.9330256653e+02    1.5481910706e+02
    1.9340255737e+02    1.5482209778e+02
    1.9350244141e+02    1.5482409668e+02
    1.9360255432e+02    1.5482609558e+02
    1.9370249939e+02    1.5482710266e+02
    1.9380244446e+02    1.5482910156e+02
    1.9390261841e+02    1.5483009338e+02
    1.9400245667e+02    1.5483009338e+02
    1.9410244751e+02    1.5483009338e+02
    1.9420246887e+02    1.5483009338e+02
    1.9430250549e+02    1.5482910156e+02
    1.9440255737e+02    1.5482809448e+02
    1.9450250244e+02    1.5482710266e+02
    1.9460266113e+02    1.5482510376e+02
    1.9470260620e+02    1.5482310486e+02
    1.9480247498e+02    1.5482110596e+02
    1.9490255737e+02    1.5481809998e+02
    1.9500263977e+02    1.5481509399e+02
    1.9510261536e+02    1.5481109619e+02
    1.9520257568e+02    1.5480709839e+02
    1.9530262756e+02    1.5480310059e+02
    1.9540263367e+02    1.5479809570e+02
    1.9550270081e+02    1.5479310608e+02
    1.9560252380e+02    1.5478810120e+02
    1.9570271301e+02    1.5478210449e+02
    1.9580259705e+02    1.5477610779e+02
    1.9590254211e+02    1.5476910400e+02
    1.9600270081e+02    1.5476210022e+02
    1.9610255432e+02    1.5475509644e+02
    1.9620268250e+02    1.5474710083e+02
    1.9630255127e+02    1.5473910522e+02
    1.9640270996e+02    1.5473109436e+02
    1.9650260925e+02    1.5472210693e+02
    1.9660275269e+02    1.5471209717e+02
    1.9670269775e+02    1.5470309448e+02
    1.9680261230e+02    1.5469309998e+02
    1.9690275574e+02    1.5468209839e+02
    1.9700280762e+02    1.5467109680e+02
    1.9710270691e+02    1.5466009521e+02
    1.9720263672e+02    1.5464810181e+02
    1.9730261230e+02    1.5463609314e+02
    1.9740280151e+02    1.5462409973e+02
    1.9750282288e+02    1.5461109924e+02
    1.9760264587e+02    1.5459809875e+02
    1.9770274353e+02    1.5458410645e+02
    1.9780273438e+02    1.5457009888e+02
    1.9790283203e+02    1.5455509949e+02
    1.9800268555e+02    1.5454010010e+02
    1.9810284424e+02    1.5452510071e+02
    1.9820272827e+02    1.5450909424e+02
    1.9830268860e+02    1.5449310303e+02
    1.9840274048e+02    1.5447709656e+02
    1.9850279236e+02    1.5446009827e+02
    1.9860285950e+02    1.5444209290e+02
    1.9870272827e+02    1.5442509460e+02
    1.9880279541e+02    1.5440609741e+02
    1.9890281677e+02    1.5438810730e+02
    1.9900291443e+02    1.5436909485e+02
    1.9910276794e+02    1.5434910583e+02
    1.9920283508e+02    1.5432910156e+02
    1.9930282593e+02    1.5430909729e+02
    1.9940289307e+02    1.5428810120e+02
    1.9950274658e+02    1.5426710510e+02
    1.9960293579e+02    1.5424609375e+02
    1.9970283508e+02    1.5422410583e+02
    1.9980296326e+02    1.5420109558e+02
    1.9990278625e+02    1.5417910767e+02
endcurve
