Curveplot
LS-DYNA keyword deck by LS-PrePost
Abscissa
Ordinate
XY data
CHOP_NASZ_mo-1 #pts=3000
* Minval=    -1.0226200104e+02 at time=       233.5028686523
* Maxval=     3.6911399093e-06 at time=         2.4975562096
    0.0000000000e+00    0.0000000000e+00
    9.7369909286e-02    3.9326901061e-35
    1.9807700813e-01    9.6139899856e-28
    2.9948920012e-01    5.9419401518e-23
    3.9713996649e-01    1.0277099759e-18
    4.9812555313e-01    4.1587598233e-15
    5.9749299288e-01    6.1840799408e-13
    6.9738900661e-01    7.8498200995e-11
    7.9955375195e-01    3.4016800488e-09
    8.9783728123e-01    2.0009100155e-08
    9.9828058481e-01    6.3217697743e-08
    1.0996562243e+00    1.2873499600e-07
    1.1974014044e+00    2.0753199692e-07
    1.2984220982e+00    3.1170401371e-07
    1.3971672058e+00    4.3543801098e-07
    1.4989128113e+00    5.6605699683e-07
    1.5977989435e+00    6.4555700874e-07
    1.6997433901e+00    6.6634402174e-07
    1.7984901667e+00    6.2714400428e-07
    1.8987457752e+00    5.8091700339e-07
    1.9997639656e+00    6.5521697934e-07
    2.0978953838e+00    9.4961200148e-07
    2.1994953156e+00    1.5695300135e-06
    2.2993786335e+00    2.3816101020e-06
    2.3983728886e+00    3.1848799154e-06
    2.4975562096e+00    3.6911399093e-06
    2.5975327492e+00    3.6055500914e-06
    2.6985549927e+00    2.7808100640e-06
    2.7983779907e+00    1.3197800399e-06
    2.8981916904e+00   -4.7497800892e-07
    2.9984147549e+00   -2.2428700959e-06
    3.0974473953e+00   -3.6736200855e-06
    3.1972544193e+00   -4.7091798479e-06
    3.2982785702e+00   -5.5283999245e-06
    3.3992686272e+00   -6.5438498495e-06
    3.4973409176e+00   -8.2755395852e-06
    3.5992622375e+00   -1.1484199604e-05
    3.6988952160e+00   -1.6414300262e-05
    3.7990405560e+00   -2.3353799406e-05
    3.8982412815e+00   -3.2116000511e-05
    3.9996523857e+00   -4.2702500650e-05
    4.0988574028e+00   -5.4241798352e-05
    4.1998772621e+00   -6.6811997385e-05
    4.2982239723e+00   -7.9652600107e-05
    4.3992471695e+00   -9.3568698503e-05
    4.4991350174e+00   -1.0846400255e-04
    4.5988092422e+00   -1.2511199748e-04
    4.6975693703e+00   -1.4408999414e-04
    4.7989411354e+00   -1.6684600268e-04
    4.8999624252e+00   -1.9334499666e-04
    4.9980959892e+00   -2.2298400290e-04
    5.0998129845e+00   -2.5780498981e-04
    5.1989932060e+00   -2.9562501004e-04
    5.2981653214e+00   -3.3709799754e-04
    5.3986592293e+00   -3.8285899791e-04
    5.4997544289e+00   -4.3289799942e-04
    5.5971760750e+00   -4.8536001123e-04
    5.6978554726e+00   -5.4451299366e-04
    5.7974638939e+00   -6.0846697306e-04
    5.8984732628e+00   -6.7922699964e-04
    5.9999842644e+00   -7.5659697177e-04
    6.0983343124e+00   -8.3766900934e-04
    6.1984119415e+00   -9.2640897492e-04
    6.2999501228e+00   -1.0229200125e-03
    6.3996829987e+00   -1.1241299799e-03
    6.4988436699e+00   -1.2311900500e-03
    6.5997147560e+00   -1.3469000114e-03
    6.6997900009e+00   -1.4688000083e-03
    6.7986364365e+00   -1.5964199556e-03
    6.8981943130e+00   -1.7324199434e-03
    6.9998621941e+00   -1.8789699534e-03
    7.0975832939e+00   -2.0267500076e-03
    7.1989593506e+00   -2.1866098978e-03
    7.2974481583e+00   -2.3476299830e-03
    7.3989973068e+00   -2.5188298896e-03
    7.4993929863e+00   -2.6927399449e-03
    7.5987024307e+00   -2.8690800536e-03
    7.6984376907e+00   -3.0506299809e-03
    7.7987232208e+00   -3.2381899655e-03
    7.8997526169e+00   -3.4328598995e-03
    7.9989619255e+00   -3.6302900407e-03
    8.0996818542e+00   -3.8375200238e-03
    8.1999330521e+00   -4.0506999940e-03
    8.2976121902e+00   -4.2647700757e-03
    8.3971357346e+00   -4.4887098484e-03
    8.4985017776e+00   -4.7219102271e-03
    8.5995206833e+00   -4.9585001543e-03
    8.6976509094e+00   -5.1916199736e-03
    8.7984514236e+00   -5.4340600036e-03
    8.8979358673e+00   -5.6762001477e-03
    8.9987192154e+00   -5.9247100726e-03
    9.0970468521e+00   -6.1708800495e-03
    9.1981859207e+00   -6.4285201952e-03
    9.2992000580e+00   -6.6907000728e-03
    9.3987522125e+00   -6.9538601674e-03
    9.4978952408e+00   -7.2201900184e-03
    9.5992670059e+00   -7.4960398488e-03
    9.6992788315e+00   -7.7706100419e-03
    9.7982511520e+00   -8.0438097939e-03
    9.8977012634e+00   -8.3192400634e-03
    9.9987659454e+00   -8.5999900475e-03
    1.0098511696e+01   -8.8784797117e-03
    1.0199678421e+01   -9.1634700075e-03
    1.0298215866e+01   -9.4448700547e-03
    1.0398855209e+01   -9.7374198958e-03
    1.0497861862e+01   -1.0031100363e-02
    1.0597251892e+01   -1.0332199745e-02
    1.0697270393e+01   -1.0641199537e-02
    1.0799457550e+01   -1.0962300003e-02
    1.0897672653e+01   -1.1275299825e-02
    1.0998721123e+01   -1.1601200327e-02
    1.1097229004e+01   -1.1922200210e-02
    1.1198507309e+01   -1.2256200425e-02
    1.1299547195e+01   -1.2594300322e-02
    1.1398487091e+01   -1.2931199744e-02
    1.1499978065e+01   -1.3284199871e-02
    1.1598881721e+01   -1.3636300340e-02
    1.1699591637e+01   -1.4003300108e-02
    1.1797919273e+01   -1.4369499870e-02
    1.1898950577e+01   -1.4752499759e-02
    1.1999979973e+01   -1.5141000040e-02
    1.2098205566e+01   -1.5522399917e-02
    1.2197334290e+01   -1.5910299495e-02
    1.2298474312e+01   -1.6309099272e-02
    1.2397833824e+01   -1.6705000773e-02
    1.2499473572e+01   -1.7115900293e-02
    1.2598923683e+01   -1.7525399104e-02
    1.2699953079e+01   -1.7950499430e-02
    1.2798091888e+01   -1.8372600898e-02
    1.2899495125e+01   -1.8817599863e-02
    1.2997612000e+01   -1.9255500287e-02
    1.3098699570e+01   -1.9712699577e-02
    1.3197715759e+01   -2.0165299997e-02
    1.3298756599e+01   -2.0631600171e-02
    1.3397233963e+01   -2.1090799943e-02
    1.3497929573e+01   -2.1566299722e-02
    1.3597932816e+01   -2.2046100348e-02
    1.3699493408e+01   -2.2542599589e-02
    1.3797644615e+01   -2.3032400757e-02
    1.3898680687e+01   -2.3547299206e-02
    1.3997740746e+01   -2.4062599987e-02
    1.4098539352e+01   -2.4596499279e-02
    1.4197928429e+01   -2.5131199509e-02
    1.4299071312e+01   -2.5682300329e-02
    1.4397571564e+01   -2.6225399226e-02
    1.4497648239e+01   -2.6783799753e-02
    1.4599093437e+01   -2.7357799932e-02
    1.4699822426e+01   -2.7937900275e-02
    1.4798312187e+01   -2.8516899794e-02
    1.4897054672e+01   -2.9111299664e-02
    1.4998292923e+01   -2.9736699536e-02
    1.5098944664e+01   -3.0375199392e-02
    1.5199199677e+01   -3.1027799472e-02
    1.5299445152e+01   -3.1696200371e-02
    1.5399482727e+01   -3.2378401607e-02
    1.5497596741e+01   -3.3061798662e-02
    1.5597725868e+01   -3.3773999661e-02
    1.5697420120e+01   -3.4498699009e-02
    1.5797376633e+01   -3.5241898149e-02
    1.5898392677e+01   -3.6011099815e-02
    1.5998808861e+01   -3.6795198917e-02
    1.6099941254e+01   -3.7605501711e-02
    1.6199506760e+01   -3.8424000144e-02
    1.6297647476e+01   -3.9250899106e-02
    1.6399570465e+01   -4.0130499750e-02
    1.6497373581e+01   -4.0993999690e-02
    1.6598758698e+01   -4.1908901185e-02
    1.6698831558e+01   -4.2831499130e-02
    1.6799879074e+01   -4.3783001602e-02
    1.6898040771e+01   -4.4727001339e-02
    1.6998636246e+01   -4.5714799315e-02
    1.7099475861e+01   -4.6725299209e-02
    1.7198326111e+01   -4.7734998167e-02
    1.7299909592e+01   -4.8790898174e-02
    1.7399274826e+01   -4.9840200692e-02
    1.7497299194e+01   -5.0889801234e-02
    1.7597951889e+01   -5.1980998367e-02
    1.7699010849e+01   -5.3089801222e-02
    1.7797180176e+01   -5.4179400206e-02
    1.7898233414e+01   -5.5314499885e-02
    1.7999279022e+01   -5.6463900954e-02
    1.8097755432e+01   -5.7598698884e-02
    1.8199289322e+01   -5.8784399182e-02
    1.8297386169e+01   -5.9944901615e-02
    1.8398450851e+01   -6.1155401170e-02
    1.8497283936e+01   -6.2352400273e-02
    1.8598314285e+01   -6.3588097692e-02
    1.8699340820e+01   -6.4834296703e-02
    1.8798715591e+01   -6.6069200635e-02
    1.8898563385e+01   -6.7318402231e-02
    1.8999273300e+01   -6.8586796522e-02
    1.9098115921e+01   -6.9840602577e-02
    1.9198606491e+01   -7.1125403047e-02
    1.9298030853e+01   -7.2407297790e-02
    1.9398485184e+01   -7.3713898659e-02
    1.9498451233e+01   -7.5025297701e-02
    1.9599578857e+01   -7.6362200081e-02
    1.9697742462e+01   -7.7668398619e-02
    1.9799339294e+01   -7.9027496278e-02
    1.9899480820e+01   -8.0373302102e-02
    1.9998109818e+01   -8.1704400480e-02
    2.0099456787e+01   -8.3079002798e-02
    2.0197763443e+01   -8.4420502186e-02
    2.0299747467e+01   -8.5823200643e-02
    2.0397531509e+01   -8.7180599570e-02
    2.0499458313e+01   -8.8610202074e-02
    2.0599056244e+01   -9.0022601187e-02
    2.0698812485e+01   -9.1452300549e-02
    2.0797962189e+01   -9.2887900770e-02
    2.0898649216e+01   -9.4359703362e-02
    2.0999725342e+01   -9.5850601792e-02
    2.1098436356e+01   -9.7319699824e-02
    2.1200010300e+01   -9.8845802248e-02
    2.1298189163e+01   -1.0033600032e-01
    2.1397323608e+01   -1.0185900331e-01
    2.1499183655e+01   -1.0344299674e-01
    2.1599388123e+01   -1.0502400249e-01
    2.1697563171e+01   -1.0659299791e-01
    2.1798622131e+01   -1.0823000222e-01
    2.1899675369e+01   -1.0988599807e-01
    2.1997837067e+01   -1.1151199788e-01
    2.2099744797e+01   -1.1321400106e-01
    2.2199426651e+01   -1.1489100009e-01
    2.2297525406e+01   -1.1655300111e-01
    2.2399444580e+01   -1.1829400063e-01
    2.2497875214e+01   -1.1998900026e-01
    2.2599109650e+01   -1.2174999714e-01
    2.2697280884e+01   -1.2347500026e-01
    2.2798330307e+01   -1.2527100742e-01
    2.2897104263e+01   -1.2704500556e-01
    2.2998182297e+01   -1.2887899578e-01
    2.3099815369e+01   -1.3073800504e-01
    2.3198589325e+01   -1.3255900145e-01
    2.3299652100e+01   -1.3443599641e-01
    2.3399400711e+01   -1.3630400598e-01
    2.3497232437e+01   -1.3815000653e-01
    2.3598722458e+01   -1.4008399844e-01
    2.3699779510e+01   -1.4202900231e-01
    2.3797945023e+01   -1.4394000173e-01
    2.3898994446e+01   -1.4592899382e-01
    2.3999860764e+01   -1.4793699980e-01
    2.4097249985e+01   -1.4989599586e-01
    2.4197904587e+01   -1.5193900466e-01
    2.4298036575e+01   -1.5398900211e-01
    2.4398069382e+01   -1.5605300665e-01
    2.4498348236e+01   -1.5813699365e-01
    2.4598653793e+01   -1.6023899615e-01
    2.4699348450e+01   -1.6236799955e-01
    2.4797519684e+01   -1.6446700692e-01
    2.4899753571e+01   -1.6667899489e-01
    2.4999788284e+01   -1.6887199879e-01
    2.5098043442e+01   -1.7105600238e-01
    2.5199472427e+01   -1.7334100604e-01
    2.5298135757e+01   -1.7559100688e-01
    2.5397808075e+01   -1.7789199948e-01
    2.5498870850e+01   -1.8025000393e-01
    2.5598821640e+01   -1.8260799348e-01
    2.5698518753e+01   -1.8498599529e-01
    2.5798412323e+01   -1.8739600480e-01
    2.5899452209e+01   -1.8986499310e-01
    2.5999002457e+01   -1.9232800603e-01
    2.6099269867e+01   -1.9484399259e-01
    2.6198505402e+01   -1.9736799598e-01
    2.6299566269e+01   -1.9997400045e-01
    2.6397920609e+01   -2.0254200697e-01
    2.6497484207e+01   -2.0517399907e-01
    2.6598600388e+01   -2.0787699521e-01
    2.6697399139e+01   -2.1054600179e-01
    2.6798490524e+01   -2.1330699325e-01
    2.6899581909e+01   -2.1609699726e-01
    2.6997192383e+01   -2.1882000566e-01
    2.7098279953e+01   -2.2166900337e-01
    2.7199348450e+01   -2.2454600036e-01
    2.7298974991e+01   -2.2741000354e-01
    2.7399595261e+01   -2.3032699525e-01
    2.7497600555e+01   -2.3319000006e-01
    2.7598070145e+01   -2.3614600301e-01
    2.7699167252e+01   -2.3913900554e-01
    2.7797370911e+01   -2.4206399918e-01
    2.7898452759e+01   -2.4509300292e-01
    2.7999525070e+01   -2.4814000726e-01
    2.8098470688e+01   -2.5114300847e-01
    2.8199514389e+01   -2.5422900915e-01
    2.8297582626e+01   -2.5724500418e-01
    2.8398618698e+01   -2.6037299633e-01
    2.8498054504e+01   -2.6346999407e-01
    2.8599115372e+01   -2.6663500071e-01
    2.8697284698e+01   -2.6972401142e-01
    2.8797231674e+01   -2.7288100123e-01
    2.8898393631e+01   -2.7608799934e-01
    2.8998153687e+01   -2.7926099300e-01
    2.9098014832e+01   -2.8244900703e-01
    2.9197786331e+01   -2.8564599156e-01
    2.9297653198e+01   -2.8886100650e-01
    2.9397525787e+01   -2.9209199548e-01
    2.9497989655e+01   -2.9535898566e-01
    2.9599515915e+01   -2.9867699742e-01
    2.9697723389e+01   -3.0190199614e-01
    2.9799516678e+01   -3.0525699258e-01
    2.9898330688e+01   -3.0852600932e-01
    2.9998817444e+01   -3.1186100841e-01
    3.0099903107e+01   -3.1522700191e-01
    3.0198249817e+01   -3.1851500273e-01
    3.0297286987e+01   -3.2184100151e-01
    3.0397830963e+01   -3.2523700595e-01
    3.0499715805e+01   -3.2869899273e-01
    3.0599077225e+01   -3.3209800720e-01
    3.0698534012e+01   -3.3552300930e-01
    3.0797813416e+01   -3.3896601200e-01
    3.0899099350e+01   -3.4250199795e-01
    3.0998241425e+01   -3.4598499537e-01
    3.1097181320e+01   -3.4948399663e-01
    3.1198631287e+01   -3.5309499502e-01
    3.1299747467e+01   -3.5671898723e-01
    3.1398910522e+01   -3.6030000448e-01
    3.1497997284e+01   -3.6390700936e-01
    3.1599212646e+01   -3.6762300134e-01
    3.1697280884e+01   -3.7125501037e-01
    3.1798379898e+01   -3.7503200769e-01
    3.1899467468e+01   -3.7883898616e-01
    3.1997659683e+01   -3.8256400824e-01
    3.2098819733e+01   -3.8642498851e-01
    3.2198230743e+01   -3.9024001360e-01
    3.2299430847e+01   -3.9414298534e-01
    3.2398677826e+01   -3.9798998833e-01
    3.2497402191e+01   -4.0183699131e-01
    3.2599353790e+01   -4.0583398938e-01
    3.2697566986e+01   -4.0970999002e-01
    3.2798660278e+01   -4.1372698545e-01
    3.2899646759e+01   -4.1776698828e-01
    3.3000015259e+01   -4.2180699110e-01
    3.3098072052e+01   -4.2577499151e-01
    3.3200008392e+01   -4.2992201447e-01
    3.3298236847e+01   -4.3393701315e-01
    3.3399932861e+01   -4.3811601400e-01
    3.3497901917e+01   -4.4216400385e-01
    3.3599918365e+01   -4.4640499353e-01
    3.3698131561e+01   -4.5051699877e-01
    3.3799224854e+01   -4.5478001237e-01
    3.3897426605e+01   -4.5895299315e-01
    3.3998973846e+01   -4.6329998970e-01
    3.4099018097e+01   -4.6761301160e-01
    3.4198455811e+01   -4.7192698717e-01
    3.4298782349e+01   -4.7630500793e-01
    3.4397705078e+01   -4.8064500093e-01
    3.4497135162e+01   -4.8503100872e-01
    3.4598686218e+01   -4.8953700066e-01
    3.4699409485e+01   -4.9403598905e-01
    3.4797637939e+01   -4.9845600128e-01
    3.4898921967e+01   -5.0305300951e-01
    3.4997650146e+01   -5.0757402182e-01
    3.5098644257e+01   -5.1224100590e-01
    3.5198165894e+01   -5.1688200235e-01
    3.5299198151e+01   -5.2163499594e-01
    3.5399360657e+01   -5.2638399601e-01
    3.5497417450e+01   -5.3107100725e-01
    3.5597862244e+01   -5.3590798378e-01
    3.5697563171e+01   -5.4074901342e-01
    3.5797180176e+01   -5.4562598467e-01
    3.5898250580e+01   -5.5062097311e-01
    3.5997821808e+01   -5.5558800697e-01
    3.6099006653e+01   -5.6068801880e-01
    3.6199165344e+01   -5.6578701735e-01
    3.6297374725e+01   -5.7083702087e-01
    3.6398475647e+01   -5.7608801126e-01
    3.6498336792e+01   -5.8132302761e-01
    3.6599468231e+01   -5.8667397499e-01
    3.6698734283e+01   -5.9197300673e-01
    3.6799880981e+01   -5.9741997719e-01
    3.6898143768e+01   -6.0275697708e-01
    3.6999145508e+01   -6.0828900337e-01
    3.7099063873e+01   -6.1380600929e-01
    3.7197330475e+01   -6.1927402020e-01
    3.7298488617e+01   -6.2494099140e-01
    3.7399894714e+01   -6.3065797091e-01
    3.7497932434e+01   -6.3621699810e-01
    3.7598609924e+01   -6.4195400476e-01
    3.7699787140e+01   -6.4774900675e-01
    3.7798065186e+01   -6.5340399742e-01
    3.7899219513e+01   -6.5925502777e-01
    3.7997463226e+01   -6.6496801376e-01
    3.8098033905e+01   -6.7084801197e-01
    3.8199501038e+01   -6.7681401968e-01
    3.8297504425e+01   -6.8260902166e-01
    3.8398471832e+01   -6.8861001730e-01
    3.8499824524e+01   -6.9466197491e-01
    3.8598041534e+01   -7.0055001974e-01
    3.8699127197e+01   -7.0662999153e-01
    3.8799816132e+01   -7.1270400286e-01
    3.8897941589e+01   -7.1863901615e-01
    3.8998657227e+01   -7.2474801540e-01
    3.9097087860e+01   -7.3073601723e-01
    3.9199443817e+01   -7.3698598146e-01
    3.9297817230e+01   -7.4301600456e-01
    3.9397159576e+01   -7.4913102388e-01
    3.9498397827e+01   -7.5538897514e-01
    3.9599723816e+01   -7.6167601347e-01
    3.9697998047e+01   -7.6779299974e-01
    3.9799179077e+01   -7.7410697937e-01
    3.9899059296e+01   -7.8035199642e-01
    3.9997802734e+01   -7.8653901815e-01
    4.0099170685e+01   -7.9290497303e-01
    4.0197639465e+01   -7.9910701513e-01
    4.0299781799e+01   -8.0556601286e-01
    4.0397491455e+01   -8.1177401543e-01
    4.0498821259e+01   -8.1824797392e-01
    4.0598335266e+01   -8.2464402914e-01
    4.0697666168e+01   -8.3106601238e-01
    4.0799892426e+01   -8.3771300316e-01
    4.0898353577e+01   -8.4415000677e-01
    4.0997745514e+01   -8.5067999363e-01
    4.1099727631e+01   -8.5741299391e-01
    4.1198368073e+01   -8.6395901442e-01
    4.1299564362e+01   -8.7071299553e-01
    4.1398780823e+01   -8.7737697363e-01
    4.1497798920e+01   -8.8407397270e-01
    4.1598438263e+01   -8.9093500376e-01
    4.1698898315e+01   -8.9783698320e-01
    4.1797187805e+01   -9.0464097261e-01
    4.1898345947e+01   -9.1169297695e-01
    4.1999492645e+01   -9.1878598928e-01
    4.2098392487e+01   -9.2575502396e-01
    4.2197704315e+01   -9.3278199434e-01
    4.2298961639e+01   -9.3997400999e-01
    4.2398273468e+01   -9.4705599546e-01
    4.2499443054e+01   -9.5430397987e-01
    4.2597728729e+01   -9.6138197184e-01
    4.2698890686e+01   -9.6871101856e-01
    4.2797138214e+01   -9.7587198019e-01
    4.2898265839e+01   -9.8328697681e-01
    4.2999252319e+01   -9.9073201418e-01
    4.3098644257e+01   -9.9809402227e-01
    4.3197647095e+01   -1.0054600239e+00
    4.3298831940e+01   -1.0130100250e+00
    4.3397628784e+01   -1.0204199553e+00
    4.3498329163e+01   -1.0279999971e+00
    4.3597644806e+01   -1.0355099440e+00
    4.3698818207e+01   -1.0432000160e+00
    4.3797092438e+01   -1.0507099628e+00
    4.3898250580e+01   -1.0585000515e+00
    4.3999877930e+01   -1.0663599968e+00
    4.4097713470e+01   -1.0739799738e+00
    4.4197380066e+01   -1.0817799568e+00
    4.4298625946e+01   -1.0897300243e+00
    4.4398490906e+01   -1.0976099968e+00
    4.4499050140e+01   -1.1055799723e+00
    4.4597064972e+01   -1.1133799553e+00
    4.4697483063e+01   -1.1214100122e+00
    4.4798660278e+01   -1.1295399666e+00
    4.4897926331e+01   -1.1375800371e+00
    4.4999431610e+01   -1.1458599567e+00
    4.5097381592e+01   -1.1539100409e+00
    4.5199176788e+01   -1.1623400450e+00
    4.5297183990e+01   -1.1705100536e+00
    4.5397365570e+01   -1.1789200306e+00
    4.5498355865e+01   -1.1874500513e+00
    4.5598461151e+01   -1.1959600449e+00
    4.5697849274e+01   -1.2044700384e+00
    4.5797565460e+01   -1.2130500078e+00
    4.5898693085e+01   -1.2218300104e+00
    4.5999576569e+01   -1.2306499481e+00
    4.6097759247e+01   -1.2393000126e+00
    4.6198177338e+01   -1.2482299805e+00
    4.6299354553e+01   -1.2573000193e+00
    4.6397647858e+01   -1.2661900520e+00
    4.6497612000e+01   -1.2753100395e+00
    4.6598735809e+01   -1.2846000195e+00
    4.6698215485e+01   -1.2938200235e+00
    4.6799449921e+01   -1.3032599688e+00
    4.6897792816e+01   -1.3125000000e+00
    4.6999187469e+01   -1.3220900297e+00
    4.7097259521e+01   -1.3314399719e+00
    4.7199436188e+01   -1.3412300348e+00
    4.7297775269e+01   -1.3507200480e+00
    4.7399093628e+01   -1.3605500460e+00
    4.7497077942e+01   -1.3701100349e+00
    4.7596961975e+01   -1.3798899651e+00
    4.7698234558e+01   -1.3898500204e+00
    4.7799491882e+01   -1.3998600245e+00
    4.7897838593e+01   -1.4096100330e+00
    4.7999053955e+01   -1.4196900129e+00
    4.8099296570e+01   -1.4297200441e+00
    4.8197628021e+01   -1.4395999908e+00
    4.8298515320e+01   -1.4497799873e+00
    4.8399387360e+01   -1.4599900246e+00
    4.8498435974e+01   -1.4700700045e+00
    4.8599601746e+01   -1.4803899527e+00
    4.8697853088e+01   -1.4904400110e+00
    4.8797870636e+01   -1.5006999969e+00
    4.8899097443e+01   -1.5111000538e+00
    4.8999790192e+01   -1.5214799643e+00
    4.9099060059e+01   -1.5317300558e+00
    4.9199317932e+01   -1.5421099663e+00
    4.9298015594e+01   -1.5523699522e+00
    4.9398445129e+01   -1.5628399849e+00
    4.9499729156e+01   -1.5734200478e+00
    4.9598400116e+01   -1.5837700367e+00
    4.9699634552e+01   -1.5944099426e+00
    4.9798007965e+01   -1.6047799587e+00
    4.9897174835e+01   -1.6152399778e+00
    4.9998050690e+01   -1.6259100437e+00
    5.0099567413e+01   -1.6366699934e+00
    5.0198360443e+01   -1.6471699476e+00
    5.0298023224e+01   -1.6577999592e+00
    5.0398799896e+01   -1.6685800552e+00
    5.0497673035e+01   -1.6792199612e+00
    5.0597156525e+01   -1.6899600029e+00
    5.0699535370e+01   -1.7010799646e+00
    5.0798843384e+01   -1.7119100094e+00
    5.0897224426e+01   -1.7226999998e+00
    5.0999603271e+01   -1.7339700460e+00
    5.1098686218e+01   -1.7449300289e+00
    5.1197410583e+01   -1.7559000254e+00
    5.1298694611e+01   -1.7672200203e+00
    5.1397964478e+01   -1.7783800364e+00
    5.1497184753e+01   -1.7896000147e+00
    5.1597976685e+01   -1.8010699749e+00
    5.1697269440e+01   -1.8124599457e+00
    5.1798530579e+01   -1.8241399527e+00
    5.1899768829e+01   -1.8358900547e+00
    5.1998104095e+01   -1.8473700285e+00
    5.2096977234e+01   -1.8589600325e+00
    5.2199260712e+01   -1.8709900379e+00
    5.2297531128e+01   -1.8825999498e+00
    5.2396930695e+01   -1.8943799734e+00
    5.2498199463e+01   -1.9064300060e+00
    5.2599475861e+01   -1.9185400009e+00
    5.2697837830e+01   -1.9303499460e+00
    5.2799060822e+01   -1.9425599575e+00
    5.2897830963e+01   -1.9545300007e+00
    5.2998752594e+01   -1.9668099880e+00
    5.3098449707e+01   -1.9789999723e+00
    5.3197719574e+01   -1.9911700487e+00
    5.3298973083e+01   -2.0036199093e+00
    5.3398006439e+01   -2.0158500671e+00
    5.3498535156e+01   -2.0283000469e+00
    5.3597702026e+01   -2.0406301022e+00
    5.3698928833e+01   -2.0532801151e+00
    5.3797245026e+01   -2.0656199455e+00
    5.3898445129e+01   -2.0783801079e+00
    5.3996906281e+01   -2.0908501148e+00
    5.4097717285e+01   -2.1036798954e+00
    5.4197616577e+01   -2.1164500713e+00
    5.4298179626e+01   -2.1293499470e+00
    5.4398288727e+01   -2.1422300339e+00
    5.4499633789e+01   -2.1553099155e+00
    5.4597366333e+01   -2.1679699421e+00
    5.4697776794e+01   -2.1810300350e+00
    5.4799037933e+01   -2.1942698956e+00
    5.4898460388e+01   -2.2073299885e+00
    5.4999576569e+01   -2.2207000256e+00
    5.5097434998e+01   -2.2337200642e+00
    5.5199214935e+01   -2.2473399639e+00
    5.5299663544e+01   -2.2608599663e+00
    5.5399677277e+01   -2.2743999958e+00
    5.5497642517e+01   -2.2877299786e+00
    5.5597816467e+01   -2.3014299870e+00
    5.5697303772e+01   -2.3151099682e+00
    5.5797233582e+01   -2.3289299011e+00
    5.5898429871e+01   -2.3430099487e+00
    5.5998657227e+01   -2.3570499420e+00
    5.6096908569e+01   -2.3709099293e+00
    5.6197391510e+01   -2.3851799965e+00
    5.6298645020e+01   -2.3996698856e+00
    5.6397018433e+01   -2.4138500690e+00
    5.6499591827e+01   -2.4287400246e+00
    5.6597183228e+01   -2.4429900646e+00
    5.6699062347e+01   -2.4579699039e+00
    5.6797500610e+01   -2.4725201130e+00
    5.6898845673e+01   -2.4876000881e+00
    5.6999496460e+01   -2.5026600361e+00
    5.7097530365e+01   -2.5174200535e+00
    5.7199539185e+01   -2.5328500271e+00
    5.7297977448e+01   -2.5478200912e+00
    5.7399467468e+01   -2.5633299351e+00
    5.7497383118e+01   -2.5783500671e+00
    5.7597335815e+01   -2.5937500000e+00
    5.7698707581e+01   -2.6094100475e+00
    5.7797157288e+01   -2.6246700287e+00
    5.7898479462e+01   -2.6404299736e+00
    5.7996875763e+01   -2.6557800770e+00
    5.8097724915e+01   -2.6715700626e+00
    5.8198951721e+01   -2.6874699593e+00
    5.8296779633e+01   -2.7028999329e+00
    5.8397552490e+01   -2.7188301086e+00
    5.8499511719e+01   -2.7350099087e+00
    5.8597862244e+01   -2.7506399155e+00
    5.8699073792e+01   -2.7667698860e+00
    5.8796977997e+01   -2.7823998928e+00
    5.8898269653e+01   -2.7985999584e+00
    5.8999568939e+01   -2.8148300648e+00
    5.9096981049e+01   -2.8304600716e+00
    5.9198596954e+01   -2.8468101025e+00
    5.9299503326e+01   -2.8630700111e+00
    5.9398372650e+01   -2.8790500164e+00
    5.9496665955e+01   -2.8949799538e+00
    5.9598667145e+01   -2.9115500450e+00
    5.9697093964e+01   -2.9275701046e+00
    5.9798450470e+01   -2.9441099167e+00
    5.9897960663e+01   -2.9603700638e+00
    5.9998714447e+01   -2.9768500328e+00
    6.0097549438e+01   -2.9930601120e+00
    6.0199367523e+01   -3.0097899437e+00
    6.0298969269e+01   -3.0262100697e+00
    6.0396930695e+01   -3.0424098969e+00
    6.0497882843e+01   -3.0591599941e+00
    6.0597320557e+01   -3.0757300854e+00
    6.0696704865e+01   -3.0923600197e+00
    6.0799045563e+01   -3.1095600128e+00
    6.0897533417e+01   -3.1261699200e+00
    6.0996948242e+01   -3.1430099010e+00
    6.1099380493e+01   -3.1604299545e+00
    6.1198226929e+01   -3.1773099899e+00
    6.1299629211e+01   -3.1947000027e+00
    6.1399047852e+01   -3.2118399143e+00
    6.1497985840e+01   -3.2289900780e+00
    6.1598667145e+01   -3.2465300560e+00
    6.1698490143e+01   -3.2640299797e+00
    6.1796958923e+01   -3.2813899517e+00
    6.1898296356e+01   -3.2993500233e+00
    6.1999614716e+01   -3.3173799515e+00
    6.2098617554e+01   -3.3350698948e+00
    6.2198146820e+01   -3.3529200554e+00
    6.2299568176e+01   -3.3711600304e+00
    6.2398868561e+01   -3.3890700340e+00
    6.2497322083e+01   -3.4068899155e+00
    6.2598678589e+01   -3.4252901077e+00
    6.2697109222e+01   -3.4432299137e+00
    6.2798397064e+01   -3.4617600441e+00
    6.2897315979e+01   -3.4799299240e+00
    6.2998157501e+01   -3.4985098839e+00
    6.3098064423e+01   -3.5169799328e+00
    6.3197929382e+01   -3.5354900360e+00
    6.3299263000e+01   -3.5543200970e+00
    6.3398269653e+01   -3.5727798939e+00
    6.3498832703e+01   -3.5915699005e+00
    6.3597949982e+01   -3.6101500988e+00
    6.3699249268e+01   -3.6292099953e+00
    6.3797641754e+01   -3.6477899551e+00
    6.3898914337e+01   -3.6669800282e+00
    6.3997306824e+01   -3.6856999397e+00
    6.4098884583e+01   -3.7051000595e+00
    6.4199554443e+01   -3.7243800163e+00
    6.4297851562e+01   -3.7432699203e+00
    6.4398559570e+01   -3.7626700401e+00
    6.4496910095e+01   -3.7816700935e+00
    6.4596954346e+01   -3.8010499477e+00
    6.4696998596e+01   -3.8204998970e+00
    6.4798362732e+01   -3.8402800560e+00
    6.4897712708e+01   -3.8597500324e+00
    6.4998382568e+01   -3.8795700073e+00
    6.5099082947e+01   -3.8994998932e+00
    6.5196884155e+01   -3.9189500809e+00
    6.5298324585e+01   -3.9392099380e+00
    6.5398803711e+01   -3.9593799114e+00
    6.5496704102e+01   -3.9791100025e+00
    6.5597015381e+01   -3.9994099140e+00
    6.5699356079e+01   -4.0202097893e+00
    6.5799064636e+01   -4.0405697823e+00
    6.5897445679e+01   -4.0607700348e+00
    6.5998283386e+01   -4.0815801620e+00
    6.6096603394e+01   -4.1019802094e+00
    6.6197532654e+01   -4.1230502129e+00
    6.6298873901e+01   -4.1443300247e+00
    6.6397331238e+01   -4.1651201248e+00
    6.6496742249e+01   -4.1862301826e+00
    6.6599296570e+01   -4.2081298828e+00
    6.6697807312e+01   -4.2292699814e+00
    6.6799232483e+01   -4.2511401176e+00
    6.6897773743e+01   -4.2725000381e+00
    6.6998497009e+01   -4.2944397926e+00
    6.7099395752e+01   -4.3165102005e+00
    6.7197929382e+01   -4.3381600380e+00
    6.7299362183e+01   -4.3605399132e+00
    6.7397979736e+01   -4.3823800087e+00
    6.7498786926e+01   -4.4047698975e+00
    6.7598541260e+01   -4.4269900322e+00
    6.7697128296e+01   -4.4490098953e+00
    6.7798583984e+01   -4.4717202187e+00
    6.7897117615e+01   -4.4938402176e+00
    6.7998512268e+01   -4.5166602135e+00
    6.8099464417e+01   -4.5394401550e+00
    6.8198211670e+01   -4.5617799759e+00
    6.8298873901e+01   -4.5846199989e+00
    6.8399513245e+01   -4.6075000763e+00
    6.8498092651e+01   -4.6299700737e+00
    6.8599418640e+01   -4.6531000137e+00
    6.8697807312e+01   -4.6756000519e+00
    6.8798660278e+01   -4.6986899376e+00
    6.8896942139e+01   -4.7212300301e+00
    6.8998298645e+01   -4.7444901466e+00
    6.9097198486e+01   -4.7672300339e+00
    6.9197990417e+01   -4.7904400826e+00
    6.9298789978e+01   -4.8136901855e+00
    6.9397819519e+01   -4.8365898132e+00
    6.9499267578e+01   -4.8600897789e+00
    6.9598472595e+01   -4.8831100464e+00
    6.9696990967e+01   -4.9060201645e+00
    6.9798454285e+01   -4.9296398163e+00
    6.9897857666e+01   -4.9528098106e+00
    6.9998748779e+01   -4.9763498306e+00
    7.0097549438e+01   -4.9994401932e+00
    7.0196594238e+01   -5.0226302147e+00
    7.0299308777e+01   -5.0467300415e+00
    7.0397270203e+01   -5.0697798729e+00
    7.0497833252e+01   -5.0935101509e+00
    7.0597160339e+01   -5.1170301437e+00
    7.0696517944e+01   -5.1406397820e+00
    7.0798896790e+01   -5.1650400162e+00
    7.0897644043e+01   -5.1886601448e+00
    7.0997871399e+01   -5.2127099037e+00
    7.1097663879e+01   -5.2367300987e+00
    7.1196792603e+01   -5.2606701851e+00
    7.1298309326e+01   -5.2852702141e+00
    7.1397712708e+01   -5.3094601631e+00
    7.1496971130e+01   -5.3337302208e+00
    7.1597366333e+01   -5.3583898544e+00
    7.1696670532e+01   -5.3829002380e+00
    7.1798141479e+01   -5.4080700874e+00
    7.1896690369e+01   -5.4326100349e+00
    7.1998115540e+01   -5.4579801559e+00
    7.2097534180e+01   -5.4829201698e+00
    7.2196853638e+01   -5.5079097748e+00
    7.2298370361e+01   -5.5335102081e+00
    7.2397949219e+01   -5.5586800575e+00
    7.2499389648e+01   -5.5843901634e+00
    7.2597946167e+01   -5.6094298363e+00
    7.2699356079e+01   -5.6352801323e+00
    7.2797828674e+01   -5.6604499817e+00
    7.2899055481e+01   -5.6864099503e+00
    7.2996826172e+01   -5.7115402222e+00
    7.3097061157e+01   -5.7373700142e+00
    7.3197174072e+01   -5.7632298470e+00
    7.3298583984e+01   -5.7894802094e+00
    7.3397590637e+01   -5.8151497841e+00
    7.3497947693e+01   -5.8412399292e+00
    7.3596824646e+01   -5.8669900894e+00
    7.3698204041e+01   -5.8934698105e+00
    7.3796669006e+01   -5.9192500114e+00
    7.3898017883e+01   -5.9458599091e+00
    7.3996559143e+01   -5.9718198776e+00
    7.4097869873e+01   -5.9985699654e+00
    7.4198799133e+01   -6.0252900124e+00
    7.4297157288e+01   -6.0513901711e+00
    7.4398628235e+01   -6.0783700943e+00
    7.4497062683e+01   -6.1045899391e+00
    7.4597007751e+01   -6.1312699318e+00
    7.4698799133e+01   -6.1585102081e+00
    7.4797355652e+01   -6.1849598885e+00
    7.4897003174e+01   -6.2117800713e+00
    7.4997543335e+01   -6.2389497757e+00
    7.5098121643e+01   -6.2662301064e+00
    7.5198593140e+01   -6.2935800552e+00
    7.5297058105e+01   -6.3204798698e+00
    7.5397483826e+01   -6.3480000496e+00
    7.5498275757e+01   -6.3757200241e+00
    7.5598358154e+01   -6.4033198357e+00
    7.5696479797e+01   -6.4304699898e+00
    7.5798194885e+01   -6.4587202072e+00
    7.5896682739e+01   -6.4861598015e+00
    7.5996902466e+01   -6.5142102242e+00
    7.6098403931e+01   -6.5427298546e+00
    7.6199264526e+01   -6.5712099075e+00
    7.6297813416e+01   -6.5991601944e+00
    7.6399276733e+01   -6.6280698776e+00
    7.6499114990e+01   -6.6566400528e+00
    7.6597778320e+01   -6.6849899292e+00
    7.6699279785e+01   -6.7142601013e+00
    7.6797889709e+01   -6.7428197861e+00
    7.6896522522e+01   -6.7714800835e+00
    7.6997261047e+01   -6.8008599281e+00
    7.7098182678e+01   -6.8303899765e+00
    7.7197074890e+01   -6.8594098091e+00
    7.7298988342e+01   -6.8894100189e+00
    7.7398254395e+01   -6.9187197685e+00
    7.7498970032e+01   -6.9485201836e+00
    7.7598258972e+01   -6.9779601097e+00
    7.7696952820e+01   -7.0072898865e+00
    7.7798522949e+01   -7.0375199318e+00
    7.7897163391e+01   -7.0669398308e+00
    7.7998672485e+01   -7.0972599983e+00
    7.8096832275e+01   -7.1266298294e+00
    7.8199188232e+01   -7.1573100090e+00
    7.8296745300e+01   -7.1866002083e+00
    7.8397239685e+01   -7.2168197632e+00
    7.8498985291e+01   -7.2474598885e+00
    7.8597518921e+01   -7.2771701813e+00
    7.8698905945e+01   -7.3077697754e+00
    7.8797134399e+01   -7.3374400139e+00
    7.8898582458e+01   -7.3681001663e+00
    7.8996955872e+01   -7.3978600502e+00
    7.9098747253e+01   -7.4286799431e+00
    7.9196449280e+01   -7.4582901001e+00
    7.9297119141e+01   -7.4888300896e+00
    7.9396659851e+01   -7.5190601349e+00
    7.9498184204e+01   -7.5499401093e+00
    7.9597999573e+01   -7.5803198814e+00
    7.9696594238e+01   -7.6103701591e+00
    7.9798126221e+01   -7.6413397789e+00
    7.9897415161e+01   -7.6716499329e+00
    7.9998184204e+01   -7.7024397850e+00
    8.0096794128e+01   -7.7326002121e+00
    8.0199180603e+01   -7.7639598846e+00
    8.0299003601e+01   -7.7945799828e+00
    8.0397033691e+01   -7.8246998787e+00
    8.0497505188e+01   -7.8556499481e+00
    8.0596870422e+01   -7.8863201141e+00
    8.0698944092e+01   -7.9179000854e+00
    8.0798385620e+01   -7.9487500191e+00
    8.0897232056e+01   -7.9794797897e+00
    8.0998184204e+01   -8.0109500885e+00
    8.1098243713e+01   -8.0422096252e+00
    8.1197662354e+01   -8.0733604431e+00
    8.1299293518e+01   -8.1052999496e+00
    8.1398757935e+01   -8.1366596222e+00
    8.1498016357e+01   -8.1680603027e+00
    8.1598648071e+01   -8.2000198364e+00
    8.1698013306e+01   -8.2316999435e+00
    8.1796699524e+01   -8.2632799149e+00
    8.1898262024e+01   -8.2958803177e+00
    8.1996902466e+01   -8.3276395798e+00
    8.2099266052e+01   -8.3606901169e+00
    8.2198585510e+01   -8.3928298950e+00
    8.2297119141e+01   -8.4247703552e+00
    8.2396781921e+01   -8.4571399689e+00
    8.2498329163e+01   -8.4901800156e+00
    8.2596969604e+01   -8.5223302841e+00
    8.2698471069e+01   -8.5554895401e+00
    8.2797027588e+01   -8.5877504349e+00
    8.2898483276e+01   -8.6210298538e+00
    8.2999084473e+01   -8.6540803909e+00
    8.3096488953e+01   -8.6861295700e+00
    8.3196487427e+01   -8.7190799713e+00
    8.3297966003e+01   -8.7525596619e+00
    8.3396858215e+01   -8.7852401733e+00
    8.3496849060e+01   -8.8183298111e+00
    8.3598541260e+01   -8.8520298004e+00
    8.3697082520e+01   -8.8847303391e+00
    8.3798507690e+01   -8.9184598923e+00
    8.3897033691e+01   -8.9512701035e+00
    8.3998573303e+01   -8.9851503372e+00
    8.4096755981e+01   -9.0179700851e+00
    8.4197944641e+01   -9.0518503189e+00
    8.4296394348e+01   -9.0848503113e+00
    8.4397941589e+01   -9.1189298630e+00
    8.4496452332e+01   -9.1520395279e+00
    8.4596809387e+01   -9.1858100891e+00
    8.4698425293e+01   -9.2200603485e+00
    8.4797088623e+01   -9.2533702850e+00
    8.4896705627e+01   -9.2870903015e+00
    8.4997116089e+01   -9.3211498260e+00
    8.5097579956e+01   -9.3553304672e+00
    8.5197616577e+01   -9.3894395828e+00
    8.5296203613e+01   -9.4231395721e+00
    8.5396934509e+01   -9.4576597214e+00
    8.5497657776e+01   -9.4922399521e+00
    8.5597854614e+01   -9.5267295837e+00
    8.5698532104e+01   -9.5614595413e+00
    8.5797813416e+01   -9.5957899094e+00
    8.5896377563e+01   -9.6299695969e+00
    8.5997039795e+01   -9.6649799347e+00
    8.6098609924e+01   -9.7004299164e+00
    8.6196571350e+01   -9.7347202301e+00
    8.6298088074e+01   -9.7703800201e+00
    8.6396728516e+01   -9.8051395416e+00
    8.6497428894e+01   -9.8407402039e+00
    8.6596443176e+01   -9.8758602142e+00
    8.6698013306e+01   -9.9119901657e+00
    8.6796707153e+01   -9.9471902847e+00
    8.6898315430e+01   -9.9835395813e+00
    8.6998779297e+01   -1.0019599915e+01
    8.7096687317e+01   -1.0054800034e+01
    8.7198814392e+01   -1.0091600418e+01
    8.7297546387e+01   -1.0127200127e+01
    8.7396362305e+01   -1.0163000107e+01
    8.7496994019e+01   -1.0199399948e+01
    8.7596382141e+01   -1.0235500336e+01
    8.7698097229e+01   -1.0272500038e+01
    8.7796867371e+01   -1.0308400154e+01
    8.7898521423e+01   -1.0345399857e+01
    8.7997230530e+01   -1.0381400108e+01
    8.8098396301e+01   -1.0418299675e+01
    8.8197509766e+01   -1.0454500198e+01
    8.8297859192e+01   -1.0491200447e+01
    8.8397262573e+01   -1.0527600288e+01
    8.8498840332e+01   -1.0564800262e+01
    8.8597473145e+01   -1.0600999832e+01
    8.8698944092e+01   -1.0638199806e+01
    8.8797798157e+01   -1.0674400330e+01
    8.8896240234e+01   -1.0710499763e+01
    8.8997772217e+01   -1.0747799873e+01
    8.9096260071e+01   -1.0783900261e+01
    8.9196746826e+01   -1.0820799828e+01
    8.9297241211e+01   -1.0857700348e+01
    8.9399078369e+01   -1.0895099640e+01
    8.9497581482e+01   -1.0931300163e+01
    8.9597274780e+01   -1.0968000412e+01
    8.9698837280e+01   -1.1005399704e+01
    8.9797538757e+01   -1.1041700363e+01
    8.9896286011e+01   -1.1078100204e+01
    8.9996917725e+01   -1.1115200043e+01
    9.0098526001e+01   -1.1152600288e+01
    9.0197662354e+01   -1.1189200401e+01
    9.0297492981e+01   -1.1225999832e+01
    9.0398429871e+01   -1.1263299942e+01
    9.0498687744e+01   -1.1300499916e+01
    9.0598045349e+01   -1.1337300301e+01
    9.0697341919e+01   -1.1374199867e+01
    9.0796890259e+01   -1.1411199570e+01
    9.0898941040e+01   -1.1449299812e+01
    9.0997215271e+01   -1.1486000061e+01
    9.1097610474e+01   -1.1523500443e+01
    9.1196975708e+01   -1.1560700417e+01
    9.1298728943e+01   -1.1598999977e+01
    9.1398193359e+01   -1.1636400223e+01
    9.1497718811e+01   -1.1673999786e+01
    9.1598068237e+01   -1.1711999893e+01
    9.1697769165e+01   -1.1749799728e+01
    9.1796569824e+01   -1.1787500381e+01
    9.1898254395e+01   -1.1826299667e+01
    9.1997001648e+01   -1.1864100456e+01
    9.2096206665e+01   -1.1902099609e+01
    9.2198371887e+01   -1.1941300392e+01
    9.2296989441e+01   -1.1979299545e+01
    9.2396743774e+01   -1.2017700195e+01
    9.2498359680e+01   -1.2056799889e+01
    9.2597076416e+01   -1.2094900131e+01
    9.2698646545e+01   -1.2134099960e+01
    9.2797256470e+01   -1.2172300339e+01
    9.2898628235e+01   -1.2211600304e+01
    9.2999099731e+01   -1.2250499725e+01
    9.3096504211e+01   -1.2288299561e+01
    9.3196578979e+01   -1.2327199936e+01
    9.3298126221e+01   -1.2366600037e+01
    9.3396736145e+01   -1.2404999733e+01
    9.3496719360e+01   -1.2443900108e+01
    9.3598266602e+01   -1.2483400345e+01
    9.3696891785e+01   -1.2521900177e+01
    9.3798408508e+01   -1.2561499596e+01
    9.3897033691e+01   -1.2600000381e+01
    9.3998863220e+01   -1.2639800072e+01
    9.4096923828e+01   -1.2678199768e+01
    9.4197853088e+01   -1.2717700005e+01
    9.4296401978e+01   -1.2756400108e+01
    9.4397918701e+01   -1.2796199799e+01
    9.4496528625e+01   -1.2834899902e+01
    9.4597923279e+01   -1.2874699593e+01
    9.4698951721e+01   -1.2914400101e+01
    9.4797721863e+01   -1.2953300476e+01
    9.4897262573e+01   -1.2992600441e+01
    9.4997543335e+01   -1.3032199860e+01
    9.5097877502e+01   -1.3071999550e+01
    9.5197532654e+01   -1.3111499786e+01
    9.5296211243e+01   -1.3150699615e+01
    9.5397621155e+01   -1.3191100121e+01
    9.5498245239e+01   -1.3231200218e+01
    9.5598564148e+01   -1.3271300316e+01
    9.5698234558e+01   -1.3311200142e+01
    9.5798896790e+01   -1.3351599693e+01
    9.5897514343e+01   -1.3391200066e+01
    9.5998237610e+01   -1.3431799889e+01
    9.6096794128e+01   -1.3471599579e+01
    9.6197540283e+01   -1.3512399673e+01
    9.6296234131e+01   -1.3552499771e+01
    9.6397842407e+01   -1.3593899727e+01
    9.6498649597e+01   -1.3635000229e+01
    9.6597656250e+01   -1.3675499916e+01
    9.6696395874e+01   -1.3716099739e+01
    9.6798065186e+01   -1.3757900238e+01
    9.6896850586e+01   -1.3798600197e+01
    9.6998130798e+01   -1.3840499878e+01
    9.7098793030e+01   -1.3882200241e+01
    9.7197608948e+01   -1.3923199654e+01
    9.7296424866e+01   -1.3964300156e+01
    9.7398498535e+01   -1.4006699562e+01
    9.7499061584e+01   -1.4048700333e+01
    9.7598541260e+01   -1.4090200424e+01
    9.7697456360e+01   -1.4131500244e+01
    9.7796340942e+01   -1.4172800064e+01
    9.7898101807e+01   -1.4215399742e+01
    9.7996917725e+01   -1.4256799698e+01
    9.8097290039e+01   -1.4298800468e+01
    9.8198738098e+01   -1.4341400146e+01
    9.8298004150e+01   -1.4383099556e+01
    9.8396781921e+01   -1.4424599648e+01
    9.8498451233e+01   -1.4467300415e+01
    9.8597175598e+01   -1.4508799553e+01
    9.8698730469e+01   -1.4551500320e+01
    9.8798194885e+01   -1.4593299866e+01
    9.8896713257e+01   -1.4634699821e+01
    9.8998306274e+01   -1.4677399635e+01
    9.9096656799e+01   -1.4718700409e+01
    9.9196929932e+01   -1.4760899544e+01
    9.9297218323e+01   -1.4803099632e+01
    9.9398681641e+01   -1.4845700264e+01
    9.9497253418e+01   -1.4887200356e+01
    9.9597183228e+01   -1.4929300308e+01
    9.9698814392e+01   -1.4972000122e+01
    9.9797599792e+01   -1.5013600349e+01
    9.9897293091e+01   -1.5055600166e+01
    9.9997817993e+01   -1.5097900391e+01
    1.0009641266e+02   -1.5139399529e+01
    1.0019843292e+02   -1.5182299614e+01
    1.0029827881e+02   -1.5224399567e+01
    1.0039640808e+02   -1.5265800476e+01
    1.0049726105e+02   -1.5308400154e+01
    1.0059674835e+02   -1.5350500107e+01
    1.0069609070e+02   -1.5392600060e+01
    1.0079869080e+02   -1.5436100006e+01
    1.0089778137e+02   -1.5478199959e+01
    1.0099626923e+02   -1.5520000458e+01
    1.0109673309e+02   -1.5562800407e+01
    1.0119641113e+02   -1.5605299950e+01
    1.0129830170e+02   -1.5648799896e+01
    1.0139785767e+02   -1.5691399574e+01
    1.0149732208e+02   -1.5734100342e+01
    1.0159741211e+02   -1.5777099609e+01
    1.0169705200e+02   -1.5820099831e+01
    1.0179888916e+02   -1.5864100456e+01
    1.0189777374e+02   -1.5906900406e+01
    1.0199662018e+02   -1.5949799538e+01
    1.0209867859e+02   -1.5994099617e+01
    1.0219799805e+02   -1.6037300110e+01
    1.0229669952e+02   -1.6080299377e+01
    1.0239669800e+02   -1.6123899460e+01
    1.0249839783e+02   -1.6168199539e+01
    1.0259719086e+02   -1.6211299896e+01
    1.0269882965e+02   -1.6255800247e+01
    1.0279752350e+02   -1.6298999786e+01
    1.0289864349e+02   -1.6343200684e+01
    1.0299604034e+02   -1.6385900497e+01
    1.0309616852e+02   -1.6429800034e+01
    1.0319632721e+02   -1.6473800659e+01
    1.0329797363e+02   -1.6518400192e+01
    1.0339668274e+02   -1.6561700821e+01
    1.0349714661e+02   -1.6605800629e+01
    1.0359880829e+02   -1.6650499344e+01
    1.0369754791e+02   -1.6694000244e+01
    1.0379627991e+02   -1.6737400055e+01
    1.0389791870e+02   -1.6782199860e+01
    1.0399665833e+02   -1.6825799942e+01
    1.0409773254e+02   -1.6870399475e+01
    1.0419876862e+02   -1.6915100098e+01
    1.0429740906e+02   -1.6958700180e+01
    1.0439866638e+02   -1.7003499985e+01
    1.0449736786e+02   -1.7047199249e+01
    1.0459880066e+02   -1.7092199326e+01
    1.0469856262e+02   -1.7136400223e+01
    1.0479743195e+02   -1.7180299759e+01
    1.0489691925e+02   -1.7224599838e+01
    1.0499703979e+02   -1.7269199371e+01
    1.0509722900e+02   -1.7313999176e+01
    1.0519770050e+02   -1.7358900070e+01
    1.0529646301e+02   -1.7403200150e+01
    1.0539820099e+02   -1.7448900223e+01
    1.0549873352e+02   -1.7494100571e+01
    1.0559615326e+02   -1.7538000107e+01
    1.0569606781e+02   -1.7583099365e+01
    1.0579656982e+02   -1.7628599167e+01
    1.0589814758e+02   -1.7674600601e+01
    1.0599873352e+02   -1.7720399857e+01
    1.0609732819e+02   -1.7765300751e+01
    1.0619795990e+02   -1.7811300278e+01
    1.0629669952e+02   -1.7856500626e+01
    1.0639804077e+02   -1.7903099060e+01
    1.0649609375e+02   -1.7948200226e+01
    1.0659844971e+02   -1.7995500565e+01
    1.0669728088e+02   -1.8041299820e+01
    1.0679612732e+02   -1.8087099075e+01
    1.0689791870e+02   -1.8134500504e+01
    1.0699629211e+02   -1.8180299759e+01
    1.0709712982e+02   -1.8227500916e+01
    1.0719609833e+02   -1.8273799896e+01
    1.0729839325e+02   -1.8321800232e+01
    1.0739832306e+02   -1.8368799210e+01
    1.0749881744e+02   -1.8416099548e+01
    1.0759844971e+02   -1.8462999344e+01
    1.0769750214e+02   -1.8509700775e+01
    1.0779651642e+02   -1.8556400299e+01
    1.0789842224e+02   -1.8604600906e+01
    1.0799735260e+02   -1.8651399612e+01
    1.0809693146e+02   -1.8698499680e+01
    1.0819715881e+02   -1.8746099472e+01
    1.0829608917e+02   -1.8792999268e+01
    1.0839785767e+02   -1.8841299057e+01
    1.0849671936e+02   -1.8888299942e+01
    1.0859844971e+02   -1.8936700821e+01
    1.0869719696e+02   -1.8983600616e+01
    1.0879640198e+02   -1.9030799866e+01
    1.0889808655e+02   -1.9079099655e+01
    1.0899668884e+02   -1.9125999451e+01
    1.0909715271e+02   -1.9173799515e+01
    1.0919722748e+02   -1.9221399307e+01
    1.0929731750e+02   -1.9268999100e+01
    1.0939640808e+02   -1.9316099167e+01
    1.0949816132e+02   -1.9364599228e+01
    1.0959810638e+02   -1.9412200928e+01
    1.0969696045e+02   -1.9459199905e+01
    1.0979878998e+02   -1.9507699966e+01
    1.0989733124e+02   -1.9554700851e+01
    1.0999887085e+02   -1.9603000641e+01
    1.1009745026e+02   -1.9649999619e+01
    1.1019689941e+02   -1.9697399139e+01
    1.1029682159e+02   -1.9745100021e+01
    1.1039808655e+02   -1.9793500900e+01
    1.1049884033e+02   -1.9841699600e+01
    1.1059845734e+02   -1.9889400482e+01
    1.1069803619e+02   -1.9937099457e+01
    1.1079779053e+02   -1.9985000610e+01
    1.1089704895e+02   -2.0032800674e+01
    1.1099852753e+02   -2.0081600189e+01
    1.1109597778e+02   -2.0128599167e+01
    1.1119873047e+02   -2.0178100586e+01
    1.1129786682e+02   -2.0226100922e+01
    1.1139753723e+02   -2.0274299622e+01
    1.1149681091e+02   -2.0322500229e+01
    1.1159700012e+02   -2.0371299744e+01
    1.1169679260e+02   -2.0420000076e+01
    1.1179875946e+02   -2.0469900131e+01
    1.1189824677e+02   -2.0518600464e+01
    1.1199723053e+02   -2.0567199707e+01
    1.1209626770e+02   -2.0615900040e+01
    1.1219869995e+02   -2.0666299820e+01
    1.1229750061e+02   -2.0715000153e+01
    1.1239778137e+02   -2.0764499664e+01
    1.1249667358e+02   -2.0813299179e+01
    1.1259848022e+02   -2.0863599777e+01
    1.1269731140e+02   -2.0912599564e+01
    1.1279609680e+02   -2.0961500168e+01
    1.1289774323e+02   -2.1011999130e+01
    1.1299800110e+02   -2.1061800003e+01
    1.1309828949e+02   -2.1111700058e+01
    1.1319838715e+02   -2.1161500931e+01
    1.1329725647e+02   -2.1210699081e+01
    1.1339608765e+02   -2.1259899139e+01
    1.1349697113e+02   -2.1310199738e+01
    1.1359876251e+02   -2.1361099243e+01
    1.1369763184e+02   -2.1410499573e+01
    1.1379649353e+02   -2.1459999084e+01
    1.1389826202e+02   -2.1510999680e+01
    1.1399745178e+02   -2.1560800552e+01
    1.1409829712e+02   -2.1611499786e+01
    1.1419690704e+02   -2.1661199570e+01
    1.1429875946e+02   -2.1712499619e+01
    1.1439685822e+02   -2.1761899948e+01
    1.1449875641e+02   -2.1813400269e+01
    1.1459683228e+02   -2.1862899780e+01
    1.1469642639e+02   -2.1913299561e+01
    1.1479830170e+02   -2.1965000153e+01
    1.1489778900e+02   -2.2015499115e+01
    1.1499771881e+02   -2.2066400528e+01
    1.1509774017e+02   -2.2117500305e+01
    1.1519731140e+02   -2.2168500900e+01
    1.1529617310e+02   -2.2219200134e+01
    1.1539814758e+02   -2.2271600723e+01
    1.1549604034e+02   -2.2322000504e+01
    1.1559696198e+02   -2.2374099731e+01
    1.1569770050e+02   -2.2426200867e+01
    1.1579734039e+02   -2.2477800369e+01
    1.1589608765e+02   -2.2529199600e+01
    1.1599674988e+02   -2.2581699371e+01
    1.1609851074e+02   -2.2634899139e+01
    1.1619590759e+02   -2.2686000824e+01
    1.1629765320e+02   -2.2739500046e+01
    1.1639611816e+02   -2.2791500092e+01
    1.1649617767e+02   -2.2844400406e+01
    1.1659871674e+02   -2.2898799896e+01
    1.1669767761e+02   -2.2951400757e+01
    1.1679666901e+02   -2.3004199982e+01
    1.1689859009e+02   -2.3058700562e+01
    1.1699732208e+02   -2.3111700058e+01
    1.1709819031e+02   -2.3165899277e+01
    1.1719770813e+02   -2.3219600677e+01
    1.1729747009e+02   -2.3273399353e+01
    1.1739778900e+02   -2.3327699661e+01
    1.1749823761e+02   -2.3382099152e+01
    1.1759802246e+02   -2.3436300278e+01
    1.1769725037e+02   -2.3490200043e+01
    1.1779644775e+02   -2.3544099808e+01
    1.1789852142e+02   -2.3599700928e+01
    1.1799761200e+02   -2.3653799057e+01
    1.1809664917e+02   -2.3707899094e+01
    1.1819857025e+02   -2.3763700485e+01
    1.1829756927e+02   -2.3817899704e+01
    1.1839659119e+02   -2.3872200012e+01
    1.1849851227e+02   -2.3928199768e+01
    1.1859748840e+02   -2.3982599258e+01
    1.1869638824e+02   -2.4036899567e+01
    1.1879844666e+02   -2.4093099594e+01
    1.1889718628e+02   -2.4147399902e+01
    1.1899591064e+02   -2.4201700211e+01
    1.1909710693e+02   -2.4257400513e+01
    1.1919700623e+02   -2.4312400818e+01
    1.1929694366e+02   -2.4367399216e+01
    1.1939716339e+02   -2.4422700882e+01
    1.1949597168e+02   -2.4477300644e+01
    1.1959858704e+02   -2.4533899307e+01
    1.1969763947e+02   -2.4588699341e+01
    1.1979670715e+02   -2.4643400192e+01
    1.1989584351e+02   -2.4698299408e+01
    1.1999723053e+02   -2.4754400253e+01
    1.2009609985e+02   -2.4809099197e+01
    1.2019564819e+02   -2.4864200592e+01
    1.2029586029e+02   -2.4919799805e+01
    1.2039730072e+02   -2.4976100922e+01
    1.2049788666e+02   -2.5032100677e+01
    1.2059765625e+02   -2.5087699890e+01
    1.2069728851e+02   -2.5143299103e+01
    1.2079715729e+02   -2.5199100494e+01
    1.2089642334e+02   -2.5254699707e+01
    1.2099806976e+02   -2.5311599731e+01
    1.2109584808e+02   -2.5366500854e+01
    1.2119602966e+02   -2.5422800064e+01
    1.2129643250e+02   -2.5479299545e+01
    1.2139623260e+02   -2.5535600662e+01
    1.2149800110e+02   -2.5593200684e+01
    1.2159812927e+02   -2.5649999619e+01
    1.2169751740e+02   -2.5706499100e+01
    1.2179673004e+02   -2.5763099670e+01
    1.2189659119e+02   -2.5820100784e+01
    1.2199864197e+02   -2.5878599167e+01
    1.2209774017e+02   -2.5935499191e+01
    1.2219712830e+02   -2.5992599487e+01
    1.2229606628e+02   -2.6049600601e+01
    1.2239723206e+02   -2.6107799530e+01
    1.2249627686e+02   -2.6165000916e+01
    1.2259824371e+02   -2.6223899841e+01
    1.2269721985e+02   -2.6281200409e+01
    1.2279615021e+02   -2.6338600159e+01
    1.2289792633e+02   -2.6397800446e+01
    1.2299790192e+02   -2.6455900192e+01
    1.2309812164e+02   -2.6514299393e+01
    1.2319837952e+02   -2.6572799683e+01
    1.2329740143e+02   -2.6630699158e+01
    1.2339640045e+02   -2.6688600540e+01
    1.2349739838e+02   -2.6747699738e+01
    1.2359644318e+02   -2.6805799484e+01
    1.2369834900e+02   -2.6865699768e+01
    1.2379734039e+02   -2.6923999786e+01
    1.2389633942e+02   -2.6982400894e+01
    1.2399862671e+02   -2.7042900085e+01
    1.2409597778e+02   -2.7100500107e+01
    1.2419818115e+02   -2.7161199570e+01
    1.2429708862e+02   -2.7219900131e+01
    1.2439604187e+02   -2.7278799057e+01
    1.2449810028e+02   -2.7339599609e+01
    1.2459866333e+02   -2.7399599075e+01
    1.2469802094e+02   -2.7459100723e+01
    1.2479712677e+02   -2.7518499374e+01
    1.2489721680e+02   -2.7578599930e+01
    1.2499693298e+02   -2.7638700485e+01
    1.2509674072e+02   -2.7698999405e+01
    1.2519627380e+02   -2.7759199142e+01
    1.2529804230e+02   -2.7820999146e+01
    1.2539710236e+02   -2.7881299973e+01
    1.2549848175e+02   -2.7943199158e+01
    1.2559779358e+02   -2.8003900528e+01
    1.2569674683e+02   -2.8064500809e+01
    1.2579627228e+02   -2.8125699997e+01
    1.2589810181e+02   -2.8188499451e+01
    1.2599584198e+02   -2.8248899460e+01
    1.2609777069e+02   -2.8312099457e+01
    1.2619818878e+02   -2.8374500275e+01
    1.2629826355e+02   -2.8437000275e+01
    1.2639833069e+02   -2.8499500275e+01
    1.2649697113e+02   -2.8561399460e+01
    1.2659825134e+02   -2.8625099182e+01
    1.2669740295e+02   -2.8687599182e+01
    1.2679657745e+02   -2.8750299454e+01
    1.2689576721e+02   -2.8813199997e+01
    1.2699786377e+02   -2.8878099442e+01
    1.2709593201e+02   -2.8940500259e+01
    1.2719586945e+02   -2.9004400253e+01
    1.2729583740e+02   -2.9068300247e+01
    1.2739585114e+02   -2.9132400513e+01
    1.2749623108e+02   -2.9196899414e+01
    1.2759603119e+02   -2.9260999680e+01
    1.2769841766e+02   -2.9326900482e+01
    1.2779785156e+02   -2.9391000748e+01
    1.2789723206e+02   -2.9455200195e+01
    1.2799653625e+02   -2.9519399643e+01
    1.2809631348e+02   -2.9583999634e+01
    1.2819665527e+02   -2.9649000168e+01
    1.2829588318e+02   -2.9713499069e+01
    1.2839804077e+02   -2.9780000687e+01
    1.2849728394e+02   -2.9844600677e+01
    1.2859649658e+02   -2.9909299850e+01
    1.2869854736e+02   -2.9975900650e+01
    1.2879736328e+02   -3.0040399551e+01
    1.2889633179e+02   -3.0104999542e+01
    1.2899836731e+02   -3.0171699524e+01
    1.2909622192e+02   -3.0235700607e+01
    1.2919592285e+02   -3.0301000595e+01
    1.2929858398e+02   -3.0368299484e+01
    1.2939643860e+02   -3.0432500839e+01
    1.2949858093e+02   -3.0499599457e+01
    1.2959843445e+02   -3.0565299988e+01
    1.2969607544e+02   -3.0629499435e+01
    1.2979850769e+02   -3.0697000504e+01
    1.2989788818e+02   -3.0762500763e+01
    1.2999841309e+02   -3.0828800201e+01
    1.3009725952e+02   -3.0893999100e+01
    1.3019726562e+02   -3.0960100174e+01
    1.3029771423e+02   -3.1026500702e+01
    1.3039640808e+02   -3.1091899872e+01
    1.3049732971e+02   -3.1158899307e+01
    1.3059719849e+02   -3.1225299835e+01
    1.3069697571e+02   -3.1291799545e+01
    1.3079690552e+02   -3.1358400345e+01
    1.3089837646e+02   -3.1426200867e+01
    1.3099623108e+02   -3.1491699219e+01
    1.3109761047e+02   -3.1559600830e+01
    1.3119572449e+02   -3.1625499725e+01
    1.3129827881e+02   -3.1694400787e+01
    1.3139822388e+02   -3.1761699677e+01
    1.3149719238e+02   -3.1828500748e+01
    1.3159745789e+02   -3.1896400452e+01
    1.3169688416e+02   -3.1963899612e+01
    1.3179627991e+02   -3.2031600952e+01
    1.3189637756e+02   -3.2099899292e+01
    1.3199879456e+02   -3.2169998169e+01
    1.3209808350e+02   -3.2238098145e+01
    1.3219775391e+02   -3.2306598663e+01
    1.3229690552e+02   -3.2374698639e+01
    1.3239843750e+02   -3.2444698334e+01
    1.3249768066e+02   -3.2513099670e+01
    1.3259692383e+02   -3.2581699371e+01
    1.3269609070e+02   -3.2650299072e+01
    1.3279812622e+02   -3.2721099854e+01
    1.3289715576e+02   -3.2789901733e+01
    1.3299708557e+02   -3.2859500885e+01
    1.3309721375e+02   -3.2929298401e+01
    1.3319749451e+02   -3.2999298096e+01
    1.3329670715e+02   -3.3068599701e+01
    1.3339878845e+02   -3.3140098572e+01
    1.3349740601e+02   -3.3209201813e+01
    1.3359660339e+02   -3.3278900146e+01
    1.3369868469e+02   -3.3350700378e+01
    1.3379783630e+02   -3.3420600891e+01
    1.3389700317e+02   -3.3490600586e+01
    1.3399871826e+02   -3.3562698364e+01
    1.3409791565e+02   -3.3632999420e+01
    1.3419795227e+02   -3.3704101562e+01
    1.3429705811e+02   -3.3774700165e+01
    1.3439614868e+02   -3.3845298767e+01
    1.3449836731e+02   -3.3918399811e+01
    1.3459866333e+02   -3.3990100861e+01
    1.3469790649e+02   -3.4061298370e+01
    1.3479722595e+02   -3.4132701874e+01
    1.3489712524e+02   -3.4204700470e+01
    1.3499661255e+02   -3.4276500702e+01
    1.3509623718e+02   -3.4348701477e+01
    1.3519889832e+02   -3.4423198700e+01
    1.3529789734e+02   -3.4495201111e+01
    1.3539724731e+02   -3.4567699432e+01
    1.3549644470e+02   -3.4640201569e+01
    1.3559886169e+02   -3.4715301514e+01
    1.3569735718e+02   -3.4787601471e+01
    1.3579658508e+02   -3.4860599518e+01
    1.3589863586e+02   -3.4935901642e+01
    1.3599894714e+02   -3.5010101318e+01
    1.3609800720e+02   -3.5083499908e+01
    1.3619635010e+02   -3.5156600952e+01
    1.3629757690e+02   -3.5232101440e+01
    1.3639764404e+02   -3.5306800842e+01
    1.3649685669e+02   -3.5381099701e+01
    1.3659835815e+02   -3.5457298279e+01
    1.3669772339e+02   -3.5532001495e+01
    1.3679710388e+02   -3.5606899261e+01
    1.3689649963e+02   -3.5681900024e+01
    1.3699801636e+02   -3.5758701324e+01
    1.3709744263e+02   -3.5834098816e+01
    1.3719804382e+02   -3.5910499573e+01
    1.3729844666e+02   -3.5986900330e+01
    1.3739845276e+02   -3.6063098907e+01
    1.3749873352e+02   -3.6139598846e+01
    1.3759858704e+02   -3.6215900421e+01
    1.3769830322e+02   -3.6292098999e+01
    1.3779800415e+02   -3.6368400574e+01
    1.3789762878e+02   -3.6444801331e+01
    1.3799719238e+02   -3.6521301270e+01
    1.3809832764e+02   -3.6598999023e+01
    1.3819886780e+02   -3.6676399231e+01
    1.3829821777e+02   -3.6752998352e+01
    1.3839749146e+02   -3.6829700470e+01
    1.3849670410e+02   -3.6906398773e+01
    1.3859907532e+02   -3.6985599518e+01
    1.3869848633e+02   -3.7062599182e+01
    1.3879812622e+02   -3.7139801025e+01
    1.3889735413e+02   -3.7216800690e+01
    1.3899655151e+02   -3.7293899536e+01
    1.3909751892e+02   -3.7372299194e+01
    1.3919696045e+02   -3.7449699402e+01
    1.3929641724e+02   -3.7527198792e+01
    1.3939691162e+02   -3.7605499268e+01
    1.3949929810e+02   -3.7685501099e+01
    1.3959913635e+02   -3.7763500214e+01
    1.3969635010e+02   -3.7839599609e+01
    1.3979904175e+02   -3.7920101166e+01
    1.3989779663e+02   -3.7997501373e+01
    1.3999772644e+02   -3.8075901031e+01
    1.4009678650e+02   -3.8153598785e+01
    1.4019720459e+02   -3.8232601166e+01
    1.4029762268e+02   -3.8311599731e+01
    1.4039637756e+02   -3.8389400482e+01
    1.4049839783e+02   -3.8470001221e+01
    1.4059843445e+02   -3.8549098969e+01
    1.4069837952e+02   -3.8628200531e+01
    1.4079846191e+02   -3.8707599640e+01
    1.4089915466e+02   -3.8787601471e+01
    1.4099670410e+02   -3.8865200043e+01
    1.4109852600e+02   -3.8946300507e+01
    1.4119778442e+02   -3.9025501251e+01
    1.4129908752e+02   -3.9106399536e+01
    1.4139923096e+02   -3.9186500549e+01
    1.4149645996e+02   -3.9264400482e+01
    1.4159671021e+02   -3.9344898224e+01
    1.4169926453e+02   -3.9427501678e+01
    1.4179884338e+02   -3.9507999420e+01
    1.4189903259e+02   -3.9589000702e+01
    1.4199874878e+02   -3.9669898987e+01
    1.4209823608e+02   -3.9750701904e+01
    1.4219827271e+02   -3.9832099915e+01
    1.4229757690e+02   -3.9912998199e+01
    1.4239945984e+02   -3.9995998383e+01
    1.4249888611e+02   -4.0077201843e+01
    1.4259843445e+02   -4.0158500671e+01
    1.4269778442e+02   -4.0239799500e+01
    1.4279704285e+02   -4.0321201324e+01
    1.4289918518e+02   -4.0404998779e+01
    1.4299882507e+02   -4.0486900330e+01
    1.4309904480e+02   -4.0569400787e+01
    1.4319660950e+02   -4.0649799347e+01
    1.4329893494e+02   -4.0734199524e+01
    1.4339813232e+02   -4.0816101074e+01
    1.4349688721e+02   -4.0897701263e+01
    1.4359902954e+02   -4.0982299805e+01
    1.4369813538e+02   -4.1064399719e+01
    1.4379718018e+02   -4.1146701813e+01
    1.4389906311e+02   -4.1231498718e+01
    1.4399838257e+02   -4.1314300537e+01
    1.4409762573e+02   -4.1397098541e+01
    1.4419741821e+02   -4.1480598450e+01
    1.4429930115e+02   -4.1565898895e+01
    1.4439808655e+02   -4.1648799896e+01
    1.4449690247e+02   -4.1731800079e+01
    1.4459724426e+02   -4.1816299438e+01
    1.4469912720e+02   -4.1902198792e+01
    1.4479847717e+02   -4.1986099243e+01
    1.4489784241e+02   -4.2070201874e+01
    1.4499708557e+02   -4.2154399872e+01
    1.4509939575e+02   -4.2241401672e+01
    1.4519889832e+02   -4.2326198578e+01
    1.4529689026e+02   -4.2409801483e+01
    1.4539659119e+02   -4.2495098114e+01
    1.4549940491e+02   -4.2583099365e+01
    1.4559890747e+02   -4.2668498993e+01
    1.4569757080e+02   -4.2753200531e+01
    1.4579705811e+02   -4.2838901520e+01
    1.4589936829e+02   -4.2927101135e+01
    1.4599685669e+02   -4.3011199951e+01
    1.4609925842e+02   -4.3099800110e+01
    1.4619770813e+02   -4.3185100555e+01
    1.4629891968e+02   -4.3272899628e+01
    1.4639865112e+02   -4.3359600067e+01
    1.4649757385e+02   -4.3445701599e+01
    1.4659890747e+02   -4.3534000397e+01
    1.4669848633e+02   -4.3620998383e+01
    1.4679806519e+02   -4.3708000183e+01
    1.4689761353e+02   -4.3795101166e+01
    1.4699760437e+02   -4.3882801056e+01
    1.4709765625e+02   -4.3970500946e+01
    1.4719848633e+02   -4.4059101105e+01
    1.4729911804e+02   -4.4147499084e+01
    1.4739939880e+02   -4.4235698700e+01
    1.4749960327e+02   -4.4324001312e+01
    1.4759954834e+02   -4.4411998749e+01
    1.4769949341e+02   -4.4500198364e+01
    1.4779939270e+02   -4.4588298798e+01
    1.4789927673e+02   -4.4676601410e+01
    1.4799908447e+02   -4.4764801025e+01
    1.4809819031e+02   -4.4852600098e+01
    1.4819799805e+02   -4.4941001892e+01
    1.4829713440e+02   -4.5028999329e+01
    1.4839907837e+02   -4.5119499207e+01
    1.4849815369e+02   -4.5207599640e+01
    1.4859788513e+02   -4.5296298981e+01
    1.4869757080e+02   -4.5384998322e+01
    1.4879777527e+02   -4.5474300385e+01
    1.4889901733e+02   -4.5564601898e+01
    1.4899789429e+02   -4.5652801514e+01
    1.4909721375e+02   -4.5741500854e+01
    1.4919915771e+02   -4.5832599640e+01
    1.4929820251e+02   -4.5921298981e+01
    1.4939784241e+02   -4.6010501862e+01
    1.4949815369e+02   -4.6100498199e+01
    1.4959732056e+02   -4.6189498901e+01
    1.4969946289e+02   -4.6281200409e+01
    1.4979916382e+02   -4.6370899200e+01
    1.4989727783e+02   -4.6459098816e+01
    1.4999972534e+02   -4.6551300049e+01
    1.5009852600e+02   -4.6640399933e+01
    1.5019892883e+02   -4.6730899811e+01
    1.5029927063e+02   -4.6821399689e+01
    1.5039811707e+02   -4.6910800934e+01
    1.5049774170e+02   -4.7000900269e+01
    1.5059834290e+02   -4.7091999054e+01
    1.5069851685e+02   -4.7182899475e+01
    1.5079872131e+02   -4.7273899078e+01
    1.5089892578e+02   -4.7365001678e+01
    1.5099935913e+02   -4.7456401825e+01
    1.5109774780e+02   -4.7546001434e+01
    1.5119700623e+02   -4.7636398315e+01
    1.5129869080e+02   -4.7729099274e+01
    1.5139784241e+02   -4.7819599152e+01
    1.5149847412e+02   -4.7911598206e+01
    1.5159919739e+02   -4.8003799438e+01
    1.5169900513e+02   -4.8095199585e+01
    1.5179873657e+02   -4.8186798096e+01
    1.5189889526e+02   -4.8278900146e+01
    1.5199873352e+02   -4.8370800018e+01
    1.5209834290e+02   -4.8462600708e+01
    1.5219880676e+02   -4.8555198669e+01
    1.5229789734e+02   -4.8646598816e+01
    1.5239924622e+02   -4.8740100861e+01
    1.5249899292e+02   -4.8832099915e+01
    1.5259887695e+02   -4.8924301147e+01
    1.5269833374e+02   -4.9016201019e+01
    1.5279774475e+02   -4.9108001709e+01
    1.5290005493e+02   -4.9202701569e+01
    1.5299955750e+02   -4.9294700623e+01
    1.5309942627e+02   -4.9387199402e+01
    1.5320007324e+02   -4.9480400085e+01
    1.5329968262e+02   -4.9572700500e+01
    1.5339871216e+02   -4.9664501190e+01
    1.5349993896e+02   -4.9758399963e+01
    1.5359887695e+02   -4.9850299835e+01
    1.5369766235e+02   -4.9942001343e+01
    1.5379922485e+02   -5.0036499023e+01
    1.5389782715e+02   -5.0128398895e+01
    1.5399966431e+02   -5.0223400116e+01
    1.5409881592e+02   -5.0316001892e+01
    1.5419761658e+02   -5.0408401489e+01
    1.5429908752e+02   -5.0503398895e+01
    1.5439747620e+02   -5.0595600128e+01
    1.5449896240e+02   -5.0690898895e+01
    1.5459909058e+02   -5.0784900665e+01
    1.5469764709e+02   -5.0877700806e+01
    1.5479989624e+02   -5.0973999023e+01
    1.5489924622e+02   -5.1067699432e+01
    1.5499812317e+02   -5.1161201477e+01
    1.5510008240e+02   -5.1257701874e+01
    1.5519926453e+02   -5.1351699829e+01
    1.5529891968e+02   -5.1446300507e+01
    1.5539839172e+02   -5.1540798187e+01
    1.5549804688e+02   -5.1635601044e+01
    1.5559742737e+02   -5.1730201721e+01
    1.5569804382e+02   -5.1826099396e+01
    1.5579777527e+02   -5.1921199799e+01
    1.5589738464e+02   -5.2016201019e+01
    1.5599783325e+02   -5.2112201691e+01
    1.5609727478e+02   -5.2207199097e+01
    1.5619941711e+02   -5.2304901123e+01
    1.5629753113e+02   -5.2398799896e+01
    1.5639733887e+02   -5.2494400024e+01
    1.5649914551e+02   -5.2591999054e+01
    1.5659881592e+02   -5.2687599182e+01
    1.5669854736e+02   -5.2783298492e+01
    1.5679826355e+02   -5.2879001617e+01
    1.5689796448e+02   -5.2974800110e+01
    1.5699757385e+02   -5.3070499420e+01
    1.5709776306e+02   -5.3166801453e+01
    1.5719868469e+02   -5.3263698578e+01
    1.5729939270e+02   -5.3360500336e+01
    1.5739967346e+02   -5.3456901550e+01
    1.5749963379e+02   -5.3553001404e+01
    1.5759965515e+02   -5.3649200439e+01
    1.5769961548e+02   -5.3745300293e+01
    1.5779951477e+02   -5.3841400146e+01
    1.5789947510e+02   -5.3937599182e+01
    1.5799940491e+02   -5.4033699036e+01
    1.5809764099e+02   -5.4128299713e+01
    1.5820002747e+02   -5.4226898193e+01
    1.5829898071e+02   -5.4322299957e+01
    1.5839779663e+02   -5.4417499542e+01
    1.5850007629e+02   -5.4516201019e+01
    1.5860003662e+02   -5.4612598419e+01
    1.5869755554e+02   -5.4706699371e+01
    1.5880044556e+02   -5.4806098938e+01
    1.5889900208e+02   -5.4901199341e+01
    1.5900042725e+02   -5.4999198914e+01
    1.5909895325e+02   -5.5094501495e+01
    1.5920042419e+02   -5.5192600250e+01
    1.5929898071e+02   -5.5287998199e+01
    1.5939840698e+02   -5.5384300232e+01
    1.5949778748e+02   -5.5480598450e+01
    1.5959934998e+02   -5.5579101562e+01
    1.5969805908e+02   -5.5674900055e+01
    1.5979974365e+02   -5.5773601532e+01
    1.5989863586e+02   -5.5869701385e+01
    1.6000053406e+02   -5.5968700409e+01
    1.6009906006e+02   -5.6064498901e+01
    1.6019934082e+02   -5.6162101746e+01
    1.6029916382e+02   -5.6259201050e+01
    1.6039791870e+02   -5.6355400085e+01
    1.6049786377e+02   -5.6452800751e+01
    1.6059939575e+02   -5.6551898956e+01
    1.6069981384e+02   -5.6649898529e+01
    1.6080000305e+02   -5.6747798920e+01
    1.6090029907e+02   -5.6845798492e+01
    1.6099771118e+02   -5.6941001892e+01
    1.6109846497e+02   -5.7039398193e+01
    1.6120046997e+02   -5.7139099121e+01
    1.6129890442e+02   -5.7235298157e+01
    1.6139944458e+02   -5.7333599091e+01
    1.6149827576e+02   -5.7430198669e+01
    1.6159930420e+02   -5.7528900146e+01
    1.6169924927e+02   -5.7626701355e+01
    1.6179910278e+02   -5.7724399567e+01
    1.6189918518e+02   -5.7822299957e+01
    1.6199902344e+02   -5.7919998169e+01
    1.6209866333e+02   -5.8017501831e+01
    1.6219996643e+02   -5.8116600037e+01
    1.6229890442e+02   -5.8213298798e+01
    1.6239979553e+02   -5.8311798096e+01
    1.6249963379e+02   -5.8409198761e+01
    1.6259974670e+02   -5.8506801605e+01
    1.6269804382e+02   -5.8602600098e+01
    1.6279859924e+02   -5.8700500488e+01
    1.6289808655e+02   -5.8797401428e+01
    1.6300056458e+02   -5.8897098541e+01
    1.6310054016e+02   -5.8994300842e+01
    1.6320062256e+02   -5.9091598511e+01
    1.6330038452e+02   -5.9188598633e+01
    1.6340011597e+02   -5.9285499573e+01
    1.6349794006e+02   -5.9380599976e+01
    1.6359959412e+02   -5.9479400635e+01
    1.6369812012e+02   -5.9575199127e+01
    1.6379937744e+02   -5.9673698425e+01
    1.6390052795e+02   -5.9772201538e+01
    1.6399870300e+02   -5.9867900848e+01
    1.6409967041e+02   -5.9966300964e+01
    1.6420057678e+02   -6.0064800262e+01
    1.6430026245e+02   -6.0162200928e+01
    1.6439811707e+02   -6.0257900238e+01
    1.6449902344e+02   -6.0356601715e+01
    1.6459872437e+02   -6.0454200745e+01
    1.6469958496e+02   -6.0553100586e+01
    1.6479811096e+02   -6.0649700165e+01
    1.6489971924e+02   -6.0749500275e+01
    1.6499804688e+02   -6.0846199036e+01
    1.6509944153e+02   -6.0945899963e+01
    1.6519812012e+02   -6.1043098450e+01
    1.6529949951e+02   -6.1143001556e+01
    1.6539848328e+02   -6.1240699768e+01
    1.6550077820e+02   -6.1341598511e+01
    1.6559991455e+02   -6.1439399719e+01
    1.6570046997e+02   -6.1538700104e+01
    1.6580044556e+02   -6.1637401581e+01
    1.6590026855e+02   -6.1736000061e+01
    1.6599803162e+02   -6.1832500458e+01
    1.6610078430e+02   -6.1933998108e+01
    1.6619909668e+02   -6.2031101227e+01
    1.6629939270e+02   -6.2130100250e+01
    1.6639916992e+02   -6.2228599548e+01
    1.6649894714e+02   -6.2327098846e+01
    1.6659872437e+02   -6.2425598145e+01
    1.6669909668e+02   -6.2524700165e+01
    1.6679891968e+02   -6.2623100281e+01
    1.6689869690e+02   -6.2721500397e+01
    1.6699838257e+02   -6.2819599152e+01
    1.6709837341e+02   -6.2917999268e+01
    1.6719935608e+02   -6.3017398834e+01
    1.6730012512e+02   -6.3116401672e+01
    1.6740025330e+02   -6.3214599609e+01
    1.6750022888e+02   -6.3312698364e+01
    1.6760023499e+02   -6.3410701752e+01
    1.6770022583e+02   -6.3508598328e+01
    1.6780007935e+02   -6.3606300354e+01
    1.6789996338e+02   -6.3703899384e+01
    1.6799894714e+02   -6.3800598145e+01
    1.6809992981e+02   -6.3899200439e+01
    1.6819903564e+02   -6.3995899200e+01
    1.6830087280e+02   -6.4095199585e+01
    1.6839961243e+02   -6.4191497803e+01
    1.6849880981e+02   -6.4288101196e+01
    1.6859889221e+02   -6.4385597229e+01
    1.6869902039e+02   -6.4483100891e+01
    1.6879899597e+02   -6.4580398560e+01
    1.6890019226e+02   -6.4678901672e+01
    1.6899842834e+02   -6.4774497986e+01
    1.6909951782e+02   -6.4872802734e+01
    1.6920059204e+02   -6.4971199036e+01
    1.6929873657e+02   -6.5066703796e+01
    1.6939808655e+02   -6.5163398743e+01
    1.6950070190e+02   -6.5263298035e+01
    1.6959881592e+02   -6.5358901978e+01
    1.6969984436e+02   -6.5457397461e+01
    1.6980093384e+02   -6.5555900574e+01
    1.6989918518e+02   -6.5651702881e+01
    1.7000041199e+02   -6.5750396729e+01
    1.7010070801e+02   -6.5848197937e+01
    1.7020014954e+02   -6.5945297241e+01
    1.7029913330e+02   -6.6041801453e+01
    1.7040078735e+02   -6.6141098022e+01
    1.7050038147e+02   -6.6238296509e+01
    1.7059931946e+02   -6.6334899902e+01
    1.7070062256e+02   -6.6433898926e+01
    1.7080021667e+02   -6.6531097412e+01
    1.7089996338e+02   -6.6628501892e+01
    1.7100004578e+02   -6.6726196289e+01
    1.7110087585e+02   -6.6824501038e+01
    1.7119897461e+02   -6.6920196533e+01
    1.7130047607e+02   -6.7018997192e+01
    1.7139909363e+02   -6.7114997864e+01
    1.7149905396e+02   -6.7212196350e+01
    1.7160076904e+02   -6.7310997009e+01
    1.7169842529e+02   -6.7405799866e+01
    1.7179838562e+02   -6.7502700806e+01
    1.7190122986e+02   -6.7602401733e+01
    1.7200105286e+02   -6.7698997498e+01
    1.7210066223e+02   -6.7795303345e+01
    1.7219992065e+02   -6.7891098022e+01
    1.7229861450e+02   -6.7986099243e+01
    1.7239880371e+02   -6.8082496643e+01
    1.7249850464e+02   -6.8178100586e+01
    1.7259887695e+02   -6.8274299622e+01
    1.7269966125e+02   -6.8370597839e+01
    1.7280107117e+02   -6.8467399597e+01
    1.7290054321e+02   -6.8562202454e+01
    1.7300007629e+02   -6.8656898499e+01
    1.7310081482e+02   -6.8752700806e+01
    1.7320054626e+02   -6.8847297668e+01
    1.7330026245e+02   -6.8941902161e+01
    1.7340069580e+02   -6.9037002563e+01
    1.7349873352e+02   -6.9129798889e+01
    1.7360037231e+02   -6.9225898743e+01
    1.7369882202e+02   -6.9319000244e+01
    1.7379991150e+02   -6.9414596558e+01
    1.7390081787e+02   -6.9510002136e+01
    1.7399867249e+02   -6.9602500916e+01
    1.7409928894e+02   -6.9697700500e+01
    1.7419975281e+02   -6.9792800903e+01
    1.7430009460e+02   -6.9887802124e+01
    1.7439906311e+02   -6.9981597900e+01
    1.7449938965e+02   -7.0076698303e+01
    1.7459956360e+02   -7.0171699524e+01
    1.7469976807e+02   -7.0266799927e+01
    1.7480075073e+02   -7.0362602234e+01
    1.7490130615e+02   -7.0458198547e+01
    1.7499894714e+02   -7.0551002502e+01
    1.7509963989e+02   -7.0646797180e+01
    1.7520054626e+02   -7.0742897034e+01
    1.7530018616e+02   -7.0837799072e+01
    1.7539854431e+02   -7.0931503296e+01
    1.7550016785e+02   -7.1028396606e+01
    1.7560113525e+02   -7.1124603271e+01
    1.7569869995e+02   -7.1217498779e+01
    1.7579899597e+02   -7.1313102722e+01
    1.7589888000e+02   -7.1408203125e+01
    1.7600088501e+02   -7.1505302429e+01
    1.7610087585e+02   -7.1600402832e+01
    1.7620086670e+02   -7.1695503235e+01
    1.7629940796e+02   -7.1789199829e+01
    1.7639942932e+02   -7.1884101868e+01
    1.7649940491e+02   -7.1978996277e+01
    1.7659934998e+02   -7.2073799133e+01
    1.7669929504e+02   -7.2168403625e+01
    1.7679924011e+02   -7.2262901306e+01
    1.7689910889e+02   -7.2357200623e+01
    1.7699890137e+02   -7.2451202393e+01
    1.7709878540e+02   -7.2545196533e+01
    1.7719978333e+02   -7.2639999390e+01
    1.7729963684e+02   -7.2733596802e+01
    1.7739955139e+02   -7.2827003479e+01
    1.7749954224e+02   -7.2920303345e+01
    1.7759953308e+02   -7.3013397217e+01
    1.7769949341e+02   -7.3106300354e+01
    1.7779942322e+02   -7.3198997498e+01
    1.7789976501e+02   -7.3291801453e+01
    1.7799899292e+02   -7.3383499146e+01
    1.7810101318e+02   -7.3477500916e+01
    1.7820033264e+02   -7.3568901062e+01
    1.7829945374e+02   -7.3660003662e+01
    1.7840133667e+02   -7.3753402710e+01
    1.7850086975e+02   -7.3844497681e+01
    1.7860093689e+02   -7.3936096191e+01
    1.7869949341e+02   -7.4026100159e+01
    1.7879885864e+02   -7.4116699219e+01
    1.7890013123e+02   -7.4208999634e+01
    1.7900125122e+02   -7.4301101685e+01
    1.7909939575e+02   -7.4390403748e+01
    1.7920033264e+02   -7.4482200623e+01
    1.7930116272e+02   -7.4573799133e+01
    1.7940115356e+02   -7.4664703369e+01
    1.7950016785e+02   -7.4754699707e+01
    1.7960073853e+02   -7.4846099854e+01
    1.7970123291e+02   -7.4937400818e+01
    1.7980169678e+02   -7.5028800964e+01
    1.7989927673e+02   -7.5117500305e+01
    1.7999972534e+02   -7.5208900452e+01
    1.8009909058e+02   -7.5299201965e+01
    1.8020074463e+02   -7.5391700745e+01
    1.8029931641e+02   -7.5481399536e+01
    1.8040045166e+02   -7.5573402405e+01
    1.8049902344e+02   -7.5663101196e+01
    1.8060032654e+02   -7.5755203247e+01
    1.8070155334e+02   -7.5847396851e+01
    1.8080059814e+02   -7.5937400818e+01
    1.8089994812e+02   -7.6027801514e+01
    1.8099926758e+02   -7.6117996216e+01
    1.8109954834e+02   -7.6209098816e+01
    1.8119993591e+02   -7.6300102234e+01
    1.8130146790e+02   -7.6392097473e+01
    1.8139889526e+02   -7.6480300903e+01
    1.8149876404e+02   -7.6570503235e+01
    1.8160101318e+02   -7.6662803650e+01
    1.8169926453e+02   -7.6751296997e+01
    1.8179940796e+02   -7.6841400146e+01
    1.8189938354e+02   -7.6931198120e+01
    1.8199920654e+02   -7.7020698547e+01
    1.8210177612e+02   -7.7112396240e+01
    1.8220063782e+02   -7.7200599670e+01
    1.8229936218e+02   -7.7288398743e+01
    1.8239932251e+02   -7.7377098083e+01
    1.8250152588e+02   -7.7467498779e+01
    1.8260078430e+02   -7.7555099487e+01
    1.8270138550e+02   -7.7643501282e+01
    1.8279986572e+02   -7.7729896545e+01
    1.8289918518e+02   -7.7816802979e+01
    1.8300154114e+02   -7.7906097412e+01
    1.8310110474e+02   -7.7992698669e+01
    1.8320077515e+02   -7.8079200745e+01
    1.8330044556e+02   -7.8165496826e+01
    1.8340028381e+02   -7.8251800537e+01
    1.8350192261e+02   -7.8339401245e+01
    1.8360084534e+02   -7.8424598694e+01
    1.8369946289e+02   -7.8509399414e+01
    1.8380068970e+02   -7.8596298218e+01
    1.8390167236e+02   -7.8682899475e+01
    1.8399955750e+02   -7.8766799927e+01
    1.8410011292e+02   -7.8853103638e+01
    1.8420053101e+02   -7.8939102173e+01
    1.8430076599e+02   -7.9025001526e+01
    1.8440083313e+02   -7.9110702515e+01
    1.8449954224e+02   -7.9195297241e+01
    1.8459948730e+02   -7.9280899048e+01
    1.8469935608e+02   -7.9366500854e+01
    1.8479922485e+02   -7.9452003479e+01
    1.8490197754e+02   -7.9540100098e+01
    1.8500195312e+02   -7.9625801086e+01
    1.8510205078e+02   -7.9711700439e+01
    1.8519941711e+02   -7.9795303345e+01
    1.8529980469e+02   -7.9881500244e+01
    1.8540138245e+02   -7.9968696594e+01
    1.8549914551e+02   -8.0052696228e+01
    1.8559921265e+02   -8.0138603210e+01
    1.8570036316e+02   -8.0225502014e+01
    1.8580137634e+02   -8.0312103271e+01
    1.8590093994e+02   -8.0397499084e+01
    1.8599963379e+02   -8.0482101440e+01
    1.8610177612e+02   -8.0569602966e+01
    1.8620098877e+02   -8.0654602051e+01
    1.8630192566e+02   -8.0740898132e+01
    1.8639956665e+02   -8.0824302673e+01
    1.8650006104e+02   -8.0910102844e+01
    1.8660047913e+02   -8.0995697021e+01
    1.8670085144e+02   -8.1081001282e+01
    1.8680116272e+02   -8.1166198730e+01
    1.8690139771e+02   -8.1251098633e+01
    1.8700151062e+02   -8.1335700989e+01
    1.8710008240e+02   -8.1418800354e+01
    1.8720019531e+02   -8.1502998352e+01
    1.8730024719e+02   -8.1586799622e+01
    1.8740034485e+02   -8.1670501709e+01
    1.8750044250e+02   -8.1753898621e+01
    1.8760052490e+02   -8.1836898804e+01
    1.8770051575e+02   -8.1919700623e+01
    1.8780041504e+02   -8.2002098083e+01
    1.8790040588e+02   -8.2084297180e+01
    1.8799919128e+02   -8.2165199280e+01
    1.8810060120e+02   -8.2248001099e+01
    1.8820030212e+02   -8.2329200745e+01
    1.8829986572e+02   -8.2410003662e+01
    1.8840226746e+02   -8.2492797852e+01
    1.8850216675e+02   -8.2573402405e+01
    1.8860206604e+02   -8.2653800964e+01
    1.8870098877e+02   -8.2733200073e+01
    1.8880226135e+02   -8.2814399719e+01
    1.8890101624e+02   -8.2893302917e+01
    1.8899957275e+02   -8.2971900940e+01
    1.8910084534e+02   -8.3052497864e+01
    1.8920196533e+02   -8.3132896423e+01
    1.8930003357e+02   -8.3210700989e+01
    1.8940080261e+02   -8.3290603638e+01
    1.8950141907e+02   -8.3370300293e+01
    1.8960185242e+02   -8.3449897766e+01
    1.8970210266e+02   -8.3529296875e+01
    1.8980220032e+02   -8.3608497620e+01
    1.8990220642e+02   -8.3687698364e+01
    1.9000212097e+02   -8.3766799927e+01
    1.9010038757e+02   -8.3844497681e+01
    1.9020155334e+02   -8.3924598694e+01
    1.9029957581e+02   -8.4002098083e+01
    1.9040022278e+02   -8.4081802368e+01
    1.9050076294e+02   -8.4161399841e+01
    1.9060049438e+02   -8.4240303040e+01
    1.9070028687e+02   -8.4319297791e+01
    1.9080137634e+02   -8.4399299622e+01
    1.9090109253e+02   -8.4478202820e+01
    1.9100244141e+02   -8.4558403015e+01
    1.9109992981e+02   -8.4635498047e+01
    1.9119946289e+02   -8.4714103699e+01
    1.9130085754e+02   -8.4794097900e+01
    1.9140020752e+02   -8.4872497559e+01
    1.9150148010e+02   -8.4952201843e+01
    1.9159985352e+02   -8.5029502869e+01
    1.9169978333e+02   -8.5108001709e+01
    1.9180043030e+02   -8.5186798096e+01
    1.9189962769e+02   -8.5264396667e+01
    1.9199989319e+02   -8.5342597961e+01
    1.9209992981e+02   -8.5420501709e+01
    1.9220080566e+02   -8.5498703003e+01
    1.9230076599e+02   -8.5575996399e+01
    1.9240103149e+02   -8.5653297424e+01
    1.9250047302e+02   -8.5729598999e+01
    1.9259985352e+02   -8.5805603027e+01
    1.9270100403e+02   -8.5882598877e+01
    1.9280021667e+02   -8.5957801819e+01
    1.9290255737e+02   -8.6035102844e+01
    1.9300204468e+02   -8.6110000610e+01
    1.9310166931e+02   -8.6184600830e+01
    1.9320137024e+02   -8.6259002686e+01
    1.9330107117e+02   -8.6333099365e+01
    1.9340020752e+02   -8.6406501770e+01
    1.9350158691e+02   -8.6481300354e+01
    1.9360217285e+02   -8.6555297852e+01
    1.9370120239e+02   -8.6627799988e+01
    1.9379995728e+02   -8.6699996948e+01
    1.9390139771e+02   -8.6774002075e+01
    1.9400259399e+02   -8.6847602844e+01
    1.9410072327e+02   -8.6918899536e+01
    1.9420155334e+02   -8.6991996765e+01
    1.9430221558e+02   -8.7064796448e+01
    1.9439982605e+02   -8.7135398865e+01
[...]
    2.5130459595e+02   -9.8983100891e+01
    2.5140367126e+02   -9.8947998047e+01
    2.5150541687e+02   -9.8911697388e+01
    2.5160406494e+02   -9.8876197815e+01
    2.5170579529e+02   -9.8839202881e+01
    2.5180497742e+02   -9.8802902222e+01
    2.5190461731e+02   -9.8766098022e+01
    2.5200338745e+02   -9.8729301453e+01
    2.5210530090e+02   -9.8690902710e+01
    2.5220417786e+02   -9.8653396606e+01
    2.5230569458e+02   -9.8614501953e+01
    2.5240473938e+02   -9.8576301575e+01
    2.5250381470e+02   -9.8537696838e+01
    2.5260583496e+02   -9.8497596741e+01
    2.5270489502e+02   -9.8458396912e+01
    2.5280392456e+02   -9.8418899536e+01
    2.5290574646e+02   -9.8377899170e+01
    2.5300456238e+02   -9.8337898254e+01
    2.5310610962e+02   -9.8296501160e+01
    2.5320460510e+02   -9.8256103516e+01
    2.5330584717e+02   -9.8214401245e+01
    2.5340403748e+02   -9.8173599243e+01
    2.5350495911e+02   -9.8131599426e+01
    2.5360574341e+02   -9.8089401245e+01
    2.5370349121e+02   -9.8048400879e+01
    2.5380397034e+02   -9.8005996704e+01
    2.5390432739e+02   -9.7963600159e+01
    2.5400456238e+02   -9.7921096802e+01
    2.5410557556e+02   -9.7878097534e+01
    2.5420396423e+02   -9.7836097717e+01
    2.5430386353e+02   -9.7793502808e+01
    2.5440368652e+02   -9.7750701904e+01
    2.5450627136e+02   -9.7706703186e+01
    2.5460595703e+02   -9.7663902283e+01
    2.5470561218e+02   -9.7621101379e+01
    2.5480526733e+02   -9.7578102112e+01
    2.5490603638e+02   -9.7534599304e+01
    2.5500520325e+02   -9.7491699219e+01
    2.5510429382e+02   -9.7448799133e+01
    2.5520428467e+02   -9.7405296326e+01
    2.5530436707e+02   -9.7361701965e+01
    2.5540454102e+02   -9.7317901611e+01
    2.5550346375e+02   -9.7274497986e+01
    2.5560598755e+02   -9.7229400635e+01
    2.5570472717e+02   -9.7185699463e+01
    2.5580427551e+02   -9.7141601562e+01
    2.5590379333e+02   -9.7097297668e+01
    2.5600619507e+02   -9.7051498413e+01
    2.5610562134e+02   -9.7006896973e+01
    2.5620501709e+02   -9.6961997986e+01
    2.5630447388e+02   -9.6916900635e+01
    2.5640393066e+02   -9.6871696472e+01
    2.5650631714e+02   -9.6824798584e+01
    2.5660577393e+02   -9.6779098511e+01
    2.5670516968e+02   -9.6733100891e+01
    2.5680453491e+02   -9.6686996460e+01
    2.5690383911e+02   -9.6640602112e+01
    2.5700604248e+02   -9.6592597961e+01
    2.5710537720e+02   -9.6545600891e+01
    2.5720410156e+02   -9.6498703003e+01
    2.5730538940e+02   -9.6450302124e+01
    2.5740405273e+02   -9.6402801514e+01
    2.5750570679e+02   -9.6353599548e+01
    2.5760452271e+02   -9.6305496216e+01
    2.5770632935e+02   -9.6255500793e+01
    2.5780361938e+02   -9.6207496643e+01
    2.5790444946e+02   -9.6157302856e+01
    2.5800573730e+02   -9.6106597900e+01
    2.5810363770e+02   -9.6057296753e+01
    2.5820565796e+02   -9.6005599976e+01
    2.5830474854e+02   -9.5955001831e+01
    2.5840374756e+02   -9.5904197693e+01
    2.5850555420e+02   -9.5851600647e+01
    2.5860437012e+02   -9.5800300598e+01
    2.5870602417e+02   -9.5747299194e+01
    2.5880465698e+02   -9.5695503235e+01
    2.5890612793e+02   -9.5641998291e+01
    2.5900457764e+02   -9.5589897156e+01
    2.5910574341e+02   -9.5536201477e+01
    2.5920382690e+02   -9.5483901978e+01
    2.5930459595e+02   -9.5430099487e+01
    2.5940518188e+02   -9.5376197815e+01
    2.5950555420e+02   -9.5322303772e+01
    2.5960574341e+02   -9.5268302917e+01
    2.5970581055e+02   -9.5214401245e+01
    2.5980572510e+02   -9.5160400391e+01
    2.5990554810e+02   -9.5106399536e+01
    2.6000524902e+02   -9.5052398682e+01
    2.6010552979e+02   -9.4998001099e+01
    2.6020477295e+02   -9.4944099426e+01
    2.6030453491e+02   -9.4889900208e+01
    2.6040423584e+02   -9.4835700989e+01
    2.6050384521e+02   -9.4781402588e+01
    2.6060467529e+02   -9.4726402283e+01
    2.6070376587e+02   -9.4672203064e+01
    2.6080603027e+02   -9.4616203308e+01
    2.6090512085e+02   -9.4561798096e+01
    2.6100628662e+02   -9.4506202698e+01
    2.6110632324e+02   -9.4450996399e+01
    2.6120635986e+02   -9.4395599365e+01
    2.6130630493e+02   -9.4340103149e+01
    2.6140621948e+02   -9.4284500122e+01
    2.6150613403e+02   -9.4228599548e+01
    2.6160607910e+02   -9.4172500610e+01
    2.6170596313e+02   -9.4116203308e+01
    2.6180587769e+02   -9.4059600830e+01
    2.6190573120e+02   -9.4002799988e+01
    2.6200393677e+02   -9.3946601868e+01
    2.6210537720e+02   -9.3888198853e+01
    2.6220388794e+02   -9.3831199646e+01
    2.6230584717e+02   -9.3771797180e+01
    2.6240612793e+02   -9.3713096619e+01
    2.6250573730e+02   -9.3654403687e+01
    2.6260507202e+02   -9.3595497131e+01
    2.6270428467e+02   -9.3536399841e+01
    2.6280648804e+02   -9.3475097656e+01
    2.6290579224e+02   -9.3415199280e+01
    2.6300506592e+02   -9.3355003357e+01
    2.6310430908e+02   -9.3294502258e+01
    2.6320642090e+02   -9.3231903076e+01
    2.6330551147e+02   -9.3170799255e+01
    2.6340457153e+02   -9.3109397888e+01
    2.6350643921e+02   -9.3045898438e+01
    2.6360531616e+02   -9.2984001160e+01
    2.6370407104e+02   -9.2921997070e+01
    2.6380563354e+02   -9.2857803345e+01
    2.6390417480e+02   -9.2795402527e+01
    2.6400555420e+02   -9.2730903625e+01
    2.6410681152e+02   -9.2666297913e+01
    2.6420578003e+02   -9.2602897644e+01
    2.6430679321e+02   -9.2538002014e+01
    2.6440481567e+02   -9.2474899292e+01
    2.6450561523e+02   -9.2409797668e+01
    2.6460632324e+02   -9.2344596863e+01
    2.6470687866e+02   -9.2279296875e+01
    2.6480450439e+02   -9.2215797424e+01
    2.6490499878e+02   -9.2150299072e+01
    2.6500469971e+02   -9.2085197449e+01
    2.6510684204e+02   -9.2018302917e+01
    2.6520410156e+02   -9.1954597473e+01
    2.6530435181e+02   -9.1888702393e+01
    2.6540435791e+02   -9.1822898865e+01
    2.6550506592e+02   -9.1756500244e+01
    2.6560601807e+02   -9.1689796448e+01
    2.6570590210e+02   -9.1623703003e+01
    2.6580636597e+02   -9.1556999207e+01
    2.6590658569e+02   -9.1490402222e+01
    2.6600436401e+02   -9.1425300598e+01
    2.6610504150e+02   -9.1358100891e+01
    2.6620568848e+02   -9.1290802002e+01
    2.6630630493e+02   -9.1223396301e+01
    2.6640695190e+02   -9.1155799866e+01
    2.6650457764e+02   -9.1090103149e+01
    2.6660464478e+02   -9.1022598267e+01
    2.6670520020e+02   -9.0954597473e+01
    2.6680572510e+02   -9.0886497498e+01
    2.6690625000e+02   -9.0818099976e+01
    2.6700677490e+02   -9.0749397278e+01
    2.6710437012e+02   -9.0682601929e+01
    2.6720498657e+02   -9.0613502502e+01
    2.6730422974e+02   -9.0544998169e+01
    2.6740451050e+02   -9.0475502014e+01
    2.6750646973e+02   -9.0404602051e+01
    2.6760678101e+02   -9.0334602356e+01
    2.6770437622e+02   -9.0265998840e+01
    2.6780633545e+02   -9.0194000244e+01
    2.6790496826e+02   -9.0124000549e+01
    2.6800674438e+02   -9.0051399231e+01
    2.6810458374e+02   -8.9981201172e+01
    2.6820516968e+02   -8.9908599854e+01
    2.6830477905e+02   -8.9836303711e+01
    2.6840444946e+02   -8.9763702393e+01
    2.6850701904e+02   -8.9688499451e+01
    2.6860668945e+02   -8.9615097046e+01
    2.6870629883e+02   -8.9541297913e+01
    2.6880685425e+02   -8.9466499329e+01
    2.6890515137e+02   -8.9392997742e+01
    2.6900457764e+02   -8.9318298340e+01
    2.6910681152e+02   -8.9241203308e+01
    2.6920593262e+02   -8.9166198730e+01
    2.6930487061e+02   -8.9091003418e+01
    2.6940646362e+02   -8.9013496399e+01
    2.6950497437e+02   -8.8938201904e+01
    2.6960614014e+02   -8.8860702515e+01
    2.6970712280e+02   -8.8783096313e+01
    2.6980502319e+02   -8.8707801819e+01
    2.6990563965e+02   -8.8630203247e+01
    2.7000604248e+02   -8.8552696228e+01
    2.7010711670e+02   -8.8474403381e+01
    2.7020712280e+02   -8.8396797180e+01
    2.7030587769e+02   -8.8320098877e+01
    2.7040597534e+02   -8.8242202759e+01
    2.7050460815e+02   -8.8165397644e+01
    2.7060604858e+02   -8.8086196899e+01
    2.7070709229e+02   -8.8007301331e+01
    2.7080593872e+02   -8.7930000305e+01
    2.7090509033e+02   -8.7852302551e+01
    2.7100726318e+02   -8.7772102356e+01
    2.7110586548e+02   -8.7694602966e+01
    2.7120730591e+02   -8.7614700317e+01
    2.7130557251e+02   -8.7537101746e+01
    2.7140661621e+02   -8.7457199097e+01
    2.7150445557e+02   -8.7379600525e+01
    2.7160504150e+02   -8.7299697876e+01
    2.7170538330e+02   -8.7219802856e+01
    2.7180520630e+02   -8.7139999390e+01
    2.7190487671e+02   -8.7060302734e+01
    2.7200482178e+02   -8.6980003357e+01
    2.7210644531e+02   -8.6898200989e+01
    2.7220547485e+02   -8.6818099976e+01
    2.7230447388e+02   -8.6737899780e+01
    2.7240615845e+02   -8.6655097961e+01
    2.7250506592e+02   -8.6574203491e+01
    2.7260449219e+02   -8.6492698669e+01
    2.7270648193e+02   -8.6408699036e+01
    2.7280520630e+02   -8.6327102661e+01
    2.7290698242e+02   -8.6242599487e+01
    2.7300592041e+02   -8.6160202026e+01
    2.7310491943e+02   -8.6077400208e+01
    2.7320709229e+02   -8.5991600037e+01
    2.7330664062e+02   -8.5907600403e+01
    2.7340609741e+02   -8.5823402405e+01
    2.7350692749e+02   -8.5737602234e+01
    2.7360632324e+02   -8.5652702332e+01
    2.7370562744e+02   -8.5567497253e+01
    2.7380496216e+02   -8.5482002258e+01
    2.7390719604e+02   -8.5393600464e+01
    2.7400653076e+02   -8.5307403564e+01
    2.7410583496e+02   -8.5221000671e+01
    2.7420565796e+02   -8.5133796692e+01
    2.7430487061e+02   -8.5046798706e+01
    2.7440618896e+02   -8.4957603455e+01
    2.7450527954e+02   -8.4870201111e+01
    2.7460714722e+02   -8.4779998779e+01
    2.7470596313e+02   -8.4692298889e+01
    2.7480752563e+02   -8.4601799011e+01
    2.7490606689e+02   -8.4513900757e+01
    2.7500735474e+02   -8.4423202515e+01
    2.7510452271e+02   -8.4335998535e+01
    2.7520730591e+02   -8.4243598938e+01
    2.7530743408e+02   -8.4153396606e+01
    2.7540634155e+02   -8.4064002991e+01
    2.7550521851e+02   -8.3974502563e+01
    2.7560568237e+02   -8.3883399963e+01
    2.7570596313e+02   -8.3792198181e+01
    2.7580603027e+02   -8.3701103210e+01
    2.7590707397e+02   -8.3608901978e+01
    2.7600546265e+02   -8.3518898010e+01
    2.7610693359e+02   -8.3426002502e+01
    2.7620544434e+02   -8.3335601807e+01
    2.7630694580e+02   -8.3242401123e+01
    2.7640545654e+02   -8.3151802063e+01
    2.7650692749e+02   -8.3058296204e+01
    2.7660534668e+02   -8.2967498779e+01
    2.7670513916e+02   -8.2875198364e+01
    2.7680569458e+02   -8.2782096863e+01
    2.7690682983e+02   -8.2688102722e+01
    2.7700494385e+02   -8.2596801758e+01
    2.7710607910e+02   -8.2502502441e+01
    2.7720550537e+02   -8.2409599304e+01
    2.7730548096e+02   -8.2315902710e+01
    2.7740753174e+02   -8.2220100403e+01
    2.7750726318e+02   -8.2126197815e+01
    2.7760671997e+02   -8.2032203674e+01
    2.7770730591e+02   -8.1936897278e+01
    2.7780545044e+02   -8.1843597412e+01
    2.7790686035e+02   -8.1746803284e+01
    2.7800540161e+02   -8.1652397156e+01
    2.7810723877e+02   -8.1554397583e+01
    2.7820736694e+02   -8.1457702637e+01
    2.7830740356e+02   -8.1360702515e+01
    2.7840707397e+02   -8.1263702393e+01
    2.7850683594e+02   -8.1166198730e+01
    2.7860668945e+02   -8.1068298340e+01
    2.7870657349e+02   -8.0970001221e+01
    2.7880569458e+02   -8.0872100830e+01
    2.7890713501e+02   -8.0771598816e+01
    2.7900527954e+02   -8.0673896790e+01
    2.7910519409e+02   -8.0574096680e+01
    2.7920501709e+02   -8.0474098206e+01
    2.7930764771e+02   -8.0370903015e+01
    2.7940722656e+02   -8.0270500183e+01
    2.7950665283e+02   -8.0169898987e+01
    2.7960589600e+02   -8.0069297791e+01
    2.7970501709e+02   -7.9968597412e+01
    2.7980685425e+02   -7.9864997864e+01
    2.7990560913e+02   -7.9764198303e+01
    2.8000708008e+02   -7.9660400391e+01
    2.8010635376e+02   -7.9558700562e+01
    2.8020736694e+02   -7.9454902649e+01
    2.8030603027e+02   -7.9353401184e+01
    2.8040756226e+02   -7.9248596191e+01
    2.8050518799e+02   -7.9147697449e+01
    2.8060638428e+02   -7.9042900085e+01
    2.8070724487e+02   -7.8938301086e+01
    2.8080560303e+02   -7.8836097717e+01
    2.8090786743e+02   -7.8729698181e+01
    2.8100491333e+02   -7.8628601074e+01
    2.8110754395e+02   -7.8521499634e+01
    2.8120553589e+02   -7.8418998718e+01
    2.8130642700e+02   -7.8313301086e+01
    2.8140719604e+02   -7.8207496643e+01
    2.8150781250e+02   -7.8101699829e+01
    2.8160528564e+02   -7.7999000549e+01
    2.8170626831e+02   -7.7892402649e+01
    2.8180615234e+02   -7.7786796570e+01
    2.8190753174e+02   -7.7679496765e+01
    2.8200512695e+02   -7.7575897217e+01
    2.8210522461e+02   -7.7469596863e+01
    2.8220538330e+02   -7.7362899780e+01
    2.8230551147e+02   -7.7255996704e+01
    2.8240527344e+02   -7.7149299622e+01
    2.8250689697e+02   -7.7040298462e+01
    2.8260800171e+02   -7.6931602478e+01
    2.8270602417e+02   -7.6825897217e+01
    2.8280703735e+02   -7.6716697693e+01
    2.8290533447e+02   -7.6610198975e+01
    2.8300534058e+02   -7.6501502991e+01
    2.8310781860e+02   -7.6389900208e+01
    2.8320501709e+02   -7.6283699036e+01
    2.8330737305e+02   -7.6171600342e+01
    2.8340557861e+02   -7.6063697815e+01
    2.8350738525e+02   -7.5951499939e+01
    2.8360629272e+02   -7.5842201233e+01
    2.8370724487e+02   -7.5730201721e+01
    2.8380541992e+02   -7.5621002197e+01
    2.8390682983e+02   -7.5507797241e+01
    2.8400744629e+02   -7.5395202637e+01
    2.8410733032e+02   -7.5282997131e+01
    2.8420730591e+02   -7.5170402527e+01
    2.8430804443e+02   -7.5056602478e+01
    2.8440728760e+02   -7.4944198608e+01
    2.8450616455e+02   -7.4831901550e+01
    2.8460617065e+02   -7.4718101501e+01
    2.8470608521e+02   -7.4603996277e+01
    2.8480587769e+02   -7.4489799500e+01
    2.8490557861e+02   -7.4375396729e+01
    2.8500808716e+02   -7.4257400513e+01
    2.8510601807e+02   -7.4144500732e+01
    2.8520596313e+02   -7.4028900146e+01
    2.8530740356e+02   -7.3911399841e+01
    2.8540774536e+02   -7.3794799805e+01
    2.8550650024e+02   -7.3679901123e+01
    2.8560791016e+02   -7.3561599731e+01
    2.8570620728e+02   -7.3446701050e+01
    2.8580712891e+02   -7.3328598022e+01
    2.8590777588e+02   -7.3210502625e+01
    2.8600820923e+02   -7.3092498779e+01
    2.8610571289e+02   -7.2977699280e+01
    2.8620672607e+02   -7.2858596802e+01
    2.8630773926e+02   -7.2739303589e+01
    2.8640579224e+02   -7.2623397827e+01
    2.8650677490e+02   -7.2503799438e+01
    2.8660769653e+02   -7.2384101868e+01
    2.8670593262e+02   -7.2267402649e+01
    2.8680712891e+02   -7.2147102356e+01
    2.8690548706e+02   -7.2029899597e+01
    2.8700750732e+02   -7.1908302307e+01
    2.8710751343e+02   -7.1788902283e+01
    2.8720712280e+02   -7.1669700623e+01
    2.8730722046e+02   -7.1549797058e+01
    2.8740753174e+02   -7.1429496765e+01
    2.8750802612e+02   -7.1308700562e+01
    2.8760568237e+02   -7.1191200256e+01
    2.8770660400e+02   -7.1069503784e+01
    2.8780776978e+02   -7.0947196960e+01
    2.8790612793e+02   -7.0828102112e+01
    2.8800711060e+02   -7.0705596924e+01
    2.8810693359e+02   -7.0584197998e+01
    2.8820626831e+02   -7.0462997437e+01
    2.8830804443e+02   -7.0338600159e+01
    2.8840725708e+02   -7.0217002869e+01
    2.8850570679e+02   -7.0096000671e+01
    2.8860803223e+02   -6.9970001221e+01
    2.8870806885e+02   -6.9846496582e+01
    2.8880786133e+02   -6.9722999573e+01
    2.8890798950e+02   -6.9598701477e+01
    2.8900781250e+02   -6.9474601746e+01
    2.8910766602e+02   -6.9350097656e+01
    2.8920755005e+02   -6.9225196838e+01
    2.8930749512e+02   -6.9099998474e+01
    2.8940753174e+02   -6.8974403381e+01
    2.8950759888e+02   -6.8848396301e+01
    2.8960769653e+02   -6.8722099304e+01
    2.8970782471e+02   -6.8595596313e+01
    2.8980786133e+02   -6.8469001770e+01
    2.8990762329e+02   -6.8342399597e+01
    2.9000726318e+02   -6.8215698242e+01
    2.9010800171e+02   -6.8087402344e+01
    2.9020730591e+02   -6.7960601807e+01
    2.9030715942e+02   -6.7832901001e+01
    2.9040750122e+02   -6.7704299927e+01
    2.9050701904e+02   -6.7576400757e+01
    2.9060614014e+02   -6.7448898315e+01
    2.9070812988e+02   -6.7317398071e+01
    2.9080688477e+02   -6.7189903259e+01
    2.9090582275e+02   -6.7061996460e+01
    2.9100827026e+02   -6.6929298401e+01
    2.9110586548e+02   -6.6802803040e+01
    2.9120690918e+02   -6.6671600342e+01
    2.9130642700e+02   -6.6542098999e+01
    2.9140646362e+02   -6.6411796570e+01
    2.9150601196e+02   -6.6281898499e+01
    2.9160845947e+02   -6.6148002625e+01
    2.9170816040e+02   -6.6017501831e+01
    2.9180841064e+02   -6.5886100769e+01
    2.9190777588e+02   -6.5755699158e+01
    2.9200796509e+02   -6.5624198914e+01
    2.9210812378e+02   -6.5492401123e+01
    2.9220812988e+02   -6.5360702515e+01
    2.9230816650e+02   -6.5228897095e+01
    2.9240652466e+02   -6.5099098206e+01
    2.9250711060e+02   -6.4966102600e+01
    2.9260812378e+02   -6.4832397461e+01
    2.9270602417e+02   -6.4702697754e+01
    2.9280688477e+02   -6.4568702698e+01
    2.9290826416e+02   -6.4433898926e+01
    2.9300650024e+02   -6.4303001404e+01
    2.9310705566e+02   -6.4168800354e+01
    2.9320559692e+02   -6.4037200928e+01
    2.9330740356e+02   -6.3900901794e+01
    2.9340576172e+02   -6.3769100189e+01
    2.9350689697e+02   -6.3633300781e+01
    2.9360775757e+02   -6.3497699738e+01
    2.9370593262e+02   -6.3365299225e+01
    2.9380697632e+02   -6.3228900909e+01
    2.9390765381e+02   -6.3092700958e+01
    2.9400762939e+02   -6.2957000732e+01
    2.9410824585e+02   -6.2820301056e+01
    2.9420800781e+02   -6.2684501648e+01
    2.9430648804e+02   -6.2550201416e+01
    2.9440670776e+02   -6.2413200378e+01
    2.9450732422e+02   -6.2275501251e+01
    2.9460714722e+02   -6.2138599396e+01
    2.9470648193e+02   -6.2002201080e+01
    2.9480871582e+02   -6.1861499786e+01
    2.9490808105e+02   -6.1724498749e+01
    2.9500744629e+02   -6.1587100983e+01
    2.9510705566e+02   -6.1449199677e+01
    2.9520745850e+02   -6.1309898376e+01
    2.9530770874e+02   -6.1170600891e+01
    2.9540774536e+02   -6.1031200409e+01
    2.9550759888e+02   -6.0891899109e+01
    2.9560720825e+02   -6.0752799988e+01
    2.9570654297e+02   -6.0613800049e+01
    2.9580853271e+02   -6.0470901489e+01
    2.9590734863e+02   -6.0332199097e+01
    2.9600875854e+02   -6.0189701080e+01
    2.9610723877e+02   -6.0051200867e+01
    2.9620745850e+02   -5.9909999847e+01
    2.9630773926e+02   -5.9768501282e+01
    2.9640808105e+02   -5.9626800537e+01
    2.9650860596e+02   -5.9484600067e+01
    2.9660769653e+02   -5.9344398499e+01
    2.9670867920e+02   -5.9201301575e+01
    2.9680654907e+02   -5.9062599182e+01
    2.9690777588e+02   -5.8918899536e+01
    2.9700604248e+02   -5.8779499054e+01
    2.9710754395e+02   -5.8635299683e+01
    2.9720614624e+02   -5.8495201111e+01
    2.9730706787e+02   -5.8351699829e+01
    2.9740649414e+02   -5.8210201263e+01
    2.9750732422e+02   -5.8066501617e+01
    2.9760830688e+02   -5.7922599792e+01
    2.9770645142e+02   -5.7782600403e+01
    2.9780783081e+02   -5.7637798309e+01
    2.9790640259e+02   -5.7496898651e+01
    2.9800796509e+02   -5.7351501465e+01
    2.9810800171e+02   -5.7208198547e+01
    2.9820864868e+02   -5.7063899994e+01
    2.9830804443e+02   -5.6921100616e+01
    2.9840750122e+02   -5.6777999878e+01
    2.9850692749e+02   -5.6634799957e+01
    2.9860775757e+02   -5.6489299774e+01
    2.9870715332e+02   -5.6345699310e+01
    2.9880645752e+02   -5.6201999664e+01
    2.9890869141e+02   -5.6053901672e+01
    2.9900796509e+02   -5.5909801483e+01
    2.9910723877e+02   -5.5765499115e+01
    2.9920651245e+02   -5.5621101379e+01
    2.9930868530e+02   -5.5472099304e+01
    2.9940792847e+02   -5.5327301025e+01
    2.9950720215e+02   -5.5182201385e+01
    2.9960650635e+02   -5.5036800385e+01
    2.9970883179e+02   -5.4886798859e+01
    2.9980865479e+02   -5.4740299225e+01
    2.9990655518e+02   -5.4596401215e+01
endcurve
