Curveplot
LS-DYNA keyword deck by LS-PrePost
Abscissa
Ordinate
XY data
CHOP_NASX_mo-1 #pts=3000
* Minval=     0.0000000000e+00 at time=         0.0000000000
* Maxval=     4.3305007935e+01 at time=       176.2008666992
    0.0000000000e+00    0.0000000000e+00
    9.7369909286e-02    1.5221800422e-03
    1.9807700813e-01    3.0965399928e-03
    2.9948920012e-01    4.6819099225e-03
    3.9713996649e-01    6.2084901147e-03
    4.9812555313e-01    7.7872001566e-03
    5.9749299288e-01    9.3406103551e-03
    6.9738900661e-01    1.0902299546e-02
    7.9955375195e-01    1.2499400415e-02
    8.9783728123e-01    1.4035899192e-02
    9.9828058481e-01    1.5606096946e-02
    1.0996562243e+00    1.7190894112e-02
    1.1974014044e+00    1.8718991429e-02
    1.2984220982e+00    2.0298190415e-02
    1.3971672058e+00    2.1841896698e-02
    1.4989128113e+00    2.3432506248e-02
    1.5977989435e+00    2.4978397414e-02
    1.6997433901e+00    2.6572037488e-02
    1.7984901667e+00    2.8115605935e-02
    1.8987457752e+00    2.9682751745e-02
    1.9997639656e+00    3.1261913478e-02
    2.0978953838e+00    3.2796256244e-02
    2.1994953156e+00    3.4385204315e-02
    2.2993786335e+00    3.5947676748e-02
    2.3983728886e+00    3.7496306002e-02
    2.4975562096e+00    3.9047505707e-02
    2.5975327492e+00    4.0610320866e-02
    2.6985549927e+00    4.2188402265e-02
    2.7983779907e+00    4.3746486306e-02
    2.8981916904e+00    4.5303463936e-02
    2.9984147549e+00    4.6866238117e-02
    3.0974473953e+00    4.8410449177e-02
    3.1972544193e+00    4.9967311323e-02
    3.2982785702e+00    5.1544286311e-02
    3.3992686272e+00    5.3122371435e-02
    3.4973409176e+00    5.4656591266e-02
    3.5992622375e+00    5.6253220886e-02
    3.6988952160e+00    5.7815987617e-02
    3.7990405560e+00    5.9388980269e-02
    3.8982412815e+00    6.0949072242e-02
    3.9996523857e+00    6.2545783818e-02
    4.0988574028e+00    6.4109146595e-02
    4.1998772621e+00    6.5702438354e-02
    4.2982239723e+00    6.7254222929e-02
    4.3992471695e+00    6.8848572671e-02
    4.4991350174e+00    7.0424750447e-02
    4.5988092422e+00    7.1996554732e-02
    4.6975693703e+00    7.3552429676e-02
    4.7989411354e+00    7.5147286057e-02
    4.8999624252e+00    7.6734043658e-02
    4.9980959892e+00    7.8272454441e-02
    5.0998129845e+00    7.9863749444e-02
    5.1989932060e+00    8.1411741674e-02
    5.2981653214e+00    8.2955755293e-02
    5.3986592293e+00    8.4516309202e-02
    5.4997544289e+00    8.6081929505e-02
    5.5971760750e+00    8.7586075068e-02
    5.6978554726e+00    8.9135862887e-02
    5.7974638939e+00    9.0663962066e-02
    5.8984732628e+00    9.2208325863e-02
    5.9999842644e+00    9.3754932284e-02
    6.0983343124e+00    9.5247961581e-02
    6.1984119415e+00    9.6761822701e-02
    6.2999501228e+00    9.8292179406e-02
    6.3996829987e+00    9.9789731205e-02
    6.4988436699e+00    1.0127347708e-01
    6.5997147560e+00    1.0277786106e-01
    6.6997900009e+00    1.0426574200e-01
    6.7986364365e+00    1.0572981089e-01
    6.8981943130e+00    1.0719963163e-01
    6.9998621941e+00    1.0869698226e-01
    7.0975832939e+00    1.1013164371e-01
    7.1989593506e+00    1.1161454767e-01
    7.2974481583e+00    1.1305231601e-01
    7.3989973068e+00    1.1453095824e-01
    7.4993929863e+00    1.1598820239e-01
    7.5987024307e+00    1.1742643267e-01
    7.6984376907e+00    1.1886925995e-01
    7.7987232208e+00    1.2031574547e-01
    7.8997526169e+00    1.2177173048e-01
    7.9989619255e+00    1.2319848686e-01
    8.0996818542e+00    1.2464391440e-01
    8.1999330521e+00    1.2608148158e-01
    8.2976121902e+00    1.2747898698e-01
    8.3971357346e+00    1.2889946997e-01
    8.4985017776e+00    1.3034459949e-01
    8.5995206833e+00    1.3178114593e-01
    8.6976509094e+00    1.3317377865e-01
    8.7984514236e+00    1.3460156322e-01
    8.8979358673e+00    1.3600747287e-01
    8.9987192154e+00    1.3742983341e-01
    9.0970468521e+00    1.3881467283e-01
    9.1981859207e+00    1.4023709297e-01
    9.2992000580e+00    1.4165589213e-01
    9.3987522125e+00    1.4305339754e-01
    9.4978952408e+00    1.4444315434e-01
    9.5992670059e+00    1.4586199820e-01
    9.6992788315e+00    1.4726179838e-01
    9.7982511520e+00    1.4864511788e-01
    9.8977012634e+00    1.5003447235e-01
    9.9987659454e+00    1.5144491196e-01
    1.0098511696e+01    1.5528737009e-01
    1.0199678421e+01    1.5921527147e-01
    1.0298215866e+01    1.6303943098e-01
    1.0398855209e+01    1.6694365442e-01
    1.0497861862e+01    1.7078322172e-01
    1.0597251892e+01    1.7463544011e-01
    1.0697270393e+01    1.7851054668e-01
    1.0799457550e+01    1.8246735632e-01
    1.0897672653e+01    1.8626771867e-01
    1.0998721123e+01    1.9017486274e-01
    1.1097229004e+01    1.9398045540e-01
    1.1198507309e+01    1.9788923860e-01
    1.1299547195e+01    2.0178557932e-01
    1.1398487091e+01    2.0559604466e-01
    1.1499978065e+01    2.0950098336e-01
    1.1598881721e+01    2.1330071986e-01
    1.1699591637e+01    2.1716696024e-01
    1.1797919273e+01    2.2093573213e-01
    1.1898950577e+01    2.2480404377e-01
    1.1999979973e+01    2.2866809368e-01
    1.2098205566e+01    2.3242175579e-01
    1.2197334290e+01    2.3620590568e-01
    1.2298474312e+01    2.4006281793e-01
    1.2397833824e+01    2.4384824932e-01
    1.2499473572e+01    2.4771679938e-01
    1.2598923683e+01    2.5149679184e-01
    1.2699953079e+01    2.5533139706e-01
    1.2798091888e+01    2.5905120373e-01
    1.2899495125e+01    2.6288941503e-01
    1.2997612000e+01    2.6659908891e-01
    1.3098699570e+01    2.7041831613e-01
    1.3197715759e+01    2.7415558696e-01
    1.3298756599e+01    2.7796751261e-01
    1.3397233963e+01    2.8168249130e-01
    1.3497929573e+01    2.8548079729e-01
    1.3597932816e+01    2.8925219178e-01
    1.3699493408e+01    2.9308238626e-01
    1.3797644615e+01    2.9678559303e-01
    1.3898680687e+01    3.0059689283e-01
    1.3997740746e+01    3.0433329940e-01
    1.4098539352e+01    3.0813488364e-01
    1.4197928429e+01    3.1188178062e-01
    1.4299071312e+01    3.1569120288e-01
    1.4397571564e+01    3.1939882040e-01
    1.4497648239e+01    3.2315999269e-01
    1.4599093437e+01    3.2696688175e-01
    1.4699822426e+01    3.3073899150e-01
    1.4798312187e+01    3.3441799879e-01
    1.4897054672e+01    3.3809620142e-01
    1.4998292923e+01    3.4185659885e-01
    1.5098944664e+01    3.4558150172e-01
    1.5199199677e+01    3.4927949309e-01
    1.5299445152e+01    3.5296279192e-01
    1.5399482727e+01    3.5662439466e-01
    1.5497596741e+01    3.6020109057e-01
    1.5597725868e+01    3.6383640766e-01
    1.5697420120e+01    3.6744010448e-01
    1.5797376633e+01    3.7103688717e-01
    1.5898392677e+01    3.7465688586e-01
    1.5998808861e+01    3.7823879719e-01
    1.6099941254e+01    3.8183030486e-01
    1.6199506760e+01    3.8535109162e-01
    1.6297647476e+01    3.8880649209e-01
    1.6399570465e+01    3.9237949252e-01
    1.6497373581e+01    3.9579358697e-01
    1.6598758698e+01    3.9931800961e-01
    1.6698831558e+01    4.0278390050e-01
    1.6799879074e+01    4.0626829863e-01
    1.6898040771e+01    4.0964108706e-01
    1.6998636246e+01    4.1308510303e-01
    1.7099475861e+01    4.1652381420e-01
    1.7198326111e+01    4.1988340020e-01
    1.7299909592e+01    4.2332330346e-01
    1.7399274826e+01    4.2667779326e-01
    1.7497299194e+01    4.2997640371e-01
    1.7597951889e+01    4.3335410953e-01
    1.7699010849e+01    4.3673580885e-01
    1.7797180176e+01    4.4001227617e-01
    1.7898233414e+01    4.4337671995e-01
    1.7999279022e+01    4.4673269987e-01
    1.8097755432e+01    4.4999459386e-01
    1.8199289322e+01    4.5335090160e-01
    1.8297386169e+01    4.5658531785e-01
    1.8398450851e+01    4.5990949869e-01
    1.8497283936e+01    4.6315291524e-01
    1.8598314285e+01    4.6646052599e-01
    1.8699340820e+01    4.6976050735e-01
    1.8798715591e+01    4.7299912572e-01
    1.8898563385e+01    4.7624629736e-01
    1.8999273300e+01    4.7951510549e-01
    1.9098115921e+01    4.8271822929e-01
    1.9198606491e+01    4.8596847057e-01
    1.9298030853e+01    4.8917961121e-01
    1.9398485184e+01    4.9241942167e-01
    1.9498451233e+01    4.9563899636e-01
    1.9599578857e+01    4.9889159203e-01
    1.9697742462e+01    5.0204491615e-01
    1.9799339294e+01    5.0530409813e-01
    1.9899480820e+01    5.0851219893e-01
    1.9998109818e+01    5.1166689396e-01
    2.0099456787e+01    5.1758170128e-01
    2.0197763443e+01    5.2336406708e-01
    2.0299747467e+01    5.2935659885e-01
    2.0397531509e+01    5.3509831429e-01
    2.0499458313e+01    5.4107594490e-01
    2.0599056244e+01    5.4691135883e-01
    2.0698812485e+01    5.5274814367e-01
    2.0797962189e+01    5.5854219198e-01
    2.0898649216e+01    5.6441599131e-01
    2.0999725342e+01    5.7030194998e-01
    2.1098436356e+01    5.7603949308e-01
    2.1200010300e+01    5.8193117380e-01
    2.1298189163e+01    5.8761358261e-01
    2.1397323608e+01    5.9333872795e-01
    2.1499183655e+01    5.9920591116e-01
    2.1599388123e+01    6.0496258736e-01
    2.1697563171e+01    6.1058890820e-01
    2.1798622131e+01    6.1636501551e-01
    2.1899675369e+01    6.2212610245e-01
    2.1997837067e+01    6.2770819664e-01
    2.2099744797e+01    6.3348889351e-01
    2.2199426651e+01    6.3913142681e-01
    2.2297525406e+01    6.4467096329e-01
    2.2399444580e+01    6.5041512251e-01
    2.2497875214e+01    6.5594959259e-01
    2.2599109650e+01    6.6162872314e-01
    2.2697280884e+01    6.6712260246e-01
    2.2798330307e+01    6.7276549339e-01
    2.2897104263e+01    6.7826861143e-01
    2.2998182297e+01    6.8388837576e-01
    2.3099815369e+01    6.8952900171e-01
    2.3198589325e+01    6.9500160217e-01
    2.3299652100e+01    7.0059299469e-01
    2.3399400711e+01    7.0610380173e-01
    2.3497232437e+01    7.1150124073e-01
    2.3598722458e+01    7.1709531546e-01
    2.3699779510e+01    7.2265845537e-01
    2.3797945023e+01    7.2805643082e-01
    2.3898994446e+01    7.3360574245e-01
    2.3999860764e+01    7.3913860321e-01
    2.4097249985e+01    7.4447101355e-01
    2.4197904587e+01    7.4997353554e-01
    2.4298036575e+01    7.5543701649e-01
    2.4398069382e+01    7.6088285446e-01
    2.4498348236e+01    7.6632809639e-01
    2.4598653793e+01    7.7176058292e-01
    2.4699348450e+01    7.7719599009e-01
    2.4797519684e+01    7.8247702122e-01
    2.4899753571e+01    7.8795498610e-01
    2.4999788284e+01    7.9329401255e-01
    2.5098043442e+01    7.9851400852e-01
    2.5199472427e+01    8.0387902260e-01
    2.5298135757e+01    8.0907303095e-01
    2.5397808075e+01    8.1429398060e-01
    2.5498870850e+01    8.1956201792e-01
    2.5598821640e+01    8.2474398613e-01
    2.5698518753e+01    8.2988697290e-01
    2.5798412323e+01    8.3501201868e-01
    2.5899452209e+01    8.4016895294e-01
    2.5999002457e+01    8.4522503614e-01
    2.6099269867e+01    8.5028898716e-01
    2.6198505402e+01    8.5527700186e-01
    2.6299566269e+01    8.6033099890e-01
    2.6397920609e+01    8.6522597075e-01
    2.6497484207e+01    8.7015700340e-01
    2.6598600388e+01    8.7514597178e-01
    2.6697399139e+01    8.7999194860e-01
    2.6798490524e+01    8.8493406773e-01
    2.6899581909e+01    8.8984400034e-01
    2.6997192383e+01    8.9457899332e-01
    2.7098279953e+01    8.9944595098e-01
    2.7199348450e+01    9.0430402756e-01
    2.7298974991e+01    9.0906995535e-01
    2.7399595261e+01    9.1385799646e-01
    2.7497600555e+01    9.1851001978e-01
    2.7598070145e+01    9.2326593399e-01
    2.7699167252e+01    9.2803400755e-01
    2.7797370911e+01    9.3264496326e-01
    2.7898452759e+01    9.3738305569e-01
    2.7999525070e+01    9.4209599495e-01
    2.8098470688e+01    9.4669902325e-01
    2.8199514389e+01    9.5139497519e-01
    2.8297582626e+01    9.5592999458e-01
    2.8398618698e+01    9.6059995890e-01
    2.8498054504e+01    9.6517097950e-01
    2.8599115372e+01    9.6981596947e-01
    2.8697284698e+01    9.7431099415e-01
    2.8797231674e+01    9.7887796164e-01
    2.8898393631e+01    9.8348796368e-01
    2.8998153687e+01    9.8802900314e-01
    2.9098014832e+01    9.9255800247e-01
    2.9197786331e+01    9.9708193541e-01
    2.9297653198e+01    1.0016059875e+00
    2.9397525787e+01    1.0061130524e+00
    2.9497989655e+01    1.0106489658e+00
    2.9599515915e+01    1.0152139664e+00
    2.9697723389e+01    1.0196259022e+00
    2.9799516678e+01    1.0241999626e+00
    2.9898330688e+01    1.0286219120e+00
    2.9998817444e+01    1.0331180096e+00
    3.0099903107e+01    1.0436099768e+00
    3.0198249817e+01    1.0538650751e+00
    3.0297286987e+01    1.0641919374e+00
    3.0397830963e+01    1.0746629238e+00
    3.0499715805e+01    1.0852490664e+00
    3.0599077225e+01    1.0955690145e+00
    3.0698534012e+01    1.1058809757e+00
    3.0797813416e+01    1.1161509752e+00
    3.0899099350e+01    1.1266229153e+00
    3.0998241425e+01    1.1368460655e+00
    3.1097181320e+01    1.1470229626e+00
    3.1198631287e+01    1.1574360132e+00
    3.1299747467e+01    1.1677920818e+00
    3.1398910522e+01    1.1779210567e+00
    3.1497997284e+01    1.1880170107e+00
    3.1599212646e+01    1.1983109713e+00
    3.1697280884e+01    1.2082500458e+00
    3.1798379898e+01    1.2184730768e+00
    3.1899467468e+01    1.2286579609e+00
    3.1997659683e+01    1.2385339737e+00
    3.2098819733e+01    1.2486870289e+00
    3.2198230743e+01    1.2586330175e+00
    3.2299430847e+01    1.2687380314e+00
    3.2398677826e+01    1.2786250114e+00
    3.2497402191e+01    1.2884440422e+00
    3.2599353790e+01    1.2985489368e+00
    3.2697566986e+01    1.3082660437e+00
    3.2798660278e+01    1.3182480335e+00
    3.2899646759e+01    1.3281910419e+00
    3.3000015259e+01    1.3380619287e+00
    3.3098072052e+01    1.3476840258e+00
    3.3200008392e+01    1.3576669693e+00
    3.3298236847e+01    1.3672870398e+00
    3.3399932861e+01    1.3772230148e+00
    3.3497901917e+01    1.3867909908e+00
    3.3599918365e+01    1.3967390060e+00
    3.3698131561e+01    1.4063119888e+00
    3.3799224854e+01    1.4161599874e+00
    3.3897426605e+01    1.4257149696e+00
    3.3998973846e+01    1.4355790615e+00
    3.4099018097e+01    1.4452940226e+00
    3.4198455811e+01    1.4549241066e+00
    3.4298782349e+01    1.4646289349e+00
    3.4397705078e+01    1.4741890430e+00
    3.4497135162e+01    1.4837620258e+00
    3.4598686218e+01    1.4935239553e+00
    3.4699409485e+01    1.5031729937e+00
    3.4797637939e+01    1.5125510693e+00
    3.4898921967e+01    1.5221869946e+00
    3.4997650146e+01    1.5315510035e+00
    3.5098644257e+01    1.5410829782e+00
    3.5198165894e+01    1.5504460335e+00
    3.5299198151e+01    1.5599069595e+00
    3.5399360657e+01    1.5692369938e+00
    3.5497417450e+01    1.5783479214e+00
    3.5597862244e+01    1.5876228809e+00
    3.5697563171e+01    1.5967919827e+00
    3.5797180176e+01    1.6059099436e+00
    3.5898250580e+01    1.6151120663e+00
    3.5997821808e+01    1.6241431236e+00
    3.6099006653e+01    1.6332719326e+00
    3.6199165344e+01    1.6422541142e+00
    3.6297374725e+01    1.6510281563e+00
    3.6398475647e+01    1.6600198746e+00
    3.6498336792e+01    1.6688569784e+00
    3.6599468231e+01    1.6777651310e+00
    3.6698734283e+01    1.6864770651e+00
    3.6799880981e+01    1.6953059435e+00
    3.6898143768e+01    1.7038539648e+00
    3.6999145508e+01    1.7125949860e+00
    3.7099063873e+01    1.7212139368e+00
    3.7197330475e+01    1.7296559811e+00
    3.7298488617e+01    1.7383060455e+00
    3.7399894714e+01    1.7469508648e+00
    3.7497932434e+01    1.7552789450e+00
    3.7598609924e+01    1.7637959719e+00
    3.7699787140e+01    1.7723340988e+00
    3.7798065186e+01    1.7806020975e+00
    3.7899219513e+01    1.7890819311e+00
    3.7997463226e+01    1.7973029613e+00
    3.8098033905e+01    1.8056910038e+00
    3.8199501038e+01    1.8141260147e+00
    3.8297504425e+01    1.8222631216e+00
    3.8398471832e+01    1.8306179047e+00
    3.8499824524e+01    1.8389830589e+00
    3.8598041534e+01    1.8470700979e+00
    3.8699127197e+01    1.8553769588e+00
    3.8799816132e+01    1.8636238575e+00
    3.8897941589e+01    1.8716499805e+00
    3.8998657227e+01    1.8798729181e+00
    3.9097087860e+01    1.8878951073e+00
    3.9199443817e+01    1.8962221146e+00
    3.9297817230e+01    1.9042098522e+00
    3.9397159576e+01    1.9122610092e+00
    3.9498397827e+01    1.9204620123e+00
    3.9599723816e+01    1.9286458492e+00
    3.9697998047e+01    1.9365799427e+00
    3.9799179077e+01    1.9447340965e+00
    3.9899059296e+01    1.9527648687e+00
    3.9997802734e+01    1.9606930017e+00
    4.0099170685e+01    1.9765409231e+00
    4.0197639465e+01    1.9920768738e+00
    4.0299781799e+01    2.0081679821e+00
    4.0397491455e+01    2.0235481262e+00
    4.0498821259e+01    2.0394699574e+00
    4.0598335266e+01    2.0550730228e+00
    4.0697666168e+01    2.0706250668e+00
    4.0799892426e+01    2.0865941048e+00
    4.0898353577e+01    2.1019539833e+00
    4.0997745514e+01    2.1174108982e+00
    4.1099727631e+01    2.1332299709e+00
    4.1198368073e+01    2.1484971046e+00
    4.1299564362e+01    2.1641120911e+00
    4.1398780823e+01    2.1793730259e+00
    4.1497798920e+01    2.1945710182e+00
    4.1598438263e+01    2.2099590302e+00
    4.1698898315e+01    2.2252800465e+00
    4.1797187805e+01    2.2402288914e+00
    4.1898345947e+01    2.2555608749e+00
    4.1999492645e+01    2.2708489895e+00
    4.2098392487e+01    2.2857570648e+00
    4.2197704315e+01    2.3006939888e+00
    4.2298961639e+01    2.3158769608e+00
    4.2398273468e+01    2.3307421207e+00
    4.2499443054e+01    2.3458349705e+00
    4.2597728729e+01    2.3604731560e+00
    4.2698890686e+01    2.3754909039e+00
    4.2797138214e+01    2.3900480270e+00
    4.2898265839e+01    2.4049868584e+00
    4.2999252319e+01    2.4198818207e+00
    4.3098644257e+01    2.4345109463e+00
    4.3197647095e+01    2.4490680695e+00
    4.3298831940e+01    2.4639058113e+00
    4.3397628784e+01    2.4783840179e+00
    4.3498329163e+01    2.4931240082e+00
    4.3597644806e+01    2.5076489449e+00
    4.3698818207e+01    2.5224289894e+00
    4.3797092438e+01    2.5367660522e+00
    4.3898250580e+01    2.5515060425e+00
    4.3999877930e+01    2.5662989616e+00
    4.4097713470e+01    2.5805180073e+00
    4.4197380066e+01    2.5949850082e+00
    4.4298625946e+01    2.6096501350e+00
    4.4398490906e+01    2.6240899563e+00
    4.4499050140e+01    2.6385941505e+00
    4.4597064972e+01    2.6526970863e+00
    4.4697483063e+01    2.6670989990e+00
    4.4798660278e+01    2.6815662384e+00
    4.4897926331e+01    2.6957020760e+00
    4.4999431610e+01    2.7101120949e+00
    4.5097381592e+01    2.7239520550e+00
    4.5199176788e+01    2.7382869720e+00
    4.5297183990e+01    2.7520151138e+00
    4.5397365570e+01    2.7660000324e+00
    4.5498355865e+01    2.7800259590e+00
    4.5598461151e+01    2.7938661575e+00
    4.5697849274e+01    2.8075280190e+00
    4.5797565460e+01    2.8211817741e+00
    4.5898693085e+01    2.8349628448e+00
    4.5999576569e+01    2.8486428261e+00
    4.6097759247e+01    2.8618850708e+00
    4.6198177338e+01    2.8753659725e+00
    4.6299354553e+01    2.8888850212e+00
    4.6397647858e+01    2.9019470215e+00
    4.6497612000e+01    2.9151740074e+00
    4.6598735809e+01    2.9284939766e+00
    4.6698215485e+01    2.9415330887e+00
    4.6799449921e+01    2.9547410011e+00
    4.6897792816e+01    2.9675080776e+00
    4.6999187469e+01    2.9806261063e+00
    4.7097259521e+01    2.9932518005e+00
    4.7199436188e+01    3.0063459873e+00
    4.7297775269e+01    3.0188930035e+00
    4.7399093628e+01    3.0317790508e+00
    4.7497077942e+01    3.0441901684e+00
    4.7596961975e+01    3.0567898750e+00
    4.7698234558e+01    3.0695300102e+00
    4.7799491882e+01    3.0822401047e+00
    4.7897838593e+01    3.0945196152e+00
    4.7999053955e+01    3.1071398258e+00
    4.8099296570e+01    3.1195900440e+00
    4.8197628021e+01    3.1317896843e+00
    4.8298515320e+01    3.1442499161e+00
    4.8399387360e+01    3.1566896439e+00
    4.8498435974e+01    3.1688702106e+00
    4.8599601746e+01    3.1812896729e+00
    4.8697853088e+01    3.1933000088e+00
    4.8797870636e+01    3.2055201530e+00
    4.8899097443e+01    3.2178597450e+00
    4.8999790192e+01    3.2301101685e+00
    4.9099060059e+01    3.2421603203e+00
    4.9199317932e+01    3.2543101311e+00
    4.9298015594e+01    3.2662596703e+00
    4.9398445129e+01    3.2783901691e+00
    4.9499729156e+01    3.2906103134e+00
    4.9598400116e+01    3.3025000095e+00
    4.9699634552e+01    3.3146700859e+00
    4.9798007965e+01    3.3264698982e+00
    4.9897174835e+01    3.3383398056e+00
    4.9998050690e+01    3.3504099846e+00
    5.0099567413e+01    3.3720700741e+00
    5.0198360443e+01    3.3933100700e+00
    5.0298023224e+01    3.4146900177e+00
    5.0398799896e+01    3.4362797737e+00
    5.0497673035e+01    3.4574298859e+00
    5.0597156525e+01    3.4786601067e+00
    5.0699535370e+01    3.5004599094e+00
    5.0798843384e+01    3.5215699673e+00
    5.0897224426e+01    3.5424201488e+00
    5.0999603271e+01    3.5640501976e+00
    5.1098686218e+01    3.5849299431e+00
    5.1197410583e+01    3.6056799889e+00
    5.1298694611e+01    3.6268897057e+00
    5.1397964478e+01    3.6476099491e+00
    5.1497184753e+01    3.6682500839e+00
    5.1597976685e+01    3.6891603470e+00
    5.1697269440e+01    3.7096698284e+00
    5.1798530579e+01    3.7305102348e+00
    5.1899768829e+01    3.7512800694e+00
    5.1998104095e+01    3.7713999748e+00
    5.2096977234e+01    3.7915501595e+00
    5.2199260712e+01    3.8123500347e+00
    5.2297531128e+01    3.8322601318e+00
    5.2396930695e+01    3.8523597717e+00
    5.2498199463e+01    3.8727798462e+00
    5.2599475861e+01    3.8931503296e+00
    5.2697837830e+01    3.9128699303e+00
    5.2799060822e+01    3.9331097603e+00
    5.2897830963e+01    3.9528203011e+00
    5.2998752594e+01    3.9728999138e+00
    5.3098449707e+01    3.9927101135e+00
    5.3197719574e+01    4.0123801231e+00
    5.3298973083e+01    4.0324301720e+00
    5.3398006439e+01    4.0519900322e+00
    5.3498535156e+01    4.0718398094e+00
    5.3597702026e+01    4.0913696289e+00
    5.3698928833e+01    4.1113004684e+00
    5.3797245026e+01    4.1306300163e+00
    5.3898445129e+01    4.1504998207e+00
    5.3996906281e+01    4.1697998047e+00
    5.4097717285e+01    4.1895303726e+00
    5.4197616577e+01    4.2090401649e+00
    5.4298179626e+01    4.2286500931e+00
    5.4398288727e+01    4.2481298447e+00
    5.4499633789e+01    4.2678003311e+00
    5.4597366333e+01    4.2867202759e+00
    5.4697776794e+01    4.3060898781e+00
    5.4799037933e+01    4.3255701065e+00
    5.4898460388e+01    4.3446202278e+00
    5.4999576569e+01    4.3639097214e+00
    5.5097434998e+01    4.3825101852e+00
    5.5199214935e+01    4.4017701149e+00
    5.5299663544e+01    4.4207100868e+00
    5.5399677277e+01    4.4394598007e+00
    5.5497642517e+01    4.4577398300e+00
    5.5597816467e+01    4.4763498306e+00
    5.5697303772e+01    4.4947299957e+00
    5.5797233582e+01    4.5131001472e+00
    5.5898429871e+01    4.5316200256e+00
    5.5998657227e+01    4.5498600006e+00
    5.6096908569e+01    4.5676403046e+00
    5.6197391510e+01    4.5857501030e+00
    5.6298645020e+01    4.6038999557e+00
    5.6397018433e+01    4.6214399338e+00
    5.6499591827e+01    4.6396298409e+00
    5.6597183228e+01    4.6568603516e+00
    5.6699062347e+01    4.6747498512e+00
    5.6797500610e+01    4.6919498444e+00
    5.6898845673e+01    4.7095899582e+00
    5.6999496460e+01    4.7270102501e+00
    5.7097530365e+01    4.7439002991e+00
    5.7199539185e+01    4.7613897324e+00
    5.7297977448e+01    4.7782001495e+00
    5.7399467468e+01    4.7954502106e+00
    5.7497383118e+01    4.8120298386e+00
    5.7597335815e+01    4.8288898468e+00
    5.7698707581e+01    4.8459300995e+00
    5.7797157288e+01    4.8624200821e+00
    5.7898479462e+01    4.8793501854e+00
    5.7996875763e+01    4.8957195282e+00
    5.8097724915e+01    4.9124498367e+00
    5.8198951721e+01    4.9292001724e+00
    5.8296779633e+01    4.9453401566e+00
    5.8397552490e+01    4.9619302750e+00
    5.8499511719e+01    4.9786596298e+00
    5.8597862244e+01    4.9947700500e+00
    5.8699073792e+01    5.0113101006e+00
    5.8796977997e+01    5.0272798538e+00
    5.8898269653e+01    5.0437598228e+00
    5.8999568939e+01    5.0602197647e+00
    5.9096981049e+01    5.0760202408e+00
    5.9198596954e+01    5.0924701691e+00
    5.9299503326e+01    5.1087799072e+00
    5.9398372650e+01    5.1247196198e+00
    5.9496665955e+01    5.1405601501e+00
    5.9598667145e+01    5.1569595337e+00
    5.9697093964e+01    5.1727700233e+00
    5.9798450470e+01    5.1890096664e+00
    5.9897960663e+01    5.2049198151e+00
    5.9998714447e+01    5.2209901810e+00
    6.0097549438e+01    5.2476701736e+00
    6.0199367523e+01    5.2752599716e+00
    6.0298969269e+01    5.3021898270e+00
    6.0396930695e+01    5.3286399841e+00
    6.0497882843e+01    5.3558197021e+00
    6.0597320557e+01    5.3825397491e+00
    6.0696704865e+01    5.4091801643e+00
    6.0799045563e+01    5.4365501404e+00
    6.0897533417e+01    5.4627895355e+00
    6.0996948242e+01    5.4892101288e+00
    6.1099380493e+01    5.5163402557e+00
    6.1198226929e+01    5.5424203873e+00
    6.1299629211e+01    5.5690898895e+00
    6.1399047852e+01    5.5951399803e+00
    6.1497985840e+01    5.6209697723e+00
    6.1598667145e+01    5.6471400261e+00
    6.1698490143e+01    5.6729903221e+00
    6.1796958923e+01    5.6983900070e+00
    6.1898296356e+01    5.7244296074e+00
    6.1999614716e+01    5.7503700256e+00
    6.2098617554e+01    5.7756204605e+00
    6.2198146820e+01    5.8009295464e+00
    6.2299568176e+01    5.8266396523e+00
    6.2398868561e+01    5.8517198563e+00
    6.2497322083e+01    5.8765401840e+00
    6.2598678589e+01    5.9019899368e+00
    6.2697109222e+01    5.9266500473e+00
    6.2798397064e+01    5.9519500732e+00
    6.2897315979e+01    5.9765801430e+00
    6.2998157501e+01    6.0016403198e+00
    6.3098064423e+01    6.0264101028e+00
    6.3197929382e+01    6.0511198044e+00
    6.3299263000e+01    6.0761399269e+00
    6.3398269653e+01    6.1005601883e+00
    6.3498832703e+01    6.1252994537e+00
    6.3597949982e+01    6.1496601105e+00
    6.3699249268e+01    6.1745195389e+00
    6.3797641754e+01    6.1986398697e+00
    6.3898914337e+01    6.2234201431e+00
    6.3997306824e+01    6.2474498749e+00
    6.4098884583e+01    6.2722296715e+00
    6.4199554443e+01    6.2967300415e+00
    6.4297851562e+01    6.3205995560e+00
    6.4398559570e+01    6.3450098038e+00
    6.4496910095e+01    6.3687801361e+00
    6.4596954346e+01    6.3928899765e+00
    6.4696998596e+01    6.4169197083e+00
    6.4798362732e+01    6.4411897659e+00
    6.4897712708e+01    6.4648799896e+00
    6.4998382568e+01    6.4888095856e+00
    6.5099082947e+01    6.5126304626e+00
    6.5196884155e+01    6.5356597900e+00
    6.5298324585e+01    6.5594401360e+00
    6.5398803711e+01    6.5828895569e+00
    6.5496704102e+01    6.6056199074e+00
    6.5597015381e+01    6.6287899017e+00
    6.5699356079e+01    6.6523199081e+00
    6.5799064636e+01    6.6751194000e+00
    6.5897445679e+01    6.6975393295e+00
    6.5998283386e+01    6.7202596664e+00
    6.6096603394e+01    6.7424297333e+00
    6.6197532654e+01    6.7649898529e+00
    6.6298873901e+01    6.7875394821e+00
    6.6397331238e+01    6.8093299866e+00
    6.6496742249e+01    6.8312101364e+00
    6.6599296570e+01    6.8536696434e+00
    6.6697807312e+01    6.8751897812e+00
    6.6799232483e+01    6.8971405029e+00
    6.6897773743e+01    6.9183406830e+00
    6.6998497009e+01    6.9399995804e+00
    6.7099395752e+01    6.9615101814e+00
    6.7197929382e+01    6.9823904037e+00
    6.7299362183e+01    7.0038900375e+00
    6.7397979736e+01    7.0245695114e+00
    6.7498786926e+01    7.0457100868e+00
    6.7598541260e+01    7.0665798187e+00
    6.7697128296e+01    7.0870099068e+00
    6.7798583984e+01    7.1080799103e+00
    6.7897117615e+01    7.1283798218e+00
    6.7998512268e+01    7.1492104530e+00
    6.8099464417e+01    7.1699800491e+00
    6.8198211670e+01    7.1901502609e+00
    6.8298873901e+01    7.2106504440e+00
    6.8399513245e+01    7.2311096191e+00
    6.8498092651e+01    7.2511496544e+00
    6.8599418640e+01    7.2716703415e+00
    6.8697807312e+01    7.2914600372e+00
    6.8798660278e+01    7.3117904663e+00
    6.8896942139e+01    7.3316307068e+00
    6.8998298645e+01    7.3519802094e+00
    6.9097198486e+01    7.3718299866e+00
    6.9197990417e+01    7.3919296265e+00
    6.9298789978e+01    7.4121098518e+00
    6.9397819519e+01    7.4318304062e+00
    6.9499267578e+01    7.4520897865e+00
    6.9598472595e+01    7.4718103409e+00
    6.9696990967e+01    7.4913401604e+00
    6.9798454285e+01    7.5114903450e+00
    6.9897857666e+01    7.5311498642e+00
    6.9998748779e+01    7.5510301590e+00
    7.0097549438e+01    7.5813097954e+00
    7.0196594238e+01    7.6116795540e+00
    7.0299308777e+01    7.6431803703e+00
    7.0397270203e+01    7.6731495857e+00
    7.0497833252e+01    7.7037696838e+00
    7.0597160339e+01    7.7339797020e+00
    7.0696517944e+01    7.7640900612e+00
    7.0798896790e+01    7.7950305939e+00
    7.0897644043e+01    7.8247699738e+00
    7.0997871399e+01    7.8548798561e+00
    7.1097663879e+01    7.8846597672e+00
    7.1196792603e+01    7.9141898155e+00
    7.1298309326e+01    7.9442405701e+00
    7.1397712708e+01    7.9736495018e+00
    7.1496971130e+01    8.0027599335e+00
    7.1597366333e+01    8.0321693420e+00
    7.1696670532e+01    8.0610103607e+00
    7.1798141479e+01    8.0904998779e+00
    7.1896690369e+01    8.1189603806e+00
    7.1998115540e+01    8.1480102539e+00
    7.2097534180e+01    8.1765203476e+00
    7.2196853638e+01    8.2048397064e+00
    7.2298370361e+01    8.2336301804e+00
    7.2397949219e+01    8.2617893219e+00
    7.2499389648e+01    8.2903900146e+00
    7.2597946167e+01    8.3181095123e+00
    7.2699356079e+01    8.3465299606e+00
    7.2797828674e+01    8.3740901947e+00
    7.2899055481e+01    8.4022798538e+00
    7.2996826172e+01    8.4293498993e+00
    7.3097061157e+01    8.4571495056e+00
    7.3197174072e+01    8.4848098755e+00
    7.3298583984e+01    8.5127801895e+00
    7.3397590637e+01    8.5399999619e+00
    7.3497947693e+01    8.5675401688e+00
    7.3596824646e+01    8.5946998596e+00
    7.3698204041e+01    8.6224803925e+00
    7.3796669006e+01    8.6493606567e+00
    7.3898017883e+01    8.6770601273e+00
    7.3996559143e+01    8.7039194107e+00
    7.4097869873e+01    8.7314205170e+00
    7.4198799133e+01    8.7587594986e+00
    7.4297157288e+01    8.7854003906e+00
    7.4398628235e+01    8.8127698898e+00
    7.4497062683e+01    8.8392505646e+00
    7.4597007751e+01    8.8661699295e+00
    7.4698799133e+01    8.8934097290e+00
    7.4797355652e+01    8.9195995331e+00
    7.4897003174e+01    8.9461002350e+00
    7.4997543335e+01    8.9726600647e+00
    7.5098121643e+01    8.9991903305e+00
    7.5198593140e+01    9.0255298615e+00
    7.5297058105e+01    9.0511703491e+00
    7.5397483826e+01    9.0772705078e+00
    7.5498275757e+01    9.1032400131e+00
    7.5598358154e+01    9.1289596558e+00
    7.5696479797e+01    9.1540699005e+00
    7.5798194885e+01    9.1798706055e+00
    7.5896682739e+01    9.2048091888e+00
    7.5996902466e+01    9.2300395966e+00
    7.6098403931e+01    9.2553596497e+00
    7.6199264526e+01    9.2804203033e+00
    7.6297813416e+01    9.3047599792e+00
    7.6399276733e+01    9.3296604156e+00
    7.6499114990e+01    9.3539600372e+00
    7.6597778320e+01    9.3779506683e+00
    7.6699279785e+01    9.4024000168e+00
    7.6797889709e+01    9.4260292053e+00
    7.6896522522e+01    9.4496307373e+00
    7.6997261047e+01    9.4734897614e+00
    7.7098182678e+01    9.4972600937e+00
    7.7197074890e+01    9.5205001831e+00
    7.7298988342e+01    9.5443401337e+00
    7.7398254395e+01    9.5673294067e+00
    7.7498970032e+01    9.5905895233e+00
    7.7598258972e+01    9.6134700775e+00
    7.7696952820e+01    9.6361303329e+00
    7.7798522949e+01    9.6592597961e+00
    7.7897163391e+01    9.6817703247e+00
    7.7998672485e+01    9.7047500610e+00
    7.8096832275e+01    9.7269592285e+00
    7.8199188232e+01    9.7500495911e+00
    7.8296745300e+01    9.7719202042e+00
    7.8397239685e+01    9.7944402695e+00
    7.8498985291e+01    9.8172397614e+00
    7.8597518921e+01    9.8392505646e+00
    7.8698905945e+01    9.8618602753e+00
    7.8797134399e+01    9.8836803436e+00
    7.8898582458e+01    9.9061908722e+00
    7.8996955872e+01    9.9279994965e+00
    7.9098747253e+01    9.9505405426e+00
    7.9196449280e+01    9.9720792770e+00
    7.9297119141e+01    9.9942903519e+00
    7.9396659851e+01    1.0016210556e+01
    7.9498184204e+01    1.0038499832e+01
    7.9597999573e+01    1.0060461044e+01
    7.9696594238e+01    1.0082059860e+01
    7.9798126221e+01    1.0104320526e+01
    7.9897415161e+01    1.0125909805e+01
    7.9998184204e+01    1.0147890091e+01
    8.0096794128e+01    1.0180660248e+01
    8.0199180603e+01    1.0214810371e+01
    8.0299003601e+01    1.0248050690e+01
    8.0397033691e+01    1.0280569077e+01
    8.0497505188e+01    1.0313829422e+01
    8.0596870422e+01    1.0346640587e+01
    8.0698944092e+01    1.0380178452e+01
    8.0798385620e+01    1.0412828445e+01
    8.0897232056e+01    1.0445049286e+01
    8.0998184204e+01    1.0477859497e+01
    8.1098243713e+01    1.0510320663e+01
    8.1197662354e+01    1.0542350769e+01
    8.1299293518e+01    1.0574909210e+01
    8.1398757935e+01    1.0606710434e+01
    8.1498016357e+01    1.0638219833e+01
    8.1598648071e+01    1.0670029640e+01
    8.1698013306e+01    1.0701290131e+01
    8.1796699524e+01    1.0732220650e+01
    8.1898262024e+01    1.0763839722e+01
    8.1996902466e+01    1.0794390678e+01
    8.2099266052e+01    1.0825959206e+01
    8.2198585510e+01    1.0856510162e+01
    8.2297119141e+01    1.0886610031e+01
    8.2396781921e+01    1.0917009354e+01
    8.2498329163e+01    1.0947860718e+01
    8.2596969604e+01    1.0977689743e+01
    8.2698471069e+01    1.1008329391e+01
    8.2797027588e+01    1.1037979126e+01
    8.2898483276e+01    1.1068350792e+01
    8.2999084473e+01    1.1098421097e+01
    8.3096488953e+01    1.1127410889e+01
    8.3196487427e+01    1.1157140732e+01
    8.3297966003e+01    1.1187200546e+01
    8.3396858215e+01    1.1216489792e+01
    8.3496849060e+01    1.1246040344e+01
    8.3598541260e+01    1.1276060104e+01
    8.3697082520e+01    1.1305119514e+01
    8.3798507690e+01    1.1334939957e+01
    8.3897033691e+01    1.1363809586e+01
    8.3998573303e+01    1.1393590927e+01
    8.4096755981e+01    1.1422379494e+01
    8.4197944641e+01    1.1451870918e+01
    8.4296394348e+01    1.1480560303e+01
    8.4397941589e+01    1.1510089874e+01
    8.4496452332e+01    1.1538629532e+01
    8.4596809387e+01    1.1567730904e+01
    8.4698425293e+01    1.1596999168e+01
    8.4797088623e+01    1.1625309944e+01
    8.4896705627e+01    1.1653879166e+01
    8.4997116089e+01    1.1682550430e+01
    8.5097579956e+01    1.1711079597e+01
    8.5197616577e+01    1.1739340782e+01
    8.5296203613e+01    1.1767080307e+01
    8.5396934509e+01    1.1795219421e+01
    8.5497657776e+01    1.1823321342e+01
    8.5597854614e+01    1.1851059914e+01
    8.5698532104e+01    1.1878870964e+01
    8.5797813416e+01    1.1906050682e+01
    8.5896377563e+01    1.1932929039e+01
    8.5997039795e+01    1.1960179329e+01
    8.6098609924e+01    1.1987530708e+01
    8.6196571350e+01    1.2013771057e+01
    8.6298088074e+01    1.2040800095e+01
    8.6396728516e+01    1.2066861153e+01
    8.6497428894e+01    1.2093271255e+01
    8.6596443176e+01    1.2119169235e+01
    8.6698013306e+01    1.2145520210e+01
    8.6796707153e+01    1.2171030998e+01
    8.6898315430e+01    1.2197049141e+01
    8.6998779297e+01    1.2222670555e+01
    8.7096687317e+01    1.2247429848e+01
    8.7198814392e+01    1.2273199081e+01
    8.7297546387e+01    1.2297959328e+01
    8.7396362305e+01    1.2322559357e+01
    8.7496994019e+01    1.2347529411e+01
    8.7596382141e+01    1.2372070312e+01
    8.7698097229e+01    1.2397100449e+01
    8.7796867371e+01    1.2421300888e+01
    8.7898521423e+01    1.2446160316e+01
    8.7997230530e+01    1.2470209122e+01
    8.8098396301e+01    1.2494709969e+01
    8.8197509766e+01    1.2518658638e+01
    8.8297859192e+01    1.2542949677e+01
    8.8397262573e+01    1.2566870689e+01
    8.8498840332e+01    1.2591259956e+01
    8.8597473145e+01    1.2614891052e+01
    8.8698944092e+01    1.2639140129e+01
    8.8797798157e+01    1.2662809372e+01
    8.8896240234e+01    1.2686309814e+01
    8.8997772217e+01    1.2710500717e+01
    8.9096260071e+01    1.2734000206e+01
    8.9196746826e+01    1.2757899284e+01
    8.9297241211e+01    1.2781700134e+01
    8.9399078369e+01    1.2805899620e+01
    8.9497581482e+01    1.2829300880e+01
    8.9597274780e+01    1.2852899551e+01
    8.9698837280e+01    1.2876900673e+01
    8.9797538757e+01    1.2900099754e+01
    8.9896286011e+01    1.2923299789e+01
    8.9996917725e+01    1.2946900368e+01
    9.0098526001e+01    1.2984999657e+01
    9.0197662354e+01    1.3022500038e+01
    9.0297492981e+01    1.3060200691e+01
    9.0398429871e+01    1.3098200798e+01
    9.0498687744e+01    1.3135800362e+01
    9.0598045349e+01    1.3173100471e+01
    9.0697341919e+01    1.3210100174e+01
    9.0796890259e+01    1.3247099876e+01
    9.0898941040e+01    1.3284900665e+01
    9.0997215271e+01    1.3321199417e+01
    9.1097610474e+01    1.3357999802e+01
    9.1196975708e+01    1.3394300461e+01
    9.1298728943e+01    1.3431399345e+01
    9.1398193359e+01    1.3467399597e+01
    9.1497718811e+01    1.3503299713e+01
    9.1598068237e+01    1.3539200783e+01
    9.1697769165e+01    1.3574799538e+01
    9.1796569824e+01    1.3609900475e+01
    9.1898254395e+01    1.3645898819e+01
    9.1997001648e+01    1.3680601120e+01
    9.2096206665e+01    1.3715398788e+01
    9.2198371887e+01    1.3751100540e+01
    9.2296989441e+01    1.3785299301e+01
    9.2396743774e+01    1.3819899559e+01
    9.2498359680e+01    1.3854899406e+01
    9.2597076416e+01    1.3888800621e+01
    9.2698646545e+01    1.3923700333e+01
    9.2797256470e+01    1.3957299232e+01
    9.2898628235e+01    1.3991800308e+01
    9.2999099731e+01    1.4026000023e+01
    9.3096504211e+01    1.4059000969e+01
    9.3196578979e+01    1.4092801094e+01
    9.3298126221e+01    1.4127201080e+01
    9.3396736145e+01    1.4160399437e+01
    9.3496719360e+01    1.4194000244e+01
    9.3598266602e+01    1.4228199959e+01
    9.3696891785e+01    1.4261301041e+01
    9.3798408508e+01    1.4295400620e+01
    9.3897033691e+01    1.4328398705e+01
    9.3998863220e+01    1.4362599373e+01
    9.4096923828e+01    1.4395399094e+01
    9.4197853088e+01    1.4429099083e+01
    9.4296401978e+01    1.4461999893e+01
    9.4397918701e+01    1.4495700836e+01
    9.4496528625e+01    1.4528499603e+01
    9.4597923279e+01    1.4562199593e+01
    9.4698951721e+01    1.4595499992e+01
    9.4797721863e+01    1.4628099442e+01
    9.4897262573e+01    1.4660901070e+01
    9.4997543335e+01    1.4693699837e+01
    9.5097877502e+01    1.4726400375e+01
    9.5197532654e+01    1.4758799553e+01
    9.5296211243e+01    1.4790801048e+01
    9.5397621155e+01    1.4823400497e+01
    9.5498245239e+01    1.4855599403e+01
    9.5598564148e+01    1.4887599945e+01
    9.5698234558e+01    1.4919200897e+01
    9.5798896790e+01    1.4951000214e+01
    9.5897514343e+01    1.4981899261e+01
    9.5998237610e+01    1.5013298988e+01
    9.6096794128e+01    1.5043899536e+01
    9.6197540283e+01    1.5074899673e+01
    9.6296234131e+01    1.5105098724e+01
    9.6397842407e+01    1.5136100769e+01
    9.6498649597e+01    1.5166600227e+01
    9.6597656250e+01    1.5196398735e+01
    9.6696395874e+01    1.5225800514e+01
    9.6798065186e+01    1.5255900383e+01
    9.6896850586e+01    1.5285099030e+01
    9.6998130798e+01    1.5314899445e+01
    9.7098793030e+01    1.5344200134e+01
    9.7197608948e+01    1.5372800827e+01
    9.7296424866e+01    1.5401299477e+01
    9.7398498535e+01    1.5430600166e+01
    9.7499061584e+01    1.5459300995e+01
    9.7598541260e+01    1.5487499237e+01
    9.7697456360e+01    1.5515599251e+01
    9.7796340942e+01    1.5543399811e+01
    9.7898101807e+01    1.5572099686e+01
    9.7996917725e+01    1.5599700928e+01
    9.8097290039e+01    1.5627799034e+01
    9.8198738098e+01    1.5656000137e+01
    9.8298004150e+01    1.5683600426e+01
    9.8396781921e+01    1.5710999489e+01
    9.8498451233e+01    1.5739099503e+01
    9.8597175598e+01    1.5766400337e+01
    9.8698730469e+01    1.5794400215e+01
    9.8798194885e+01    1.5821799278e+01
    9.8896713257e+01    1.5848999977e+01
    9.8998306274e+01    1.5876999855e+01
    9.9096656799e+01    1.5904000282e+01
    9.9196929932e+01    1.5931500435e+01
    9.9297218323e+01    1.5959100723e+01
    9.9398681641e+01    1.5986800194e+01
    9.9497253418e+01    1.6013801575e+01
    9.9597183228e+01    1.6041099548e+01
    9.9698814392e+01    1.6068901062e+01
    9.9797599792e+01    1.6095800400e+01
    9.9897293091e+01    1.6122999191e+01
    9.9997817993e+01    1.6150299072e+01
    1.0009641266e+02    1.6194000244e+01
    1.0019843292e+02    1.6239400864e+01
    1.0029827881e+02    1.6283901215e+01
    1.0039640808e+02    1.6327400208e+01
    1.0049726105e+02    1.6372100830e+01
    1.0059674835e+02    1.6416000366e+01
    1.0069609070e+02    1.6459699631e+01
    1.0079869080e+02    1.6504699707e+01
    1.0089778137e+02    1.6548000336e+01
    1.0099626923e+02    1.6590900421e+01
    1.0109673309e+02    1.6634399414e+01
    1.0119641113e+02    1.6677497864e+01
    1.0129830170e+02    1.6721401215e+01
    1.0139785767e+02    1.6763998032e+01
    1.0149732208e+02    1.6806400299e+01
    1.0159741211e+02    1.6848800659e+01
    1.0169705200e+02    1.6890899658e+01
    1.0179888916e+02    1.6933700562e+01
    1.0189777374e+02    1.6975000381e+01
    1.0199662018e+02    1.7016099930e+01
    1.0209867859e+02    1.7058401108e+01
    1.0219799805e+02    1.7099401474e+01
    1.0229669952e+02    1.7140100479e+01
    1.0239669800e+02    1.7181098938e+01
    1.0249839783e+02    1.7222698212e+01
    1.0259719086e+02    1.7262798309e+01
    1.0269882965e+02    1.7304100037e+01
    1.0279752350e+02    1.7344099045e+01
    1.0289864349e+02    1.7384901047e+01
    1.0299604034e+02    1.7424100876e+01
    1.0309616852e+02    1.7464401245e+01
    1.0319632721e+02    1.7504600525e+01
    1.0329797363e+02    1.7545301437e+01
    1.0339668274e+02    1.7584802628e+01
    1.0349714661e+02    1.7624900818e+01
    1.0359880829e+02    1.7665500641e+01
    1.0369754791e+02    1.7704900742e+01
    1.0379627991e+02    1.7744300842e+01
    1.0389791870e+02    1.7784801483e+01
    1.0399665833e+02    1.7824102402e+01
    1.0409773254e+02    1.7864299774e+01
    1.0419876862e+02    1.7904500961e+01
    1.0429740906e+02    1.7943601608e+01
    1.0439866638e+02    1.7983800888e+01
    1.0449736786e+02    1.8022901535e+01
    1.0459880066e+02    1.8062999725e+01
    1.0469856262e+02    1.8102298737e+01
    1.0479743195e+02    1.8141099930e+01
    1.0489691925e+02    1.8180200577e+01
    1.0499703979e+02    1.8219198227e+01
    1.0509722900e+02    1.8258197784e+01
    1.0519770050e+02    1.8297201157e+01
    1.0529646301e+02    1.8335201263e+01
    1.0539820099e+02    1.8374300003e+01
    1.0549873352e+02    1.8412801743e+01
    1.0559615326e+02    1.8449800491e+01
    1.0569606781e+02    1.8487499237e+01
    1.0579656982e+02    1.8525400162e+01
    1.0589814758e+02    1.8563297272e+01
    1.0599873352e+02    1.8600698471e+01
    1.0609732819e+02    1.8637100220e+01
    1.0619795990e+02    1.8674001694e+01
    1.0629669952e+02    1.8710000992e+01
    1.0639804077e+02    1.8746700287e+01
    1.0649609375e+02    1.8781997681e+01
    1.0659844971e+02    1.8818599701e+01
    1.0669728088e+02    1.8853700638e+01
    1.0679612732e+02    1.8888599396e+01
    1.0689791870e+02    1.8924299240e+01
    1.0699629211e+02    1.8958599091e+01
    1.0709712982e+02    1.8993501663e+01
    1.0719609833e+02    1.9027700424e+01
    1.0729839325e+02    1.9062698364e+01
    1.0739832306e+02    1.9096700668e+01
    1.0749881744e+02    1.9130798340e+01
    1.0759844971e+02    1.9164400101e+01
    1.0769750214e+02    1.9197597504e+01
    1.0779651642e+02    1.9230800629e+01
    1.0789842224e+02    1.9264902115e+01
    1.0799735260e+02    1.9297800064e+01
    1.0809693146e+02    1.9330698013e+01
    1.0819715881e+02    1.9363798141e+01
    1.0829608917e+02    1.9396501541e+01
    1.0839785767e+02    1.9430000305e+01
    1.0849671936e+02    1.9462499619e+01
    1.0859844971e+02    1.9495800018e+01
    1.0869719696e+02    1.9528099060e+01
    1.0879640198e+02    1.9560600281e+01
    1.0889808655e+02    1.9593799591e+01
    1.0899668884e+02    1.9626001358e+01
    1.0909715271e+02    1.9658798218e+01
    1.0919722748e+02    1.9691400528e+01
    1.0929731750e+02    1.9724000931e+01
    1.0939640808e+02    1.9756198883e+01
    1.0949816132e+02    1.9789299011e+01
    1.0959810638e+02    1.9821800232e+01
    1.0969696045e+02    1.9853799820e+01
    1.0979878998e+02    1.9886798859e+01
    1.0989733124e+02    1.9918601990e+01
    1.0999887085e+02    1.9951398849e+01
    1.1009745026e+02    2.0003902435e+01
    1.1019689941e+02    2.0057201385e+01
    1.1029682159e+02    2.0110401154e+01
    1.1039808655e+02    2.0164398193e+01
    1.1049884033e+02    2.0217901230e+01
    1.1059845734e+02    2.0270599365e+01
    1.1069803619e+02    2.0323198318e+01
    1.1079779053e+02    2.0375699997e+01
    1.1089704895e+02    2.0427698135e+01
    1.1099852753e+02    2.0480800629e+01
    1.1109597778e+02    2.0531501770e+01
    1.1119873047e+02    2.0584800720e+01
    1.1129786682e+02    2.0635900497e+01
    1.1139753723e+02    2.0687101364e+01
    1.1149681091e+02    2.0737998962e+01
    1.1159700012e+02    2.0788900375e+01
    1.1169679260e+02    2.0839500427e+01
    1.1179875946e+02    2.0890899658e+01
    1.1189824677e+02    2.0940799713e+01
    1.1199723053e+02    2.0990200043e+01
    1.1209626770e+02    2.1039499283e+01
    1.1219869995e+02    2.1090099335e+01
    1.1229750061e+02    2.1138801575e+01
    1.1239778137e+02    2.1188199997e+01
    1.1249667358e+02    2.1236598969e+01
    1.1259848022e+02    2.1286298752e+01
    1.1269731140e+02    2.1334300995e+01
    1.1279609680e+02    2.1382200241e+01
    1.1289774323e+02    2.1431299210e+01
    1.1299800110e+02    2.1479801178e+01
    1.1309828949e+02    2.1527900696e+01
    1.1319838715e+02    2.1576000214e+01
    1.1329725647e+02    2.1623401642e+01
    1.1339608765e+02    2.1670700073e+01
    1.1349697113e+02    2.1719001770e+01
    1.1359876251e+02    2.1767601013e+01
    1.1369763184e+02    2.1814798355e+01
    1.1379649353e+02    2.1861902237e+01
    1.1389826202e+02    2.1910398483e+01
    1.1399745178e+02    2.1957601547e+01
    1.1409829712e+02    2.2005598068e+01
    1.1419690704e+02    2.2052398682e+01
    1.1429875946e+02    2.2100700378e+01
    1.1439685822e+02    2.2147201538e+01
    1.1449875641e+02    2.2195400238e+01
    1.1459683228e+02    2.2241699219e+01
    1.1469642639e+02    2.2288501740e+01
    1.1479830170e+02    2.2336301804e+01
    1.1489778900e+02    2.2382801056e+01
    1.1499771881e+02    2.2429399490e+01
    1.1509774017e+02    2.2475702286e+01
    1.1519731140e+02    2.2521699905e+01
    1.1529617310e+02    2.2567098618e+01
    1.1539814758e+02    2.2613700867e+01
    1.1549604034e+02    2.2658102036e+01
    1.1559696198e+02    2.2703699112e+01
    1.1569770050e+02    2.2749002457e+01
    1.1579734039e+02    2.2793399811e+01
    1.1589608765e+02    2.2837198257e+01
    1.1599674988e+02    2.2881498337e+01
    1.1609851074e+02    2.2925998688e+01
    1.1619590759e+02    2.2968299866e+01
    1.1629765320e+02    2.3012201309e+01
    1.1639611816e+02    2.3054399490e+01
    1.1649617767e+02    2.3096900940e+01
    1.1659871674e+02    2.3140199661e+01
    1.1669767761e+02    2.3181699753e+01
    1.1679666901e+02    2.3222900391e+01
    1.1689859009e+02    2.3265098572e+01
    1.1699732208e+02    2.3305599213e+01
    1.1709819031e+02    2.3346801758e+01
    1.1719770813e+02    2.3387199402e+01
    1.1729747009e+02    2.3427301407e+01
    1.1739778900e+02    2.3467500687e+01
    1.1749823761e+02    2.3507497787e+01
    1.1759802246e+02    2.3547098160e+01
    1.1769725037e+02    2.3586301804e+01
    1.1779644775e+02    2.3625200272e+01
    1.1789852142e+02    2.3665201187e+01
    1.1799761200e+02    2.3703701019e+01
    1.1809664917e+02    2.3742200851e+01
    1.1819857025e+02    2.3781700134e+01
    1.1829756927e+02    2.3819900513e+01
    1.1839659119e+02    2.3857898712e+01
    1.1849851227e+02    2.3897100449e+01
    1.1859748840e+02    2.3934997559e+01
    1.1869638824e+02    2.3972799301e+01
    1.1879844666e+02    2.4011800766e+01
    1.1889718628e+02    2.4049499512e+01
    1.1899591064e+02    2.4087099075e+01
    1.1909710693e+02    2.4125598907e+01
    1.1919700623e+02    2.4163501740e+01
    1.1929694366e+02    2.4201501846e+01
    1.1939716339e+02    2.4239501953e+01
    1.1949597168e+02    2.4276899338e+01
    1.1959858704e+02    2.4315700531e+01
    1.1969763947e+02    2.4353200912e+01
    1.1979670715e+02    2.4390501022e+01
    1.1989584351e+02    2.4427799225e+01
    1.1999723053e+02    2.4465900421e+01
    1.2009609985e+02    2.4525499344e+01
    1.2019564819e+02    2.4586200714e+01
    1.2029586029e+02    2.4646999359e+01
    1.2039730072e+02    2.4708599091e+01
    1.2049788666e+02    2.4769300461e+01
    1.2059765625e+02    2.4829299927e+01
    1.2069728851e+02    2.4889099121e+01
    1.2079715729e+02    2.4948902130e+01
    1.2089642334e+02    2.5007999420e+01
    1.2099806976e+02    2.5068199158e+01
    1.2109584808e+02    2.5125900269e+01
    1.2119602966e+02    2.5184900284e+01
    1.2129643250e+02    2.5243501663e+01
    1.2139623260e+02    2.5301599503e+01
    1.2149800110e+02    2.5360498428e+01
    1.2159812927e+02    2.5418001175e+01
    1.2169751740e+02    2.5475000381e+01
    1.2179673004e+02    2.5531299591e+01
    1.2189659119e+02    2.5587800980e+01
    1.2199864197e+02    2.5645200729e+01
    1.2209774017e+02    2.5700599670e+01
    1.2219712830e+02    2.5755899429e+01
    1.2229606628e+02    2.5810701370e+01
    1.2239723206e+02    2.5866498947e+01
    1.2249627686e+02    2.5920900345e+01
    1.2259824371e+02    2.5976699829e+01
    1.2269721985e+02    2.6030500412e+01
    1.2279615021e+02    2.6084197998e+01
    1.2289792633e+02    2.6139200211e+01
    1.2299790192e+02    2.6192901611e+01
    1.2309812164e+02    2.6246700287e+01
    1.2319837952e+02    2.6300300598e+01
    1.2329740143e+02    2.6353200912e+01
    1.2339640045e+02    2.6406002045e+01
    1.2349739838e+02    2.6459802628e+01
    1.2359644318e+02    2.6512298584e+01
    1.2369834900e+02    2.6566398621e+01
    1.2379734039e+02    2.6618700027e+01
    1.2389633942e+02    2.6671100616e+01
    1.2399862671e+02    2.6725000381e+01
    1.2409597778e+02    2.6776298523e+01
    1.2419818115e+02    2.6829999924e+01
    1.2429708862e+02    2.6881900787e+01
    1.2439604187e+02    2.6933698654e+01
    1.2449810028e+02    2.6987102509e+01
    1.2459866333e+02    2.7039501190e+01
    1.2469802094e+02    2.7090999603e+01
    1.2479712677e+02    2.7142200470e+01
    1.2489721680e+02    2.7193702698e+01
    1.2499693298e+02    2.7244697571e+01
    1.2509674072e+02    2.7295600891e+01
    1.2519627380e+02    2.7345996857e+01
    1.2529804230e+02    2.7397201538e+01
    1.2539710236e+02    2.7446701050e+01
    1.2549848175e+02    2.7497001648e+01
    1.2559779358e+02    2.7545997620e+01
    1.2569674683e+02    2.7594497681e+01
    1.2579627228e+02    2.7642803192e+01
    1.2589810181e+02    2.7692001343e+01
    1.2599584198e+02    2.7738800049e+01
    1.2609777069e+02    2.7787200928e+01
    1.2619818878e+02    2.7834499359e+01
    1.2629826355e+02    2.7881099701e+01
    1.2639833069e+02    2.7927497864e+01
    1.2649697113e+02    2.7972900391e+01
    1.2659825134e+02    2.8019001007e+01
    1.2669740295e+02    2.8063800812e+01
    1.2679657745e+02    2.8108196259e+01
    1.2689576721e+02    2.8152400970e+01
    1.2699786377e+02    2.8197399139e+01
    1.2709593201e+02    2.8240398407e+01
    1.2719586945e+02    2.8283699036e+01
    1.2729583740e+02    2.8326801300e+01
    1.2739585114e+02    2.8369602203e+01
    1.2749623108e+02    2.8412300110e+01
    1.2759603119e+02    2.8454498291e+01
    1.2769841766e+02    2.8497398376e+01
    1.2779785156e+02    2.8538997650e+01
    1.2789723206e+02    2.8580299377e+01
    1.2799653625e+02    2.8621299744e+01
    1.2809631348e+02    2.8662403107e+01
    1.2819665527e+02    2.8703502655e+01
    1.2829588318e+02    2.8743999481e+01
    1.2839804077e+02    2.8785503387e+01
    1.2849728394e+02    2.8825698853e+01
    1.2859649658e+02    2.8865798950e+01
    1.2869854736e+02    2.8906902313e+01
    1.2879736328e+02    2.8946598053e+01
    1.2889633179e+02    2.8986297607e+01
    1.2899836731e+02    2.9027202606e+01
    1.2909622192e+02    2.9066299438e+01
    1.2919592285e+02    2.9106197357e+01
    1.2929858398e+02    2.9147003174e+01
    1.2939643860e+02    2.9185901642e+01
    1.2949858093e+02    2.9226398468e+01
    1.2959843445e+02    2.9266002655e+01
    1.2969607544e+02    2.9304595947e+01
    1.2979850769e+02    2.9345001221e+01
    1.2989788818e+02    2.9384098053e+01
    1.2999841309e+02    2.9423496246e+01
    1.3009725952e+02    2.9486999512e+01
    1.3019726562e+02    2.9551502228e+01
    1.3029771423e+02    2.9615997314e+01
    1.3039640808e+02    2.9679298401e+01
    1.3049732971e+02    2.9743602753e+01
    1.3059719849e+02    2.9807098389e+01
    1.3069697571e+02    2.9870201111e+01
    1.3079690552e+02    2.9933002472e+01
    1.3089837646e+02    2.9996597290e+01
    1.3099623108e+02    3.0057598114e+01
    1.3109761047e+02    3.0120502472e+01
    1.3119572449e+02    3.0180797577e+01
    1.3129827881e+02    3.0243602753e+01
    1.3139822388e+02    3.0304302216e+01
    1.3149719238e+02    3.0364101410e+01
    1.3159745789e+02    3.0424198151e+01
    1.3169688416e+02    3.0483299255e+01
    1.3179627991e+02    3.0541900635e+01
    1.3189637756e+02    3.0600601196e+01
    1.3199879456e+02    3.0660099030e+01
    1.3209808350e+02    3.0717601776e+01
    1.3219775391e+02    3.0774700165e+01
    1.3229690552e+02    3.0831302643e+01
    1.3239843750e+02    3.0888896942e+01
    1.3249768066e+02    3.0944801331e+01
    1.3259692383e+02    3.1000495911e+01
    1.3269609070e+02    3.1055702209e+01
    1.3279812622e+02    3.1112297058e+01
    1.3289715576e+02    3.1166900635e+01
    1.3299708557e+02    3.1221797943e+01
    1.3309721375e+02    3.1276401520e+01
    1.3319749451e+02    3.1331100464e+01
    1.3329670715e+02    3.1384902954e+01
    1.3339878845e+02    3.1440097809e+01
    1.3349740601e+02    3.1493301392e+01
    1.3359660339e+02    3.1546600342e+01
    1.3369868469e+02    3.1601402283e+01
    1.3379783630e+02    3.1654499054e+01
    1.3389700317e+02    3.1707401276e+01
    1.3399871826e+02    3.1761604309e+01
    1.3409791565e+02    3.1814300537e+01
    1.3419795227e+02    3.1867298126e+01
    1.3429705811e+02    3.1919605255e+01
    1.3439614868e+02    3.1971801758e+01
    1.3449836731e+02    3.2025402069e+01
    1.3459866333e+02    3.2077800751e+01
    1.3469790649e+02    3.2129402161e+01
    1.3479722595e+02    3.2180797577e+01
    1.3489712524e+02    3.2232097626e+01
    1.3499661255e+02    3.2282897949e+01
    1.3509623718e+02    3.2333496094e+01
    1.3519889832e+02    3.2385097504e+01
    1.3529789734e+02    3.2434696198e+01
    1.3539724731e+02    3.2483898163e+01
    1.3549644470e+02    3.2532703400e+01
    1.3559886169e+02    3.2582603455e+01
    1.3569735718e+02    3.2630199432e+01
    1.3579658508e+02    3.2677703857e+01
    1.3589863586e+02    3.2726200104e+01
    1.3599894714e+02    3.2773303986e+01
    1.3609800720e+02    3.2819301605e+01
    1.3619635010e+02    3.2864700317e+01
    1.3629757690e+02    3.2910701752e+01
    1.3639764404e+02    3.2955898285e+01
    1.3649685669e+02    3.3000202179e+01
    1.3659835815e+02    3.3045097351e+01
    1.3669772339e+02    3.3088500977e+01
    1.3679710388e+02    3.3131500244e+01
    1.3689649963e+02    3.3174102783e+01
    1.3699801636e+02    3.3217197418e+01
    1.3709744263e+02    3.3258899689e+01
    1.3719804382e+02    3.3300697327e+01
    1.3729844666e+02    3.3342002869e+01
    1.3739845276e+02    3.3382801056e+01
    1.3749873352e+02    3.3423297882e+01
    1.3759858704e+02    3.3463401794e+01
    1.3769830322e+02    3.3502998352e+01
    1.3779800415e+02    3.3542301178e+01
    1.3789762878e+02    3.3581298828e+01
    1.3799719238e+02    3.3620098114e+01
    1.3809832764e+02    3.3659198761e+01
    1.3819886780e+02    3.3697799683e+01
    1.3829821777e+02    3.3735702515e+01
    1.3839749146e+02    3.3773399353e+01
    1.3849670410e+02    3.3810901642e+01
    1.3859907532e+02    3.3849399567e+01
    1.3869848633e+02    3.3886600494e+01
    1.3879812622e+02    3.3923797607e+01
    1.3889735413e+02    3.3960700989e+01
    1.3899655151e+02    3.3997497559e+01
    1.3909751892e+02    3.4034801483e+01
    1.3919696045e+02    3.4071502686e+01
    1.3929641724e+02    3.4108100891e+01
    1.3939691162e+02    3.4145004272e+01
    1.3949929810e+02    3.4182399750e+01
    1.3959913635e+02    3.4218696594e+01
    1.3969635010e+02    3.4253997803e+01
    1.3979904175e+02    3.4291000366e+01
    1.3989779663e+02    3.4326499939e+01
    1.3999772644e+02    3.4362304688e+01
    1.4009678650e+02    3.4421501160e+01
    1.4019720459e+02    3.4482097626e+01
    1.4029762268e+02    3.4542301178e+01
    1.4039637756e+02    3.4601100922e+01
    1.4049839783e+02    3.4661594391e+01
    1.4059843445e+02    3.4720600128e+01
    1.4069837952e+02    3.4779102325e+01
    1.4079846191e+02    3.4837303162e+01
    1.4089915466e+02    3.4895404816e+01
    1.4099670410e+02    3.4951396942e+01
    1.4109852600e+02    3.5009197235e+01
    1.4119778442e+02    3.5065200806e+01
    1.4129908752e+02    3.5121799469e+01
    1.4139923096e+02    3.5177299500e+01
    1.4149645996e+02    3.5230602264e+01
    1.4159671021e+02    3.5285099030e+01
    1.4169926453e+02    3.5340202332e+01
    1.4179884338e+02    3.5393104553e+01
    1.4189903259e+02    3.5445804596e+01
    1.4199874878e+02    3.5497802734e+01
    1.4209823608e+02    3.5549098969e+01
    1.4219827271e+02    3.5600299835e+01
    1.4229757690e+02    3.5650600433e+01
    1.4239945984e+02    3.5701801300e+01
    1.4249888611e+02    3.5751300812e+01
    1.4259843445e+02    3.5800601959e+01
    1.4269778442e+02    3.5849300385e+01
    1.4279704285e+02    3.5897598267e+01
    1.4289918518e+02    3.5946899414e+01
    1.4299882507e+02    3.5994796753e+01
    1.4309904480e+02    3.6042499542e+01
    1.4319660950e+02    3.6088699341e+01
    1.4329893494e+02    3.6136997223e+01
    1.4339813232e+02    3.6183696747e+01
    1.4349688721e+02    3.6229896545e+01
    1.4359902954e+02    3.6277397156e+01
    1.4369813538e+02    3.6323497772e+01
    1.4379718018e+02    3.6369201660e+01
    1.4389906311e+02    3.6416198730e+01
    1.4399838257e+02    3.6461803436e+01
    1.4409762573e+02    3.6507102966e+01
    1.4419741821e+02    3.6552501678e+01
    1.4429930115e+02    3.6598697662e+01
    1.4439808655e+02    3.6643295288e+01
    1.4449690247e+02    3.6687602997e+01
    1.4459724426e+02    3.6732398987e+01
    1.4469912720e+02    3.6777595520e+01
    1.4479847717e+02    3.6821403503e+01
    1.4489784241e+02    3.6864799500e+01
    1.4499708557e+02    3.6907897949e+01
    1.4509939575e+02    3.6951702118e+01
    1.4519889832e+02    3.6993999481e+01
    1.4529689026e+02    3.7035301208e+01
    1.4539659119e+02    3.7076801300e+01
    1.4549940491e+02    3.7119098663e+01
    1.4559890747e+02    3.7159603119e+01
    1.4569757080e+02    3.7199302673e+01
    1.4579705811e+02    3.7238800049e+01
    1.4589936829e+02    3.7278903961e+01
    1.4599685669e+02    3.7316600800e+01
    1.4609925842e+02    3.7355804443e+01
    1.4619770813e+02    3.7392799377e+01
    1.4629891968e+02    3.7430500031e+01
    1.4639865112e+02    3.7466999054e+01
    1.4649757385e+02    3.7502601624e+01
    1.4659890747e+02    3.7538700104e+01
    1.4669848633e+02    3.7573501587e+01
    1.4679806519e+02    3.7607902527e+01
    1.4689761353e+02    3.7641796112e+01
    1.4699760437e+02    3.7675300598e+01
    1.4709765625e+02    3.7708404541e+01
    1.4719848633e+02    3.7741199493e+01
    1.4729911804e+02    3.7773399353e+01
    1.4739939880e+02    3.7805198669e+01
    1.4749960327e+02    3.7836399078e+01
    1.4759954834e+02    3.7867202759e+01
    1.4769949341e+02    3.7897499084e+01
    1.4779939270e+02    3.7927604675e+01
    1.4789927673e+02    3.7957199097e+01
    1.4799908447e+02    3.7986499786e+01
    1.4809819031e+02    3.8015300751e+01
    1.4819799805e+02    3.8043998718e+01
    1.4829713440e+02    3.8072299957e+01
    1.4839907837e+02    3.8101001740e+01
    1.4849815369e+02    3.8128696442e+01
    1.4859788513e+02    3.8156402588e+01
    1.4869757080e+02    3.8184200287e+01
    1.4879777527e+02    3.8211402893e+01
    1.4889901733e+02    3.8238803864e+01
    1.4899789429e+02    3.8265899658e+01
    1.4909721375e+02    3.8292201996e+01
    1.4919915771e+02    3.8319999695e+01
    1.4929820251e+02    3.8346401215e+01
    1.4939784241e+02    3.8372695923e+01
    1.4949815369e+02    3.8398696899e+01
    1.4959732056e+02    3.8425498962e+01
    1.4969946289e+02    3.8452098846e+01
    1.4979916382e+02    3.8477600098e+01
    1.4989727783e+02    3.8502597809e+01
    1.4999972534e+02    3.8529106140e+01
    1.5009852600e+02    3.8577499390e+01
    1.5019892883e+02    3.8625900269e+01
    1.5029927063e+02    3.8674995422e+01
    1.5039811707e+02    3.8722305298e+01
    1.5049774170e+02    3.8769897461e+01
    1.5059834290e+02    3.8817405701e+01
    1.5069851685e+02    3.8864196777e+01
    1.5079872131e+02    3.8910499573e+01
    1.5089892578e+02    3.8957199097e+01
    1.5099935913e+02    3.9002098083e+01
    1.5109774780e+02    3.9046897888e+01
    1.5119700623e+02    3.9090805054e+01
    1.5129869080e+02    3.9134895325e+01
    1.5139784241e+02    3.9177803040e+01
    1.5149847412e+02    3.9220497131e+01
    1.5159919739e+02    3.9263496399e+01
    1.5169900513e+02    3.9304405212e+01
    1.5179873657e+02    3.9344802856e+01
    1.5189889526e+02    3.9384803772e+01
    1.5199873352e+02    3.9424896240e+01
    1.5209834290e+02    3.9463699341e+01
    1.5219880676e+02    3.9501594543e+01
    1.5229789734e+02    3.9539299011e+01
    1.5239924622e+02    3.9577598572e+01
    1.5249899292e+02    3.9614303589e+01
    1.5259887695e+02    3.9651397705e+01
    1.5269833374e+02    3.9686698914e+01
    1.5279774475e+02    3.9722801208e+01
    1.5290005493e+02    3.9759201050e+01
    1.5299955750e+02    3.9793304443e+01
    1.5309942627e+02    3.9828498840e+01
    1.5320007324e+02    3.9862899780e+01
    1.5329968262e+02    3.9897094727e+01
    1.5339871216e+02    3.9930000305e+01
    1.5349993896e+02    3.9964797974e+01
    1.5359887695e+02    3.9997505188e+01
    1.5369766235e+02    4.0031402588e+01
    1.5379922485e+02    4.0064903259e+01
    1.5389782715e+02    4.0096694946e+01
    1.5399966431e+02    4.0130500793e+01
    1.5409881592e+02    4.0162994385e+01
    1.5419761658e+02    4.0194900513e+01
    1.5429908752e+02    4.0227706909e+01
    1.5439747620e+02    4.0260002136e+01
    1.5449896240e+02    4.0291404724e+01
    1.5459909058e+02    4.0323997498e+01
    1.5469764709e+02    4.0354293823e+01
    1.5479989624e+02    4.0386398315e+01
    1.5489924622e+02    4.0416503906e+01
    1.5499812317e+02    4.0447097778e+01
    1.5510008240e+02    4.0477600098e+01
    1.5519926453e+02    4.0506797791e+01
    1.5529891968e+02    4.0535797119e+01
    1.5539839172e+02    4.0563598633e+01
    1.5549804688e+02    4.0591598511e+01
    1.5559742737e+02    4.0619598389e+01
    1.5569804382e+02    4.0646797180e+01
    1.5579777527e+02    4.0673194885e+01
    1.5589738464e+02    4.0699302673e+01
    1.5599783325e+02    4.0725296021e+01
    1.5609727478e+02    4.0749702454e+01
    1.5619941711e+02    4.0775299072e+01
    1.5629753113e+02    4.0798103333e+01
    1.5639733887e+02    4.0822105408e+01
    1.5649914551e+02    4.0844696045e+01
    1.5659881592e+02    4.0866905212e+01
    1.5669854736e+02    4.0889396667e+01
    1.5679826355e+02    4.0910301208e+01
    1.5689796448e+02    4.0930801392e+01
    1.5699757385e+02    4.0950904846e+01
    1.5709776306e+02    4.0970397949e+01
    1.5719868469e+02    4.0989898682e+01
    1.5729939270e+02    4.1008300781e+01
    1.5739967346e+02    4.1026100159e+01
    1.5749963379e+02    4.1043998718e+01
    1.5759965515e+02    4.1061401367e+01
    1.5769961548e+02    4.1078399658e+01
    1.5779951477e+02    4.1094200134e+01
    1.5789947510e+02    4.1110397339e+01
    1.5799940491e+02    4.1125396729e+01
    1.5809764099e+02    4.1140403748e+01
    1.5820002747e+02    4.1155700684e+01
    1.5829898071e+02    4.1170700073e+01
    1.5839779663e+02    4.1184600830e+01
    1.5850007629e+02    4.1199401855e+01
    1.5860003662e+02    4.1212600708e+01
    1.5869755554e+02    4.1226501465e+01
    1.5880044556e+02    4.1240402222e+01
    1.5889900208e+02    4.1252899170e+01
    1.5900042725e+02    4.1266403198e+01
    1.5909895325e+02    4.1279701233e+01
    1.5920042419e+02    4.1292900085e+01
    1.5929898071e+02    4.1305793762e+01
    1.5939840698e+02    4.1317802429e+01
    1.5949778748e+02    4.1329795837e+01
    1.5959934998e+02    4.1343200684e+01
    1.5969805908e+02    4.1355194092e+01
    1.5979974365e+02    4.1366996765e+01
    1.5989863586e+02    4.1378295898e+01
    1.6000053406e+02    4.1390296936e+01
    1.6009906006e+02    4.1423896790e+01
    1.6019934082e+02    4.1456596375e+01
    1.6029916382e+02    4.1488899231e+01
    1.6039791870e+02    4.1521095276e+01
    1.6049786377e+02    4.1552497864e+01
    1.6059939575e+02    4.1585098267e+01
    1.6069981384e+02    4.1615501404e+01
    1.6080000305e+02    4.1646995544e+01
    1.6090029907e+02    4.1676795959e+01
    1.6099771118e+02    4.1705001831e+01
    1.6109846497e+02    4.1734695435e+01
    1.6120046997e+02    4.1763305664e+01
    1.6129890442e+02    4.1790893555e+01
    1.6139944458e+02    4.1818405151e+01
    1.6149827576e+02    4.1845001221e+01
    1.6159930420e+02    4.1871299744e+01
    1.6169924927e+02    4.1897209167e+01
    1.6179910278e+02    4.1921806335e+01
    1.6189918518e+02    4.1946296692e+01
    1.6199902344e+02    4.1969696045e+01
    1.6209866333e+02    4.1992996216e+01
    1.6219996643e+02    4.2016197205e+01
    1.6229890442e+02    4.2038093567e+01
    1.6239979553e+02    4.2060302734e+01
    1.6249963379e+02    4.2081398010e+01
    1.6259974670e+02    4.2102409363e+01
    1.6269804382e+02    4.2123001099e+01
    1.6279859924e+02    4.2143295288e+01
    1.6289808655e+02    4.2162605286e+01
    1.6300056458e+02    4.2182991028e+01
    1.6310054016e+02    4.2201591492e+01
    1.6320062256e+02    4.2220802307e+01
    1.6330038452e+02    4.2239402771e+01
    1.6340011597e+02    4.2257896423e+01
    1.6349794006e+02    4.2276397705e+01
    1.6359959412e+02    4.2294395447e+01
    1.6369812012e+02    4.2312995911e+01
    1.6379937744e+02    4.2330505371e+01
    1.6390052795e+02    4.2349105835e+01
    1.6399870300e+02    4.2366104126e+01
    1.6409967041e+02    4.2383796692e+01
    1.6420057678e+02    4.2401496887e+01
    1.6430026245e+02    4.2418701172e+01
    1.6439811707e+02    4.2434791565e+01
    1.6449902344e+02    4.2451995850e+01
    1.6459872437e+02    4.2468597412e+01
    1.6469958496e+02    4.2485404968e+01
    1.6479811096e+02    4.2501098633e+01
    1.6489971924e+02    4.2517700195e+01
    1.6499804688e+02    4.2532203674e+01
    1.6509944153e+02    4.2547500610e+01
    1.6519812012e+02    4.2562500000e+01
    1.6529949951e+02    4.2576995850e+01
    1.6539848328e+02    4.2590499878e+01
    1.6550077820e+02    4.2604095459e+01
    1.6559991455e+02    4.2617401123e+01
    1.6570046997e+02    4.2630004883e+01
    1.6580044556e+02    4.2641502380e+01
    1.6590026855e+02    4.2653892517e+01
    1.6599803162e+02    4.2664405823e+01
    1.6610078430e+02    4.2675109863e+01
    1.6619909668e+02    4.2685302734e+01
    1.6629939270e+02    4.2694503784e+01
    1.6639916992e+02    4.2703407288e+01
    1.6649894714e+02    4.2712799072e+01
    1.6659872437e+02    4.2720596313e+01
    1.6669909668e+02    4.2727600098e+01
    1.6679891968e+02    4.2735191345e+01
    1.6689869690e+02    4.2741394043e+01
    1.6699838257e+02    4.2747390747e+01
    1.6709837341e+02    4.2752090454e+01
    1.6719935608e+02    4.2757095337e+01
    1.6730012512e+02    4.2762001038e+01
    1.6740025330e+02    4.2765998840e+01
    1.6750022888e+02    4.2768898010e+01
    1.6760023499e+02    4.2772300720e+01
    1.6770022583e+02    4.2775291443e+01
    1.6780007935e+02    4.2777206421e+01
    1.6789996338e+02    4.2779006958e+01
    1.6799894714e+02    4.2780998230e+01
    1.6809992981e+02    4.2782005310e+01
    1.6819903564e+02    4.2783004761e+01
    1.6830087280e+02    4.2782997131e+01
    1.6839961243e+02    4.2783996582e+01
    1.6849880981e+02    4.2785003662e+01
    1.6859889221e+02    4.2784996033e+01
    1.6869902039e+02    4.2785003662e+01
    1.6879899597e+02    4.2784004211e+01
    1.6890019226e+02    4.2783996582e+01
    1.6899842834e+02    4.2782997131e+01
    1.6909951782e+02    4.2783996582e+01
    1.6920059204e+02    4.2783004761e+01
    1.6929873657e+02    4.2782005310e+01
    1.6939808655e+02    4.2780998230e+01
    1.6950070190e+02    4.2780998230e+01
    1.6959881592e+02    4.2779998779e+01
    1.6969984436e+02    4.2779006958e+01
    1.6980093384e+02    4.2778007507e+01
    1.6989918518e+02    4.2777008057e+01
    1.7000041199e+02    4.2776000977e+01
    1.7010070801e+02    4.2795005798e+01
    1.7020014954e+02    4.2813003540e+01
    1.7029913330e+02    4.2832000732e+01
    1.7040078735e+02    4.2849990845e+01
    1.7050038147e+02    4.2866996765e+01
    1.7059931946e+02    4.2884002686e+01
    1.7070062256e+02    4.2901992798e+01
    1.7080021667e+02    4.2918006897e+01
    1.7089996338e+02    4.2935005188e+01
    1.7100004578e+02    4.2949996948e+01
    1.7110087585e+02    4.2964996338e+01
    1.7119897461e+02    4.2979995728e+01
    1.7130047607e+02    4.2994010925e+01
    1.7139909363e+02    4.3008995056e+01
    1.7149905396e+02    4.3021995544e+01
    1.7160076904e+02    4.3035003662e+01
    1.7169842529e+02    4.3046997070e+01
    1.7179838562e+02    4.3058998108e+01
    1.7190122986e+02    4.3069992065e+01
    1.7200105286e+02    4.3081008911e+01
    1.7210066223e+02    4.3090995789e+01
    1.7219992065e+02    4.3101005554e+01
    1.7229861450e+02    4.3110992432e+01
    1.7239880371e+02    4.3120010376e+01
    1.7249850464e+02    4.3127998352e+01
    1.7259887695e+02    4.3137001038e+01
    1.7269966125e+02    4.3144989014e+01
    1.7280107117e+02    4.3152999878e+01
    1.7290054321e+02    4.3161003113e+01
    1.7300007629e+02    4.3167991638e+01
    1.7310081482e+02    4.3176002502e+01
    1.7320054626e+02    4.3182006836e+01
    1.7330026245e+02    4.3187995911e+01
    1.7340069580e+02    4.3194999695e+01
    1.7349873352e+02    4.3201004028e+01
    1.7360037231e+02    4.3208007812e+01
    1.7369882202e+02    4.3214004517e+01
    1.7379991150e+02    4.3219993591e+01
    1.7390081787e+02    4.3225997925e+01
    1.7399867249e+02    4.3230995178e+01
    1.7409928894e+02    4.3237007141e+01
    1.7419975281e+02    4.3242996216e+01
    1.7430009460e+02    4.3248001099e+01
    1.7439906311e+02    4.3253005981e+01
    1.7449938965e+02    4.3259002686e+01
    1.7459956360e+02    4.3263992310e+01
    1.7469976807e+02    4.3269004822e+01
    1.7480075073e+02    4.3274002075e+01
    1.7490130615e+02    4.3278007507e+01
    1.7499894714e+02    4.3282005310e+01
    1.7509963989e+02    4.3286003113e+01
    1.7520054626e+02    4.3288993835e+01
    1.7530018616e+02    4.3291999817e+01
    1.7539854431e+02    4.3294998169e+01
    1.7550016785e+02    4.3298004150e+01
    1.7560113525e+02    4.3300010681e+01
    1.7569869995e+02    4.3302009583e+01
    1.7579899597e+02    4.3303001404e+01
    1.7589888000e+02    4.3305000305e+01
    1.7600088501e+02    4.3305000305e+01
    1.7610087585e+02    4.3304992676e+01
    1.7620086670e+02    4.3305007935e+01
    1.7629940796e+02    4.3304992676e+01
    1.7639942932e+02    4.3304008484e+01
    1.7649940491e+02    4.3303001404e+01
    1.7659934998e+02    4.3300994873e+01
    1.7669929504e+02    4.3297996521e+01
    1.7679924011e+02    4.3294998169e+01
    1.7689910889e+02    4.3292007446e+01
    1.7699890137e+02    4.3287994385e+01
    1.7709878540e+02    4.3284004211e+01
    1.7719978333e+02    4.3280006409e+01
    1.7729963684e+02    4.3274993896e+01
    1.7739955139e+02    4.3270004272e+01
    1.7749954224e+02    4.3263999939e+01
    1.7759953308e+02    4.3258995056e+01
    1.7769949341e+02    4.3251991272e+01
    1.7779942322e+02    4.3246002197e+01
    1.7789976501e+02    4.3239006042e+01
    1.7799899292e+02    4.3232002258e+01
    1.7810101318e+02    4.3225006104e+01
    1.7820033264e+02    4.3217002869e+01
    1.7829945374e+02    4.3209999084e+01
    1.7840133667e+02    4.3201995850e+01
    1.7850086975e+02    4.3194000244e+01
    1.7860093689e+02    4.3185997009e+01
    1.7869949341e+02    4.3177993774e+01
    1.7879885864e+02    4.3169998169e+01
    1.7890013123e+02    4.3162002563e+01
    1.7900125122e+02    4.3154006958e+01
    1.7909939575e+02    4.3145996094e+01
    1.7920033264e+02    4.3138000488e+01
    1.7930116272e+02    4.3130004883e+01
    1.7940115356e+02    4.3121994019e+01
    1.7950016785e+02    4.3113006592e+01
    1.7960073853e+02    4.3106002808e+01
    1.7970123291e+02    4.3097000122e+01
    1.7980169678e+02    4.3089004517e+01
    1.7989927673e+02    4.3081008911e+01
    1.7999972534e+02    4.3072006226e+01
    1.8009909058e+02    4.3080993652e+01
    1.8020074463e+02    4.3090011597e+01
    1.8029931641e+02    4.3098007202e+01
    1.8040045166e+02    4.3106994629e+01
    1.8049902344e+02    4.3115005493e+01
    1.8060032654e+02    4.3123001099e+01
    1.8070155334e+02    4.3131011963e+01
    1.8080059814e+02    4.3138000488e+01
    1.8089994812e+02    4.3145004272e+01
    1.8099926758e+02    4.3151000977e+01
    1.8109954834e+02    4.3158004761e+01
    1.8119993591e+02    4.3164001465e+01
    1.8130146790e+02    4.3169998169e+01
    1.8139889526e+02    4.3173995972e+01
    1.8149876404e+02    4.3179000854e+01
    1.8160101318e+02    4.3184005737e+01
    1.8169926453e+02    4.3188003540e+01
    1.8179940796e+02    4.3191009521e+01
    1.8189938354e+02    4.3194992065e+01
    1.8199920654e+02    4.3197006226e+01
    1.8210177612e+02    4.3199005127e+01
    1.8220063782e+02    4.3201995850e+01
    1.8229936218e+02    4.3203002930e+01
    1.8239932251e+02    4.3205001831e+01
    1.8250152588e+02    4.3205993652e+01
    1.8260078430e+02    4.3207992554e+01
    1.8270138550e+02    4.3208999634e+01
    1.8279986572e+02    4.3208999634e+01
    1.8289918518e+02    4.3210006714e+01
    1.8300154114e+02    4.3210006714e+01
    1.8310110474e+02    4.3208999634e+01
    1.8320077515e+02    4.3208999634e+01
    1.8330044556e+02    4.3208999634e+01
    1.8340028381e+02    4.3207992554e+01
    1.8350192261e+02    4.3207992554e+01
    1.8360084534e+02    4.3207000732e+01
    1.8369946289e+02    4.3205993652e+01
    1.8380068970e+02    4.3205001831e+01
    1.8390167236e+02    4.3204010010e+01
    1.8399955750e+02    4.3203994751e+01
    1.8410011292e+02    4.3203002930e+01
    1.8420053101e+02    4.3201004028e+01
    1.8430076599e+02    4.3200012207e+01
    1.8440083313e+02    4.3199005127e+01
    1.8449954224e+02    4.3197998047e+01
    1.8459948730e+02    4.3195999146e+01
    1.8469935608e+02    4.3194000244e+01
    1.8479922485e+02    4.3193008423e+01
    1.8490197754e+02    4.3190994263e+01
    1.8500195312e+02    4.3188995361e+01
    1.8510205078e+02    4.3186004639e+01
    1.8519941711e+02    4.3184997559e+01
    1.8529980469e+02    4.3182006836e+01
    1.8540138245e+02    4.3179000854e+01
    1.8549914551e+02    4.3175994873e+01
    1.8559921265e+02    4.3173004150e+01
    1.8570036316e+02    4.3169006348e+01
    1.8580137634e+02    4.3166000366e+01
    1.8590093994e+02    4.3162002563e+01
    1.8599963379e+02    4.3158004761e+01
    1.8610177612e+02    4.3152999878e+01
    1.8620098877e+02    4.3147994995e+01
    1.8630192566e+02    4.3141998291e+01
    1.8639956665e+02    4.3136993408e+01
    1.8650006104e+02    4.3132003784e+01
    1.8660047913e+02    4.3125991821e+01
    1.8670085144e+02    4.3119003296e+01
    1.8680116272e+02    4.3113006592e+01
    1.8690139771e+02    4.3105987549e+01
    1.8700151062e+02    4.3098007202e+01
    1.8710008240e+02    4.3092010498e+01
    1.8720019531e+02    4.3083999634e+01
    1.8730024719e+02    4.3076004028e+01
    1.8740034485e+02    4.3068008423e+01
    1.8750044250e+02    4.3059997559e+01
    1.8760052490e+02    4.3050003052e+01
    1.8770051575e+02    4.3041992188e+01
    1.8780041504e+02    4.3033004761e+01
    1.8790040588e+02    4.3022994995e+01
    1.8799919128e+02    4.3014007568e+01
    1.8810060120e+02    4.3005004883e+01
    1.8820030212e+02    4.2995010376e+01
    1.8829986572e+02    4.2985992432e+01
    1.8840226746e+02    4.2975997925e+01
    1.8850216675e+02    4.2966003418e+01
    1.8860206604e+02    4.2955993652e+01
    1.8870098877e+02    4.2945999146e+01
    1.8880226135e+02    4.2936004639e+01
    1.8890101624e+02    4.2926010132e+01
    1.8899957275e+02    4.2916000366e+01
    1.8910084534e+02    4.2906005859e+01
    1.8920196533e+02    4.2896011353e+01
    1.8930003357e+02    4.2887008667e+01
    1.8940080261e+02    4.2876998901e+01
    1.8950141907e+02    4.2867004395e+01
    1.8960185242e+02    4.2856994629e+01
    1.8970210266e+02    4.2847000122e+01
    1.8980220032e+02    4.2837997437e+01
    1.8990220642e+02    4.2827011108e+01
    1.9000212097e+02    4.2817993164e+01
    1.9010038757e+02    4.2821990967e+01
    1.9020155334e+02    4.2825988770e+01
    1.9029957581e+02    4.2830993652e+01
    1.9040022278e+02    4.2835006714e+01
    1.9050076294e+02    4.2839004517e+01
    1.9060049438e+02    4.2843002319e+01
    1.9070028687e+02    4.2845001221e+01
    1.9080137634e+02    4.2848999023e+01
    1.9090109253e+02    4.2851989746e+01
    1.9100244141e+02    4.2854003906e+01
    1.9109992981e+02    4.2857009888e+01
    1.9119946289e+02    4.2859008789e+01
    1.9130085754e+02    4.2860992432e+01
    1.9140020752e+02    4.2861999512e+01
    1.9150148010e+02    4.2863998413e+01
    1.9159985352e+02    4.2865005493e+01
    1.9169978333e+02    4.2865997314e+01
    1.9180043030e+02    4.2865997314e+01
    1.9189962769e+02    4.2867004395e+01
    1.9199989319e+02    4.2867004395e+01
    1.9209992981e+02    4.2867004395e+01
    1.9220080566e+02    4.2867004395e+01
    1.9230076599e+02    4.2865997314e+01
    1.9240103149e+02    4.2865997314e+01
    1.9250047302e+02    4.2864990234e+01
    1.9259985352e+02    4.2863998413e+01
    1.9270100403e+02    4.2862991333e+01
    1.9280021667e+02    4.2861999512e+01
    1.9290255737e+02    4.2861007690e+01
    1.9300204468e+02    4.2858993530e+01
    1.9310166931e+02    4.2856994629e+01
    1.9320137024e+02    4.2857009888e+01
    1.9330107117e+02    4.2855010986e+01
    1.9340020752e+02    4.2851989746e+01
    1.9350158691e+02    4.2850997925e+01
    1.9360217285e+02    4.2848999023e+01
    1.9370120239e+02    4.2848007202e+01
    1.9379995728e+02    4.2845001221e+01
    1.9390139771e+02    4.2843994141e+01
    1.9400259399e+02    4.2841003418e+01
    1.9410072327e+02    4.2839004517e+01
    1.9420155334e+02    4.2837005615e+01
    1.9430221558e+02    4.2835006714e+01
    1.9439982605e+02    4.2832992554e+01
[...]
    2.5130459595e+02    4.1457000732e+01
    2.5140367126e+02    4.1451995850e+01
    2.5150541687e+02    4.1446014404e+01
    2.5160406494e+02    4.1441009521e+01
    2.5170579529e+02    4.1434997559e+01
    2.5180497742e+02    4.1428985596e+01
    2.5190461731e+02    4.1423980713e+01
    2.5200338745e+02    4.1419006348e+01
    2.5210530090e+02    4.1414001465e+01
    2.5220417786e+02    4.1409027100e+01
    2.5230569458e+02    4.1403991699e+01
    2.5240473938e+02    4.1398986816e+01
    2.5250381470e+02    4.1394012451e+01
    2.5260583496e+02    4.1388977051e+01
    2.5270489502e+02    4.1385009766e+01
    2.5280392456e+02    4.1380004883e+01
    2.5290574646e+02    4.1375000000e+01
    2.5300456238e+02    4.1371002197e+01
    2.5310610962e+02    4.1365997314e+01
    2.5320460510e+02    4.1361999512e+01
    2.5330584717e+02    4.1358001709e+01
    2.5340403748e+02    4.1352996826e+01
    2.5350495911e+02    4.1347991943e+01
    2.5360574341e+02    4.1344024658e+01
    2.5370349121e+02    4.1338989258e+01
    2.5380397034e+02    4.1334991455e+01
    2.5390432739e+02    4.1331024170e+01
    2.5400456238e+02    4.1325012207e+01
    2.5410557556e+02    4.1320007324e+01
    2.5420396423e+02    4.1316009521e+01
    2.5430386353e+02    4.1309997559e+01
    2.5440368652e+02    4.1305999756e+01
    2.5450627136e+02    4.1299987793e+01
    2.5460595703e+02    4.1295013428e+01
    2.5470561218e+02    4.1289001465e+01
    2.5480526733e+02    4.1282989502e+01
    2.5490603638e+02    4.1277984619e+01
    2.5500520325e+02    4.1272003174e+01
    2.5510429382e+02    4.1265991211e+01
    2.5520428467e+02    4.1260009766e+01
    2.5530436707e+02    4.1253997803e+01
    2.5540454102e+02    4.1248016357e+01
    2.5550346375e+02    4.1242004395e+01
    2.5560598755e+02    4.1235015869e+01
    2.5570472717e+02    4.1229003906e+01
    2.5580427551e+02    4.1221984863e+01
    2.5590379333e+02    4.1216003418e+01
    2.5600619507e+02    4.1210021973e+01
    2.5610562134e+02    4.1203002930e+01
    2.5620501709e+02    4.1197021484e+01
    2.5630447388e+02    4.1191009521e+01
    2.5640393066e+02    4.1183990479e+01
    2.5650631714e+02    4.1178009033e+01
    2.5660577393e+02    4.1171997070e+01
    2.5670516968e+02    4.1165985107e+01
    2.5680453491e+02    4.1158996582e+01
    2.5690383911e+02    4.1154022217e+01
    2.5700604248e+02    4.1148010254e+01
    2.5710537720e+02    4.1141998291e+01
    2.5720410156e+02    4.1135986328e+01
    2.5730538940e+02    4.1130004883e+01
    2.5740405273e+02    4.1125000000e+01
    2.5750570679e+02    4.1118988037e+01
    2.5760452271e+02    4.1113983154e+01
    2.5770632935e+02    4.1109008789e+01
    2.5780361938e+02    4.1101989746e+01
    2.5790444946e+02    4.1096984863e+01
    2.5800573730e+02    4.1091979980e+01
    2.5810363770e+02    4.1085998535e+01
    2.5820565796e+02    4.1080993652e+01
    2.5830474854e+02    4.1074981689e+01
    2.5840374756e+02    4.1070007324e+01
    2.5850555420e+02    4.1063995361e+01
    2.5860437012e+02    4.1058990479e+01
    2.5870602417e+02    4.1052001953e+01
    2.5880465698e+02    4.1045989990e+01
    2.5890612793e+02    4.1040985107e+01
    2.5900457764e+02    4.1035003662e+01
    2.5910574341e+02    4.1028015137e+01
    2.5920382690e+02    4.1022003174e+01
    2.5930459595e+02    4.1014984131e+01
    2.5940518188e+02    4.1009002686e+01
    2.5950555420e+02    4.1003021240e+01
    2.5960574341e+02    4.0996002197e+01
    2.5970581055e+02    4.0989013672e+01
    2.5980572510e+02    4.0982025146e+01
    2.5990554810e+02    4.0975006104e+01
    2.6000524902e+02    4.0968994141e+01
    2.6010552979e+02    4.0963012695e+01
    2.6020477295e+02    4.0955993652e+01
    2.6030453491e+02    4.0949005127e+01
    2.6040423584e+02    4.0942993164e+01
    2.6050384521e+02    4.0935974121e+01
    2.6060467529e+02    4.0929016113e+01
    2.6070376587e+02    4.0923004150e+01
    2.6080603027e+02    4.0915985107e+01
    2.6090512085e+02    4.0908996582e+01
    2.6100628662e+02    4.0902008057e+01
    2.6110632324e+02    4.0895996094e+01
    2.6120635986e+02    4.0888977051e+01
    2.6130630493e+02    4.0882995605e+01
    2.6140621948e+02    4.0876007080e+01
    2.6150613403e+02    4.0868988037e+01
    2.6160607910e+02    4.0864013672e+01
    2.6170596313e+02    4.0858001709e+01
    2.6180587769e+02    4.0851013184e+01
    2.6190573120e+02    4.0846008301e+01
    2.6200393677e+02    4.0841003418e+01
    2.6210537720e+02    4.0835021973e+01
    2.6220388794e+02    4.0830017090e+01
    2.6230584717e+02    4.0825012207e+01
    2.6240612793e+02    4.0820007324e+01
    2.6250573730e+02    4.0815002441e+01
    2.6260507202e+02    4.0811981201e+01
    2.6270428467e+02    4.0805999756e+01
    2.6280648804e+02    4.0802001953e+01
    2.6290579224e+02    4.0798980713e+01
    2.6300506592e+02    4.0794006348e+01
    2.6310430908e+02    4.0790008545e+01
    2.6320642090e+02    4.0784973145e+01
    2.6330551147e+02    4.0781005859e+01
    2.6340457153e+02    4.0776000977e+01
    2.6350643921e+02    4.0772003174e+01
    2.6360531616e+02    4.0767028809e+01
    2.6370407104e+02    4.0761993408e+01
    2.6380563354e+02    4.0756988525e+01
    2.6390417480e+02    4.0752014160e+01
    2.6400555420e+02    4.0746002197e+01
    2.6410681152e+02    4.0740020752e+01
    2.6420578003e+02    4.0734985352e+01
    2.6430679321e+02    4.0728027344e+01
    2.6440481567e+02    4.0722015381e+01
    2.6450561523e+02    4.0717010498e+01
    2.6460632324e+02    4.0710998535e+01
    2.6470687866e+02    4.0704010010e+01
    2.6480450439e+02    4.0697998047e+01
    2.6490499878e+02    4.0691009521e+01
    2.6500469971e+02    4.0683990479e+01
    2.6510684204e+02    4.0677001953e+01
    2.6520410156e+02    4.0669982910e+01
    2.6530435181e+02    4.0664001465e+01
    2.6540435791e+02    4.0656005859e+01
    2.6550506592e+02    4.0648986816e+01
    2.6560601807e+02    4.0643005371e+01
    2.6570590210e+02    4.0635986328e+01
    2.6580636597e+02    4.0629028320e+01
    2.6590658569e+02    4.0621002197e+01
    2.6600436401e+02    4.0615997314e+01
    2.6610504150e+02    4.0608001709e+01
    2.6620568848e+02    4.0601989746e+01
    2.6630630493e+02    4.0596008301e+01
    2.6640695190e+02    4.0588989258e+01
    2.6650457764e+02    4.0583007812e+01
    2.6660464478e+02    4.0577026367e+01
    2.6670520020e+02    4.0570983887e+01
    2.6680572510e+02    4.0565002441e+01
    2.6690625000e+02    4.0559997559e+01
    2.6700677490e+02    4.0553985596e+01
    2.6710437012e+02    4.0549011230e+01
    2.6720498657e+02    4.0543975830e+01
    2.6730422974e+02    4.0539001465e+01
    2.6740451050e+02    4.0534973145e+01
    2.6750646973e+02    4.0529998779e+01
    2.6760678101e+02    4.0525024414e+01
    2.6770437622e+02    4.0520996094e+01
    2.6780633545e+02    4.0515991211e+01
    2.6790496826e+02    4.0511993408e+01
    2.6800674438e+02    4.0506988525e+01
    2.6810458374e+02    4.0503997803e+01
    2.6820516968e+02    4.0498992920e+01
    2.6830477905e+02    4.0493988037e+01
    2.6840444946e+02    4.0490997314e+01
    2.6850701904e+02    4.0485992432e+01
    2.6860668945e+02    4.0480987549e+01
    2.6870629883e+02    4.0476989746e+01
    2.6880685425e+02    4.0472015381e+01
    2.6890515137e+02    4.0467010498e+01
    2.6900457764e+02    4.0460998535e+01
    2.6910681152e+02    4.0455993652e+01
    2.6920593262e+02    4.0451019287e+01
    2.6930487061e+02    4.0445983887e+01
    2.6940646362e+02    4.0440002441e+01
    2.6950497437e+02    4.0434997559e+01
    2.6960614014e+02    4.0428985596e+01
    2.6970712280e+02    4.0423004150e+01
    2.6980502319e+02    4.0416015625e+01
    2.6990563965e+02    4.0410003662e+01
    2.7000604248e+02    4.0403991699e+01
    2.7010711670e+02    4.0394989014e+01
    2.7020712280e+02    4.0386993408e+01
    2.7030587769e+02    4.0378997803e+01
    2.7040597534e+02    4.0369995117e+01
    2.7050460815e+02    4.0361999512e+01
    2.7060604858e+02    4.0354003906e+01
    2.7070709229e+02    4.0345001221e+01
    2.7080593872e+02    4.0337005615e+01
    2.7090509033e+02    4.0328979492e+01
    2.7100726318e+02    4.0321014404e+01
    2.7110586548e+02    4.0311981201e+01
    2.7120730591e+02    4.0304992676e+01
    2.7130557251e+02    4.0296997070e+01
    2.7140661621e+02    4.0289001465e+01
    2.7150445557e+02    4.0281982422e+01
    2.7160504150e+02    4.0274993896e+01
    2.7170538330e+02    4.0268005371e+01
    2.7180520630e+02    4.0260986328e+01
    2.7190487671e+02    4.0255004883e+01
    2.7200482178e+02    4.0247985840e+01
    2.7210644531e+02    4.0242004395e+01
    2.7220547485e+02    4.0234985352e+01
    2.7230447388e+02    4.0230010986e+01
    2.7240615845e+02    4.0225006104e+01
    2.7250506592e+02    4.0218994141e+01
    2.7260449219e+02    4.0214019775e+01
    2.7270648193e+02    4.0207977295e+01
    2.7280520630e+02    4.0204010010e+01
    2.7290698242e+02    4.0198974609e+01
    2.7300592041e+02    4.0193023682e+01
    2.7310491943e+02    4.0187988281e+01
    2.7320709229e+02    4.0182983398e+01
    2.7330664062e+02    4.0177001953e+01
    2.7340609741e+02    4.0170989990e+01
    2.7350692749e+02    4.0166015625e+01
    2.7360632324e+02    4.0160003662e+01
    2.7370562744e+02    4.0153991699e+01
    2.7380496216e+02    4.0147003174e+01
    2.7390719604e+02    4.0141021729e+01
    2.7400653076e+02    4.0132995605e+01
    2.7410583496e+02    4.0126983643e+01
    2.7420565796e+02    4.0119018555e+01
    2.7430487061e+02    4.0111999512e+01
    2.7440618896e+02    4.0104980469e+01
    2.7450527954e+02    4.0096984863e+01
    2.7460714722e+02    4.0088989258e+01
    2.7470596313e+02    4.0080993652e+01
    2.7480752563e+02    4.0072998047e+01
    2.7490606689e+02    4.0065002441e+01
    2.7500735474e+02    4.0055999756e+01
    2.7510452271e+02    4.0047027588e+01
    2.7520730591e+02    4.0039978027e+01
    2.7530743408e+02    4.0031005859e+01
    2.7540634155e+02    4.0022003174e+01
    2.7550521851e+02    4.0013000488e+01
    2.7560568237e+02    4.0006011963e+01
    2.7570596313e+02    3.9997009277e+01
    2.7580603027e+02    3.9989013672e+01
    2.7590707397e+02    3.9979980469e+01
    2.7600546265e+02    3.9973022461e+01
    2.7610693359e+02    3.9963989258e+01
    2.7620544434e+02    3.9955993652e+01
    2.7630694580e+02    3.9947998047e+01
    2.7640545654e+02    3.9941009521e+01
    2.7650692749e+02    3.9933990479e+01
    2.7660534668e+02    3.9927001953e+01
    2.7670513916e+02    3.9920013428e+01
    2.7680569458e+02    3.9914001465e+01
    2.7690682983e+02    3.9907012939e+01
    2.7700494385e+02    3.9901000977e+01
    2.7710607910e+02    3.9895996094e+01
    2.7720550537e+02    3.9889984131e+01
    2.7730548096e+02    3.9884002686e+01
    2.7740753174e+02    3.9879028320e+01
    2.7750726318e+02    3.9873992920e+01
    2.7760671997e+02    3.9868011475e+01
    2.7770730591e+02    3.9863983154e+01
    2.7780545044e+02    3.9859008789e+01
    2.7790686035e+02    3.9854003906e+01
    2.7800540161e+02    3.9848999023e+01
    2.7810723877e+02    3.9843994141e+01
    2.7820736694e+02    3.9839996338e+01
    2.7830740356e+02    3.9835021973e+01
    2.7840707397e+02    3.9829986572e+01
    2.7850683594e+02    3.9823974609e+01
    2.7860668945e+02    3.9819000244e+01
    2.7870657349e+02    3.9812988281e+01
    2.7880569458e+02    3.9808013916e+01
    2.7890713501e+02    3.9800994873e+01
    2.7900527954e+02    3.9795013428e+01
    2.7910519409e+02    3.9789001465e+01
    2.7920501709e+02    3.9782012939e+01
    2.7930764771e+02    3.9775024414e+01
    2.7940722656e+02    3.9766998291e+01
    2.7950665283e+02    3.9760009766e+01
    2.7960589600e+02    3.9751007080e+01
    2.7970501709e+02    3.9744018555e+01
    2.7980685425e+02    3.9735015869e+01
    2.7990560913e+02    3.9727020264e+01
    2.8000708008e+02    3.9718017578e+01
    2.8010635376e+02    3.9705993652e+01
    2.8020736694e+02    3.9692993164e+01
    2.8030603027e+02    3.9679992676e+01
    2.8040756226e+02    3.9666992188e+01
    2.8050518799e+02    3.9654998779e+01
    2.8060638428e+02    3.9641998291e+01
    2.8070724487e+02    3.9628997803e+01
    2.8080560303e+02    3.9617004395e+01
    2.8090786743e+02    3.9604003906e+01
    2.8100491333e+02    3.9592010498e+01
    2.8110754395e+02    3.9578979492e+01
    2.8120553589e+02    3.9566009521e+01
    2.8130642700e+02    3.9553985596e+01
    2.8140719604e+02    3.9541992188e+01
    2.8150781250e+02    3.9531005859e+01
    2.8160528564e+02    3.9519989014e+01
    2.8170626831e+02    3.9507995605e+01
    2.8180615234e+02    3.9497009277e+01
    2.8190753174e+02    3.9485992432e+01
    2.8200512695e+02    3.9475006104e+01
    2.8210522461e+02    3.9464996338e+01
    2.8220538330e+02    3.9455017090e+01
    2.8230551147e+02    3.9445007324e+01
    2.8240527344e+02    3.9434997559e+01
    2.8250689697e+02    3.9426025391e+01
    2.8260800171e+02    3.9415008545e+01
    2.8270602417e+02    3.9406005859e+01
    2.8280703735e+02    3.9395996094e+01
    2.8290533447e+02    3.9386993408e+01
    2.8300534058e+02    3.9376983643e+01
    2.8310781860e+02    3.9367004395e+01
    2.8320501709e+02    3.9356994629e+01
    2.8330737305e+02    3.9346984863e+01
    2.8340557861e+02    3.9337982178e+01
    2.8350738525e+02    3.9326995850e+01
    2.8360629272e+02    3.9317016602e+01
    2.8370724487e+02    3.9305999756e+01
    2.8380541992e+02    3.9296020508e+01
    2.8390682983e+02    3.9283020020e+01
    2.8400744629e+02    3.9272979736e+01
    2.8410733032e+02    3.9260986328e+01
    2.8420730591e+02    3.9249023438e+01
    2.8430804443e+02    3.9236999512e+01
    2.8440728760e+02    3.9223999023e+01
    2.8450616455e+02    3.9212005615e+01
    2.8460617065e+02    3.9199005127e+01
    2.8470608521e+02    3.9186004639e+01
    2.8480587769e+02    3.9173004150e+01
    2.8490557861e+02    3.9158996582e+01
    2.8500808716e+02    3.9144989014e+01
    2.8510601807e+02    3.9131988525e+01
    2.8520596313e+02    3.9118988037e+01
    2.8530740356e+02    3.9105010986e+01
    2.8540774536e+02    3.9089996338e+01
    2.8550650024e+02    3.9075988770e+01
    2.8560791016e+02    3.9062011719e+01
    2.8570620728e+02    3.9048004150e+01
    2.8580712891e+02    3.9033020020e+01
    2.8590777588e+02    3.9019989014e+01
    2.8600820923e+02    3.9005004883e+01
    2.8610571289e+02    3.8990997314e+01
    2.8620672607e+02    3.8977996826e+01
    2.8630773926e+02    3.8964019775e+01
    2.8640579224e+02    3.8950988770e+01
    2.8650677490e+02    3.8937011719e+01
    2.8660769653e+02    3.8923004150e+01
    2.8670593262e+02    3.8910980225e+01
    2.8680712891e+02    3.8897979736e+01
    2.8690548706e+02    3.8885009766e+01
    2.8700750732e+02    3.8872985840e+01
    2.8710751343e+02    3.8859985352e+01
    2.8720712280e+02    3.8848022461e+01
    2.8730722046e+02    3.8835998535e+01
    2.8740753174e+02    3.8824005127e+01
    2.8750802612e+02    3.8812988281e+01
    2.8760568237e+02    3.8802001953e+01
    2.8770660400e+02    3.8789031982e+01
    2.8780776978e+02    3.8778015137e+01
    2.8790612793e+02    3.8765960693e+01
    2.8800711060e+02    3.8755035400e+01
    2.8810693359e+02    3.8742004395e+01
    2.8820626831e+02    3.8730041504e+01
    2.8830804443e+02    3.8719024658e+01
    2.8840725708e+02    3.8705993652e+01
    2.8850570679e+02    3.8693969727e+01
    2.8860803223e+02    3.8680023193e+01
    2.8870806885e+02    3.8667968750e+01
    2.8880786133e+02    3.8653015137e+01
    2.8890798950e+02    3.8640014648e+01
    2.8900781250e+02    3.8625976562e+01
    2.8910766602e+02    3.8612030029e+01
    2.8920755005e+02    3.8596984863e+01
    2.8930749512e+02    3.8582000732e+01
    2.8940753174e+02    3.8565979004e+01
    2.8950759888e+02    3.8550964355e+01
    2.8960769653e+02    3.8533996582e+01
    2.8970782471e+02    3.8518005371e+01
    2.8980786133e+02    3.8500976562e+01
    2.8990762329e+02    3.8484985352e+01
    2.9000726318e+02    3.8467987061e+01
    2.9010800171e+02    3.8444030762e+01
    2.9020730591e+02    3.8422027588e+01
    2.9030715942e+02    3.8399993896e+01
    2.9040750122e+02    3.8377014160e+01
    2.9050701904e+02    3.8355010986e+01
    2.9060614014e+02    3.8330963135e+01
    2.9070812988e+02    3.8308013916e+01
    2.9080688477e+02    3.8285003662e+01
    2.9090582275e+02    3.8261993408e+01
    2.9100827026e+02    3.8238006592e+01
    2.9110586548e+02    3.8216003418e+01
    2.9120690918e+02    3.8193023682e+01
    2.9130642700e+02    3.8169982910e+01
    2.9140646362e+02    3.8148010254e+01
    2.9150601196e+02    3.8125000000e+01
    2.9160845947e+02    3.8102996826e+01
    2.9170816040e+02    3.8079986572e+01
    2.9180841064e+02    3.8057983398e+01
    2.9190777588e+02    3.8035980225e+01
    2.9200796509e+02    3.8014984131e+01
    2.9210812378e+02    3.7992980957e+01
    2.9220812988e+02    3.7971984863e+01
    2.9230816650e+02    3.7950012207e+01
    2.9240652466e+02    3.7929016113e+01
    2.9250711060e+02    3.7907989502e+01
    2.9260812378e+02    3.7886993408e+01
    2.9270602417e+02    3.7864990234e+01
    2.9280688477e+02    3.7844970703e+01
    2.9290826416e+02    3.7823028564e+01
    2.9300650024e+02    3.7801971436e+01
    2.9310705566e+02    3.7779998779e+01
    2.9320559692e+02    3.7759002686e+01
    2.9330740356e+02    3.7736999512e+01
    2.9340576172e+02    3.7715026855e+01
    2.9350689697e+02    3.7692016602e+01
    2.9360775757e+02    3.7669036865e+01
    2.9370593262e+02    3.7645996094e+01
    2.9380697632e+02    3.7622985840e+01
    2.9390765381e+02    3.7600006104e+01
    2.9400762939e+02    3.7576019287e+01
    2.9410824585e+02    3.7550994873e+01
    2.9420800781e+02    3.7527038574e+01
    2.9430648804e+02    3.7501983643e+01
    2.9440670776e+02    3.7476989746e+01
    2.9450732422e+02    3.7451995850e+01
    2.9460714722e+02    3.7424987793e+01
    2.9470648193e+02    3.7398986816e+01
    2.9480871582e+02    3.7372009277e+01
    2.9490808105e+02    3.7345001221e+01
    2.9500744629e+02    3.7319000244e+01
    2.9510705566e+02    3.7290985107e+01
    2.9520745850e+02    3.7262969971e+01
    2.9530770874e+02    3.7234954834e+01
    2.9540774536e+02    3.7207031250e+01
    2.9550759888e+02    3.7178985596e+01
    2.9560720825e+02    3.7150970459e+01
    2.9570654297e+02    3.7121978760e+01
    2.9580853271e+02    3.7093017578e+01
    2.9590734863e+02    3.7064025879e+01
    2.9600875854e+02    3.7034973145e+01
    2.9610723877e+02    3.7005981445e+01
    2.9620745850e+02    3.6976989746e+01
    2.9630773926e+02    3.6949035645e+01
    2.9640808105e+02    3.6920013428e+01
    2.9650860596e+02    3.6890991211e+01
    2.9660769653e+02    3.6863006592e+01
    2.9670867920e+02    3.6834014893e+01
    2.9680654907e+02    3.6805999756e+01
    2.9690777588e+02    3.6776977539e+01
    2.9700604248e+02    3.6750000000e+01
    2.9710754395e+02    3.6720977783e+01
    2.9720614624e+02    3.6693023682e+01
    2.9730706787e+02    3.6664978027e+01
    2.9740649414e+02    3.6635986328e+01
    2.9750732422e+02    3.6608001709e+01
    2.9760830688e+02    3.6579986572e+01
    2.9770645142e+02    3.6552032471e+01
    2.9780783081e+02    3.6523986816e+01
    2.9790640259e+02    3.6495971680e+01
    2.9800796509e+02    3.6467010498e+01
    2.9810800171e+02    3.6437957764e+01
    2.9820864868e+02    3.6408996582e+01
    2.9830804443e+02    3.6380004883e+01
    2.9840750122e+02    3.6350952148e+01
    2.9850692749e+02    3.6320983887e+01
    2.9860775757e+02    3.6291015625e+01
    2.9870715332e+02    3.6261962891e+01
    2.9880645752e+02    3.6230957031e+01
    2.9890869141e+02    3.6199035645e+01
    2.9900796509e+02    3.6167968750e+01
    2.9910723877e+02    3.6135986328e+01
    2.9920651245e+02    3.6104003906e+01
    2.9930868530e+02    3.6072021484e+01
    2.9940792847e+02    3.6039001465e+01
    2.9950720215e+02    3.6005004883e+01
    2.9960650635e+02    3.5973022461e+01
    2.9970883179e+02    3.5937011719e+01
    2.9980865479e+02    3.5903015137e+01
    2.9990655518e+02    3.5869018555e+01
endcurve
