Curveplot
LS-DYNA keyword deck by LS-PrePost
Abscissa
Ordinate
XY data
CHOP_EAMX_mo-1 #pts=3000
* Minval=     0.0000000000e+00 at time=         0.0000000000
* Maxval=     7.3360015869e+01 at time=       233.7029724121
    0.0000000000e+00    0.0000000000e+00
    9.7369909286e-02    1.5221800422e-03
    1.9807700813e-01    3.0965399928e-03
    2.9948920012e-01    4.6819099225e-03
    3.9713996649e-01    6.2084901147e-03
    4.9812555313e-01    7.7872001566e-03
    5.9749299288e-01    9.3406103551e-03
    6.9738900661e-01    1.0902299546e-02
    7.9955375195e-01    1.2499400415e-02
    8.9783728123e-01    1.4035899192e-02
    9.9828058481e-01    1.5606095083e-02
    1.0996562243e+00    1.7190892249e-02
    1.1974014044e+00    1.8718991429e-02
    1.2984220982e+00    2.0298192278e-02
    1.3971672058e+00    2.1841900423e-02
    1.4989128113e+00    2.3432513699e-02
    1.5977989435e+00    2.4978404865e-02
    1.6997433901e+00    2.6572041214e-02
    1.7984901667e+00    2.8115600348e-02
    1.8987457752e+00    2.9682736844e-02
    1.9997639656e+00    3.1261898577e-02
    2.0978953838e+00    3.2796267420e-02
    2.1994953156e+00    3.4385267645e-02
    2.2993786335e+00    3.5947814584e-02
    2.3983728886e+00    3.7496522069e-02
    2.4975562096e+00    3.9047762752e-02
    2.5975327492e+00    4.0610570461e-02
    2.6985549927e+00    4.2188562453e-02
    2.7983779907e+00    4.3746486306e-02
    2.8981916904e+00    4.5303244144e-02
    2.9984147549e+00    4.6865779907e-02
    3.0974473953e+00    4.8409782350e-02
    3.1972544193e+00    4.9966491759e-02
    3.2982785702e+00    5.1543399692e-02
    3.3992686272e+00    5.3121514618e-02
    3.4973409176e+00    5.4655861109e-02
    3.5992622375e+00    5.6252703071e-02
    3.6988952160e+00    5.7815760374e-02
    3.7990405560e+00    5.9389106929e-02
    3.8982412815e+00    6.0949616134e-02
    3.9996523857e+00    6.2546797097e-02
    4.0988574028e+00    6.4110659063e-02
    4.1998772621e+00    6.5704472363e-02
    4.2982239723e+00    6.7256733775e-02
    4.3992471695e+00    6.8851515651e-02
    4.4991350174e+00    7.0427983999e-02
    4.5988092422e+00    7.1999885142e-02
    4.6975693703e+00    7.3555581272e-02
    4.7989411354e+00    7.5149916112e-02
    4.8999624252e+00    7.6735757291e-02
    4.9980959892e+00    7.8272856772e-02
    5.0998129845e+00    7.9862333834e-02
    5.1989932060e+00    8.1408075988e-02
    5.2981653214e+00    8.2949370146e-02
    5.3986592293e+00    8.4506660700e-02
    5.4997544289e+00    8.6068458855e-02
    5.5971760750e+00    8.7568387389e-02
    5.6978554726e+00    8.9113220572e-02
    5.7974638939e+00    9.0635776520e-02
    5.8984732628e+00    9.2173859477e-02
    5.9999842644e+00    9.3713440001e-02
    6.0983343124e+00    9.5198981464e-02
    6.1984119415e+00    9.6704527736e-02
    6.2999501228e+00    9.8225742579e-02
    6.3996829987e+00    9.9713593721e-02
    6.4988436699e+00    1.0118699819e-01
    6.5997147560e+00    1.0268013924e-01
    6.6997900009e+00    1.0415615886e-01
    6.7986364365e+00    1.0560779274e-01
    6.8981943130e+00    1.0706440359e-01
    6.9998621941e+00    1.0854753852e-01
    7.0975832939e+00    1.0996790975e-01
    7.1989593506e+00    1.1143532395e-01
    7.2974481583e+00    1.1285747588e-01
    7.3989973068e+00    1.1431944370e-01
    7.4993929863e+00    1.1575970054e-01
    7.5987024307e+00    1.1718063802e-01
    7.6984376907e+00    1.1860564351e-01
    7.7987232208e+00    1.2003374100e-01
    7.8997526169e+00    1.2147074193e-01
    7.9989619255e+00    1.2287834287e-01
    8.0996818542e+00    1.2430383265e-01
    8.1999330521e+00    1.2572103739e-01
    8.2976121902e+00    1.2709824741e-01
    8.3971357346e+00    1.2849757075e-01
    8.4985017776e+00    1.2992069125e-01
    8.5995206833e+00    1.3133487105e-01
    8.6976509094e+00    1.3270536065e-01
    8.7984514236e+00    1.3411004841e-01
    8.8979358673e+00    1.3549275696e-01
    8.9987192154e+00    1.3689124584e-01
    9.0970468521e+00    1.3825242221e-01
    9.1981859207e+00    1.3965012133e-01
    9.2992000580e+00    1.4104384184e-01
    9.3987522125e+00    1.4241625369e-01
    9.4978952408e+00    1.4378070831e-01
    9.5992670059e+00    1.4517334104e-01
    9.6992788315e+00    1.4654701948e-01
    9.7982511520e+00    1.4790426195e-01
    9.8977012634e+00    1.4926721156e-01
    9.9987659454e+00    1.5065057576e-01
    1.0098511696e+01    1.5446609259e-01
    1.0199678421e+01    1.5836635232e-01
    1.0298215866e+01    1.6216328740e-01
    1.0398855209e+01    1.6603933275e-01
    1.0497861862e+01    1.6985078156e-01
    1.0597251892e+01    1.7367431521e-01
    1.0697270393e+01    1.7752015591e-01
    1.0799457550e+01    1.8144662678e-01
    1.0897672653e+01    1.8521741033e-01
    1.0998721123e+01    1.8909372389e-01
    1.1097229004e+01    1.9286884367e-01
    1.1198507309e+01    1.9674582779e-01
    1.1299547195e+01    2.0060995221e-01
    1.1398487091e+01    2.0438826084e-01
    1.1499978065e+01    2.0825961232e-01
    1.1598881721e+01    2.1202591062e-01
    1.1699591637e+01    2.1585741639e-01
    1.1797919273e+01    2.1959160268e-01
    1.1898950577e+01    2.2342373431e-01
    1.1999979973e+01    2.2725100815e-01
    1.2098205566e+01    2.3096840084e-01
    1.2197334290e+01    2.3471559584e-01
    1.2298474312e+01    2.3853419721e-01
    1.2397833824e+01    2.4228151143e-01
    1.2499473572e+01    2.4611051381e-01
    1.2598923683e+01    2.4985110760e-01
    1.2699953079e+01    2.5364491343e-01
    1.2798091888e+01    2.5732430816e-01
    1.2899495125e+01    2.6111999154e-01
    1.2997612000e+01    2.6478788257e-01
    1.3098699570e+01    2.6856350899e-01
    1.3197715759e+01    2.7225768566e-01
    1.3298756599e+01    2.7602508664e-01
    1.3397233963e+01    2.7969640493e-01
    1.3497929573e+01    2.8344967961e-01
    1.3597932816e+01    2.8717580438e-01
    1.3699493408e+01    2.9095968604e-01
    1.3797644615e+01    2.9461771250e-01
    1.3898680687e+01    2.9838171601e-01
    1.3997740746e+01    3.0207130313e-01
    1.4098539352e+01    3.0582460761e-01
    1.4197928429e+01    3.0952328444e-01
    1.4299071312e+01    3.1328302622e-01
    1.4397571564e+01    3.1694132090e-01
    1.4497648239e+01    3.2065179944e-01
    1.4599093437e+01    3.2440599799e-01
    1.4699822426e+01    3.2812467217e-01
    1.4798312187e+01    3.3175018430e-01
    1.4897054672e+01    3.3537310362e-01
    1.4998292923e+01    3.3907517791e-01
    1.5098944664e+01    3.4274029732e-01
    1.5199199677e+01    3.4637701511e-01
    1.5299445152e+01    3.4999698400e-01
    1.5399482727e+01    3.5359370708e-01
    1.5497596741e+01    3.5710489750e-01
    1.5597725868e+01    3.6067160964e-01
    1.5697420120e+01    3.6420491338e-01
    1.5797376633e+01    3.6772918701e-01
    1.5898392677e+01    3.7127378583e-01
    1.5998808861e+01    3.7477868795e-01
    1.6099941254e+01    3.7829050422e-01
    1.6199506760e+01    3.8173079491e-01
    1.6297647476e+01    3.8510468602e-01
    1.6399570465e+01    3.8859099150e-01
    1.6497373581e+01    3.9191979170e-01
    1.6598758698e+01    3.9535391331e-01
    1.6698831558e+01    3.9872860909e-01
    1.6799879074e+01    4.0211892128e-01
    1.6898040771e+01    4.0539848804e-01
    1.6998636246e+01    4.0874490142e-01
    1.7099475861e+01    4.1208389401e-01
    1.7198326111e+01    4.1534391046e-01
    1.7299909592e+01    4.1867968440e-01
    1.7399274826e+01    4.2193070054e-01
    1.7497299194e+01    4.2512559891e-01
    1.7597951889e+01    4.2839542031e-01
    1.7699010849e+01    4.3166729808e-01
    1.7797180176e+01    4.3483579159e-01
    1.7898233414e+01    4.3808770180e-01
    1.7999279022e+01    4.4132989645e-01
    1.8097755432e+01    4.4447937608e-01
    1.8199289322e+01    4.4771859050e-01
    1.8297386169e+01    4.5083841681e-01
    1.8398450851e+01    4.5404320955e-01
    1.8497283936e+01    4.5716869831e-01
    1.8598314285e+01    4.6035462618e-01
    1.8699340820e+01    4.6353161335e-01
    1.8798715591e+01    4.6664834023e-01
    1.8898563385e+01    4.6977189183e-01
    1.8999273300e+01    4.7291511297e-01
    1.9098115921e+01    4.7599393129e-01
    1.9198606491e+01    4.7911688685e-01
    1.9298030853e+01    4.8220100999e-01
    1.9398485184e+01    4.8531162739e-01
    1.9498451233e+01    4.8840147257e-01
    1.9599578857e+01    4.9152207375e-01
    1.9697742462e+01    4.9454638362e-01
    1.9799339294e+01    4.9767121673e-01
    1.9899480820e+01    5.0074613094e-01
    1.9998109818e+01    5.0376874208e-01
    2.0099456787e+01    5.0954699516e-01
    2.0197763443e+01    5.1519590616e-01
    2.0299747467e+01    5.2104908228e-01
    2.0397531509e+01    5.2665603161e-01
    2.0499458313e+01    5.3249192238e-01
    2.0599056244e+01    5.3818768263e-01
    2.0698812485e+01    5.4388326406e-01
    2.0797962189e+01    5.4953569174e-01
    2.0898649216e+01    5.5526429415e-01
    2.0999725342e+01    5.6100302935e-01
    2.1098436356e+01    5.6659537554e-01
    2.1200010300e+01    5.7233619690e-01
    2.1298189163e+01    5.7787096500e-01
    2.1397323608e+01    5.8344542980e-01
    2.1499183655e+01    5.8915585279e-01
    2.1599388123e+01    5.9475606680e-01
    2.1697563171e+01    6.0022729635e-01
    2.1798622131e+01    6.0584163666e-01
    2.1899675369e+01    6.1143893003e-01
    2.1997837067e+01    6.1686009169e-01
    2.2099744797e+01    6.2247192860e-01
    2.2199426651e+01    6.2794750929e-01
    2.2297525406e+01    6.3332128525e-01
    2.2399444580e+01    6.3889151812e-01
    2.2497875214e+01    6.4425629377e-01
    2.2599109650e+01    6.4975899458e-01
    2.2697280884e+01    6.5508008003e-01
    2.2798330307e+01    6.6054308414e-01
    2.2897104263e+01    6.6586869955e-01
    2.2998182297e+01    6.7130494118e-01
    2.3099815369e+01    6.7675942183e-01
    2.3198589325e+01    6.8204951286e-01
    2.3299652100e+01    6.8745291233e-01
    2.3399400711e+01    6.9277650118e-01
    2.3497232437e+01    6.9798898697e-01
    2.3598722458e+01    7.0339000225e-01
    2.3699779510e+01    7.0875895023e-01
    2.3797945023e+01    7.1396702528e-01
    2.3898994446e+01    7.1931904554e-01
    2.3999860764e+01    7.2465300560e-01
    2.4097249985e+01    7.2979199886e-01
    2.4197904587e+01    7.3509204388e-01
    2.4298036575e+01    7.4035298824e-01
    2.4398069382e+01    7.4559497833e-01
    2.4498348236e+01    7.5083303452e-01
    2.4598653793e+01    7.5605601072e-01
    2.4699348450e+01    7.6127898693e-01
    2.4797519684e+01    7.6635003090e-01
    2.4899753571e+01    7.7160596848e-01
    2.4999788284e+01    7.7672499418e-01
    2.5098043442e+01    7.8172701597e-01
    2.5199472427e+01    7.8686201572e-01
    2.5298135757e+01    7.9183000326e-01
    2.5397808075e+01    7.9681801796e-01
    2.5498870850e+01    8.0184799433e-01
    2.5598821640e+01    8.0679100752e-01
    2.5698518753e+01    8.1169199944e-01
    2.5798412323e+01    8.1657099724e-01
    2.5899452209e+01    8.2147693634e-01
    2.5999002457e+01    8.2627999783e-01
    2.6099269867e+01    8.3108794689e-01
    2.6198505402e+01    8.3581799269e-01
    2.6299566269e+01    8.4060597420e-01
    2.6397920609e+01    8.4523898363e-01
    2.6497484207e+01    8.4990203381e-01
    2.6598600388e+01    8.5461497307e-01
    2.6697399139e+01    8.5918796062e-01
    2.6798490524e+01    8.6384803057e-01
    2.6899581909e+01    8.6847299337e-01
    2.6997192383e+01    8.7292999029e-01
    2.7098279953e+01    8.7750697136e-01
    2.7199348450e+01    8.8207101822e-01
    2.7298974991e+01    8.8654494286e-01
    2.7399595261e+01    8.9103400707e-01
    2.7497600555e+01    8.9539402723e-01
    2.7598070145e+01    8.9984792471e-01
    2.7699167252e+01    9.0430903435e-01
    2.7797370911e+01    9.0862095356e-01
    2.7898452759e+01    9.1304802895e-01
    2.7999525070e+01    9.1744798422e-01
    2.8098470688e+01    9.2174297571e-01
    2.8199514389e+01    9.2612195015e-01
    2.8297582626e+01    9.3034797907e-01
    2.8398618698e+01    9.3469697237e-01
    2.8498054504e+01    9.3895101547e-01
    2.8599115372e+01    9.4327092171e-01
    2.8697284698e+01    9.4744896889e-01
    2.8797231674e+01    9.5169198513e-01
    2.8898393631e+01    9.5597195625e-01
    2.8998153687e+01    9.6018701792e-01
    2.9098014832e+01    9.6438896656e-01
    2.9197786331e+01    9.6858394146e-01
    2.9297653198e+01    9.7277700901e-01
    2.9397525787e+01    9.7695100307e-01
    2.9497989655e+01    9.8115205765e-01
    2.9599515915e+01    9.8537701368e-01
    2.9697723389e+01    9.8945796490e-01
    2.9799516678e+01    9.9368798733e-01
    2.9898330688e+01    9.9777495861e-01
    2.9998817444e+01    1.0019279718e+00
    3.0099903107e+01    1.0120739937e+00
    3.0198249817e+01    1.0219900608e+00
    3.0297286987e+01    1.0319750309e+00
    3.0397830963e+01    1.0420958996e+00
    3.0499715805e+01    1.0523260832e+00
    3.0599077225e+01    1.0622960329e+00
    3.0698534012e+01    1.0722559690e+00
    3.0797813416e+01    1.0821719170e+00
    3.0899099350e+01    1.0922809839e+00
    3.0998241425e+01    1.1021460295e+00
    3.1097181320e+01    1.1119630337e+00
    3.1198631287e+01    1.1220029593e+00
    3.1299747467e+01    1.1319850683e+00
    3.1398910522e+01    1.1417460442e+00
    3.1497997284e+01    1.1514689922e+00
    3.1599212646e+01    1.1613799334e+00
    3.1697280884e+01    1.1709439754e+00
    3.1798379898e+01    1.1807770729e+00
    3.1899467468e+01    1.1905699968e+00
    3.1997659683e+01    1.2000610828e+00
    3.2098819733e+01    1.2098140717e+00
    3.2198230743e+01    1.2193650007e+00
    3.2299430847e+01    1.2290649414e+00
    3.2398677826e+01    1.2385519743e+00
    3.2497402191e+01    1.2479710579e+00
    3.2599353790e+01    1.2576599121e+00
    3.2697566986e+01    1.2669730186e+00
    3.2798660278e+01    1.2765369415e+00
    3.2899646759e+01    1.2860579491e+00
    3.3000015259e+01    1.2955079079e+00
    3.3098072052e+01    1.3047159910e+00
    3.3200008392e+01    1.3142669201e+00
    3.3298236847e+01    1.3234679699e+00
    3.3399932861e+01    1.3329699039e+00
    3.3497901917e+01    1.3421159983e+00
    3.3599918365e+01    1.3516229391e+00
    3.3698131561e+01    1.3607699871e+00
    3.3799224854e+01    1.3701769114e+00
    3.3897426605e+01    1.3793020248e+00
    3.3998973846e+01    1.3887180090e+00
    3.4099018097e+01    1.3979899883e+00
    3.4198455811e+01    1.4071760178e+00
    3.4298782349e+01    1.4164320230e+00
    3.4397705078e+01    1.4255460501e+00
    3.4497135162e+01    1.4346671104e+00
    3.4598686218e+01    1.4439649582e+00
    3.4699409485e+01    1.4531500340e+00
    3.4797637939e+01    1.4620699883e+00
    3.4898921967e+01    1.4712319374e+00
    3.4997650146e+01    1.4801280499e+00
    3.5098644257e+01    1.4891779423e+00
    3.5198165894e+01    1.4980590343e+00
    3.5299198151e+01    1.5070279837e+00
    3.5399360657e+01    1.5158649683e+00
    3.5497417450e+01    1.5244879723e+00
    3.5597862244e+01    1.5332598686e+00
    3.5697563171e+01    1.5419230461e+00
    3.5797180176e+01    1.5505319834e+00
    3.5898250580e+01    1.5592110157e+00
    3.5997821808e+01    1.5677230358e+00
    3.6099006653e+01    1.5763179064e+00
    3.6199165344e+01    1.5847671032e+00
    3.6297374725e+01    1.5930141211e+00
    3.6398475647e+01    1.6014568806e+00
    3.6498336792e+01    1.6097480059e+00
    3.6599468231e+01    1.6180970669e+00
    3.6698734283e+01    1.6262561083e+00
    3.6799880981e+01    1.6345169544e+00
    3.6898143768e+01    1.6425089836e+00
    3.6999145508e+01    1.6506730318e+00
    3.7099063873e+01    1.6587178707e+00
    3.7197330475e+01    1.6665909290e+00
    3.7298488617e+01    1.6746500731e+00
    3.7399894714e+01    1.6826999187e+00
    3.7497932434e+01    1.6904489994e+00
    3.7598609924e+01    1.6983668804e+00
    3.7699787140e+01    1.7063020468e+00
    3.7798065186e+01    1.7139800787e+00
    3.7899219513e+01    1.7218489647e+00
    3.7997463226e+01    1.7294750214e+00
    3.8098033905e+01    1.7372499704e+00
    3.8199501038e+01    1.7450640202e+00
    3.8297504425e+01    1.7525980473e+00
    3.8398471832e+01    1.7603279352e+00
    3.8499824524e+01    1.7680649757e+00
    3.8598041534e+01    1.7755401134e+00
    3.8699127197e+01    1.7832159996e+00
    3.8799816132e+01    1.7908308506e+00
    3.8897941589e+01    1.7982399464e+00
    3.8998657227e+01    1.8058269024e+00
    3.9097087860e+01    1.8132270575e+00
    3.9199443817e+01    1.8209050894e+00
    3.9297817230e+01    1.8282668591e+00
    3.9397159576e+01    1.8356839418e+00
    3.9498397827e+01    1.8432359695e+00
    3.9599723816e+01    1.8507698774e+00
    3.9697998047e+01    1.8580709696e+00
    3.9799179077e+01    1.8655719757e+00
    3.9899059296e+01    1.8729568720e+00
    3.9997802734e+01    1.8802440166e+00
    4.0099170685e+01    1.8954319954e+00
    4.0197639465e+01    1.9103249311e+00
    4.0299781799e+01    1.9257459641e+00
    4.0397491455e+01    1.9404821396e+00
    4.0498821259e+01    1.9557338953e+00
    4.0598335266e+01    1.9706749916e+00
    4.0697666168e+01    1.9855630398e+00
    4.0799892426e+01    2.0008461475e+00
    4.0898353577e+01    2.0155398846e+00
    4.0997745514e+01    2.0303230286e+00
    4.1099727631e+01    2.0454459190e+00
    4.1198368073e+01    2.0600349903e+00
    4.1299564362e+01    2.0749502182e+00
    4.1398780823e+01    2.0895230770e+00
    4.1497798920e+01    2.1040279865e+00
    4.1598438263e+01    2.1187069416e+00
    4.1698898315e+01    2.1333150864e+00
    4.1797187805e+01    2.1475620270e+00
    4.1898345947e+01    2.1621670723e+00
    4.1999492645e+01    2.1767230034e+00
    4.2098392487e+01    2.1909120083e+00
    4.2197704315e+01    2.2051239014e+00
    4.2298961639e+01    2.2195630074e+00
    4.2398273468e+01    2.2336940765e+00
    4.2499443054e+01    2.2480368614e+00
    4.2597728729e+01    2.2619421482e+00
    4.2698890686e+01    2.2762019634e+00
    4.2797138214e+01    2.2900190353e+00
    4.2898265839e+01    2.3041918278e+00
    4.2999252319e+01    2.3183188438e+00
    4.3098644257e+01    2.3321878910e+00
    4.3197647095e+01    2.3459870815e+00
    4.3298831940e+01    2.3600468636e+00
    4.3397628784e+01    2.3737630844e+00
    4.3498329163e+01    2.3877229691e+00
    4.3597644806e+01    2.4014780521e+00
    4.3698818207e+01    2.4154701233e+00
    4.3797092438e+01    2.4290399551e+00
    4.3898250580e+01    2.4429869652e+00
    4.3999877930e+01    2.4569799900e+00
    4.4097713470e+01    2.4704270363e+00
    4.4197380066e+01    2.4841039181e+00
    4.4298625946e+01    2.4979639053e+00
    4.4398490906e+01    2.5116050243e+00
    4.4499050140e+01    2.5253031254e+00
    4.4597064972e+01    2.5386140347e+00
    4.4697483063e+01    2.5522019863e+00
    4.4798660278e+01    2.5658440590e+00
    4.4897926331e+01    2.5791640282e+00
    4.4999431610e+01    2.5927350521e+00
    4.5097381592e+01    2.6057591438e+00
    4.5199176788e+01    2.6192400455e+00
    4.5297183990e+01    2.6321399212e+00
    4.5397365570e+01    2.6452720165e+00
    4.5498355865e+01    2.6584320068e+00
    4.5598461151e+01    2.6714079380e+00
    4.5697849274e+01    2.6842060089e+00
    4.5797565460e+01    2.6969900131e+00
    4.5898693085e+01    2.7098798752e+00
    4.5999576569e+01    2.7226600647e+00
    4.6097759247e+01    2.7350201607e+00
    4.6198177338e+01    2.7476000786e+00
    4.6299354553e+01    2.7602000237e+00
    4.6397647858e+01    2.7723598480e+00
    4.6497612000e+01    2.7846698761e+00
    4.6598735809e+01    2.7970499992e+00
    4.6698215485e+01    2.8091700077e+00
    4.6799449921e+01    2.8214201927e+00
    4.6897792816e+01    2.8332600594e+00
    4.6999187469e+01    2.8454198837e+00
    4.7097259521e+01    2.8571100235e+00
    4.7199436188e+01    2.8692200184e+00
    4.7297775269e+01    2.8808197975e+00
    4.7399093628e+01    2.8927202225e+00
    4.7497077942e+01    2.9041700363e+00
    4.7596961975e+01    2.9157998562e+00
    4.7698234558e+01    2.9275498390e+00
    4.7799491882e+01    2.9392499924e+00
    4.7897838593e+01    2.9505696297e+00
    4.7999053955e+01    2.9621796608e+00
    4.8099296570e+01    2.9736399651e+00
    4.8197628021e+01    2.9848499298e+00
    4.8298515320e+01    2.9962997437e+00
    4.8399387360e+01    3.0077297688e+00
    4.8498435974e+01    3.0189101696e+00
    4.8599601746e+01    3.0303096771e+00
    4.8697853088e+01    3.0413298607e+00
    4.8797870636e+01    3.0525403023e+00
    4.8899097443e+01    3.0638499260e+00
    4.8999790192e+01    3.0750801563e+00
    4.9099060059e+01    3.0861201286e+00
    4.9199317932e+01    3.0972499847e+00
    4.9298015594e+01    3.1081898212e+00
    4.9398445129e+01    3.1192901134e+00
    4.9499729156e+01    3.1304702759e+00
    4.9598400116e+01    3.1413500309e+00
    4.9699634552e+01    3.1524801254e+00
    4.9798007965e+01    3.1632699966e+00
    4.9897174835e+01    3.1741199493e+00
    4.9998050690e+01    3.1851396561e+00
    5.0099567413e+01    3.2057600021e+00
    5.0198360443e+01    3.2259697914e+00
    5.0298023224e+01    3.2463202477e+00
    5.0398799896e+01    3.2668600082e+00
    5.0497673035e+01    3.2869796753e+00
    5.0597156525e+01    3.3071699142e+00
    5.0699535370e+01    3.3278899193e+00
    5.0798843384e+01    3.3479499817e+00
    5.0897224426e+01    3.3677501678e+00
    5.0999603271e+01    3.3882999420e+00
    5.1098686218e+01    3.4081201553e+00
    5.1197410583e+01    3.4278099537e+00
    5.1298694611e+01    3.4479298592e+00
    5.1397964478e+01    3.4675798416e+00
    5.1497184753e+01    3.4871399403e+00
    5.1597976685e+01    3.5069403648e+00
    5.1697269440e+01    3.5263597965e+00
    5.1798530579e+01    3.5460901260e+00
    5.1899768829e+01    3.5657401085e+00
    5.1998104095e+01    3.5847597122e+00
    5.2096977234e+01    3.6038002968e+00
    5.2199260712e+01    3.6234500408e+00
    5.2297531128e+01    3.6422600746e+00
    5.2396930695e+01    3.6612398624e+00
    5.2498199463e+01    3.6805098057e+00
    5.2599475861e+01    3.6997201443e+00
    5.2697837830e+01    3.7183198929e+00
    5.2799060822e+01    3.7373998165e+00
    5.2897830963e+01    3.7559800148e+00
    5.2998752594e+01    3.7748999596e+00
    5.3098449707e+01    3.7935600281e+00
    5.3197719574e+01    3.8120803833e+00
    5.3298973083e+01    3.8309602737e+00
    5.3398006439e+01    3.8493700027e+00
    5.3498535156e+01    3.8680396080e+00
    5.3597702026e+01    3.8864297867e+00
    5.3698928833e+01    3.9051802158e+00
    5.3797245026e+01    3.9233598709e+00
    5.3898445129e+01    3.9420397282e+00
    5.3996906281e+01    3.9601898193e+00
    5.4097717285e+01    3.9787302017e+00
    5.4197616577e+01    3.9970700741e+00
    5.4298179626e+01    4.0155000687e+00
    5.4398288727e+01    4.0337901115e+00
    5.4499633789e+01    4.0522599220e+00
    5.4597366333e+01    4.0700101852e+00
    5.4697776794e+01    4.0881900787e+00
    5.4799037933e+01    4.1064600945e+00
    5.4898460388e+01    4.1243100166e+00
    5.4999576569e+01    4.1423797607e+00
    5.5097434998e+01    4.1597900391e+00
    5.5199214935e+01    4.1778101921e+00
    5.5299663544e+01    4.1955204010e+00
    5.5399677277e+01    4.2130403519e+00
    5.5497642517e+01    4.2301101685e+00
    5.5597816467e+01    4.2474699020e+00
    5.5697303772e+01    4.2646102905e+00
    5.5797233582e+01    4.2817296982e+00
    5.5898429871e+01    4.2989702225e+00
    5.5998657227e+01    4.3159499168e+00
    5.6096908569e+01    4.3324799538e+00
    5.6197391510e+01    4.3493003845e+00
    5.6298645020e+01    4.3661499023e+00
    5.6397018433e+01    4.3824195862e+00
    5.6499591827e+01    4.3992795944e+00
    5.6597183228e+01    4.4152402878e+00
    5.6699062347e+01    4.4317998886e+00
    5.6797500610e+01    4.4477100372e+00
    5.6898845673e+01    4.4640102386e+00
    5.6999496460e+01    4.4801001549e+00
    5.7097530365e+01    4.4956903458e+00
    5.7199539185e+01    4.5118198395e+00
    5.7297977448e+01    4.5273199081e+00
    5.7399467468e+01    4.5432100296e+00
    5.7497383118e+01    4.5584802628e+00
    5.7597335815e+01    4.5739898682e+00
    5.7698707581e+01    4.5896596909e+00
    5.7797157288e+01    4.6048202515e+00
    5.7898479462e+01    4.6203699112e+00
    5.7996875763e+01    4.6354198456e+00
    5.8097724915e+01    4.6507802010e+00
    5.8198951721e+01    4.6661601067e+00
    5.8296779633e+01    4.6809701920e+00
    5.8397552490e+01    4.6961898804e+00
    5.8499511719e+01    4.7115297318e+00
    5.8597862244e+01    4.7263002396e+00
    5.8699073792e+01    4.7414598465e+00
    5.8796977997e+01    4.7560997009e+00
    5.8898269653e+01    4.7712001801e+00
    5.8999568939e+01    4.7862796783e+00
    5.9096981049e+01    4.8007502556e+00
    5.9198596954e+01    4.8158202171e+00
    5.9299503326e+01    4.8307600021e+00
    5.9398372650e+01    4.8453598022e+00
    5.9496665955e+01    4.8598599434e+00
    5.9598667145e+01    4.8748798370e+00
    5.9697093964e+01    4.8893499374e+00
    5.9798450470e+01    4.9042100906e+00
    5.9897960663e+01    4.9187698364e+00
    5.9998714447e+01    4.9334697723e+00
    6.0097549438e+01    4.9588098526e+00
    6.0199367523e+01    4.9850101471e+00
    6.0298969269e+01    5.0105800629e+00
    6.0396930695e+01    5.0356998444e+00
    6.0497882843e+01    5.0615100861e+00
    6.0597320557e+01    5.0868701935e+00
    6.0696704865e+01    5.1121501923e+00
    6.0799045563e+01    5.1381101608e+00
    6.0897533417e+01    5.1630001068e+00
    6.0996948242e+01    5.1880598068e+00
    6.1099380493e+01    5.2137804031e+00
    6.1198226929e+01    5.2385005951e+00
    6.1299629211e+01    5.2637696266e+00
    6.1399047852e+01    5.2884302139e+00
    6.1497985840e+01    5.3128900528e+00
    6.1598667145e+01    5.3376502991e+00
    6.1698490143e+01    5.3621101379e+00
    6.1796958923e+01    5.3861298561e+00
    6.1898296356e+01    5.4107394218e+00
    6.1999614716e+01    5.4352598190e+00
    6.2098617554e+01    5.4591102600e+00
    6.2198146820e+01    5.4830093384e+00
    6.2299568176e+01    5.5072798729e+00
    6.2398868561e+01    5.5309596062e+00
    6.2497322083e+01    5.5543804169e+00
    6.2598678589e+01    5.5783901215e+00
    6.2697109222e+01    5.6016497612e+00
    6.2798397064e+01    5.6255102158e+00
    6.2897315979e+01    5.6487398148e+00
    6.2998157501e+01    5.6723599434e+00
    6.3098064423e+01    5.6957101822e+00
    6.3197929382e+01    5.7189893723e+00
    6.3299263000e+01    5.7425699234e+00
    6.3398269653e+01    5.7655701637e+00
    6.3498832703e+01    5.7888898849e+00
    6.3597949982e+01    5.8118400574e+00
    6.3699249268e+01    5.8352599144e+00
    6.3797641754e+01    5.8579697609e+00
    6.3898914337e+01    5.8813199997e+00
    6.3997306824e+01    5.9039597511e+00
    6.4098884583e+01    5.9272894859e+00
    6.4199554443e+01    5.9503598213e+00
    6.4297851562e+01    5.9728398323e+00
    6.4398559570e+01    5.9958200455e+00
    6.4496910095e+01    6.0181899071e+00
    6.4596954346e+01    6.0408797264e+00
    6.4696998596e+01    6.0634899139e+00
    6.4798362732e+01    6.0863199234e+00
    6.4897712708e+01    6.1085996628e+00
    6.4998382568e+01    6.1310896873e+00
    6.5099082947e+01    6.1534705162e+00
    6.5196884155e+01    6.1750993729e+00
    6.5298324585e+01    6.1974301338e+00
    6.5398803711e+01    6.2194399834e+00
    6.5496704102e+01    6.2407503128e+00
    6.5597015381e+01    6.2624797821e+00
    6.5699356079e+01    6.2845401764e+00
    6.5799064636e+01    6.3058896065e+00
    6.5897445679e+01    6.3268795013e+00
    6.5998283386e+01    6.3481397629e+00
    6.6096603394e+01    6.3688797951e+00
    6.6197532654e+01    6.3899698257e+00
    6.6298873901e+01    6.4110398293e+00
    6.6397331238e+01    6.4313898087e+00
    6.6496742249e+01    6.4518203735e+00
    6.6599296570e+01    6.4727697372e+00
    6.6697807312e+01    6.4928498268e+00
    6.6799232483e+01    6.5133004189e+00
    6.6897773743e+01    6.5330505371e+00
    6.6998497009e+01    6.5532298088e+00
    6.7099395752e+01    6.5732498169e+00
    6.7197929382e+01    6.5926799774e+00
    6.7299362183e+01    6.6126899719e+00
    6.7397979736e+01    6.6319098473e+00
    6.7498786926e+01    6.6515603065e+00
    6.7598541260e+01    6.6709599495e+00
    6.7697128296e+01    6.6899399757e+00
    6.7798583984e+01    6.7095198631e+00
    6.7897117615e+01    6.7283697128e+00
    6.7998512268e+01    6.7477202415e+00
    6.8099464417e+01    6.7670097351e+00
    6.8198211670e+01    6.7857298851e+00
    6.8298873901e+01    6.8047704697e+00
    6.8399513245e+01    6.8237595558e+00
    6.8498092651e+01    6.8423695564e+00
    6.8599418640e+01    6.8614201546e+00
    6.8697807312e+01    6.8797903061e+00
    6.8798660278e+01    6.8986706734e+00
    6.8896942139e+01    6.9171004295e+00
    6.8998298645e+01    6.9359998703e+00
    6.9097198486e+01    6.9544301033e+00
    6.9197990417e+01    6.9730997086e+00
    6.9298789978e+01    6.9918398857e+00
    6.9397819519e+01    7.0101599693e+00
    6.9499267578e+01    7.0289998055e+00
    6.9598472595e+01    7.0473203659e+00
    6.9696990967e+01    7.0654602051e+00
    6.9798454285e+01    7.0842003822e+00
    6.9897857666e+01    7.1024699211e+00
    6.9998748779e+01    7.1209502220e+00
    7.0097549438e+01    7.1498699188e+00
    7.0196594238e+01    7.1788697243e+00
    7.0299308777e+01    7.2089505196e+00
    7.0397270203e+01    7.2375693321e+00
    7.0497833252e+01    7.2668094635e+00
    7.0597160339e+01    7.2956500053e+00
    7.0696517944e+01    7.3243999481e+00
    7.0798896790e+01    7.3539505005e+00
    7.0897644043e+01    7.3823399544e+00
    7.0997871399e+01    7.4110798836e+00
    7.1097663879e+01    7.4395093918e+00
    7.1196792603e+01    7.4676895142e+00
    7.1298309326e+01    7.4963603020e+00
    7.1397712708e+01    7.5244197845e+00
    7.1496971130e+01    7.5521798134e+00
    7.1597366333e+01    7.5802397728e+00
    7.1696670532e+01    7.6077299118e+00
    7.1798141479e+01    7.6358499527e+00
    7.1896690369e+01    7.6629805565e+00
    7.1998115540e+01    7.6906599998e+00
    7.2097534180e+01    7.7178301811e+00
    7.2196853638e+01    7.7448096275e+00
    7.2298370361e+01    7.7722401619e+00
    7.2397949219e+01    7.7990694046e+00
    7.2499389648e+01    7.8263201714e+00
    7.2597946167e+01    7.8527197838e+00
    7.2699356079e+01    7.8797998428e+00
    7.2797828674e+01    7.9060502052e+00
    7.2899055481e+01    7.9329099655e+00
    7.2996826172e+01    7.9586997032e+00
    7.3097061157e+01    7.9851799011e+00
    7.3197174072e+01    8.0115299225e+00
    7.3298583984e+01    8.0381908417e+00
    7.3397590637e+01    8.0641403198e+00
    7.3497947693e+01    8.0903797150e+00
    7.3596824646e+01    8.1162700653e+00
    7.3698204041e+01    8.1427593231e+00
    7.3796669006e+01    8.1683902740e+00
    7.3898017883e+01    8.1947994232e+00
    7.3996559143e+01    8.2204189301e+00
    7.4097869873e+01    8.2466602325e+00
    7.4198799133e+01    8.2727394104e+00
    7.4297157288e+01    8.2981500626e+00
    7.4398628235e+01    8.3242797852e+00
    7.4497062683e+01    8.3495502472e+00
    7.4597007751e+01    8.3752298355e+00
    7.4698799133e+01    8.4012393951e+00
    7.4797355652e+01    8.4262294769e+00
    7.4897003174e+01    8.4515199661e+00
    7.4997543335e+01    8.4768695831e+00
    7.5098121643e+01    8.5021896362e+00
    7.5198593140e+01    8.5273303986e+00
    7.5297058105e+01    8.5517997742e+00
    7.5397483826e+01    8.5767002106e+00
    7.5498275757e+01    8.6014699936e+00
    7.5598358154e+01    8.6260099411e+00
    7.5696479797e+01    8.6499700546e+00
    7.5798194885e+01    8.6745796204e+00
    7.5896682739e+01    8.6983699799e+00
    7.5996902466e+01    8.7224197388e+00
    7.6098403931e+01    8.7465705872e+00
    7.6199264526e+01    8.7704601288e+00
    7.6297813416e+01    8.7936801910e+00
    7.6399276733e+01    8.8174095154e+00
    7.6499114990e+01    8.8405704498e+00
    7.6597778320e+01    8.8634395599e+00
    7.6699279785e+01    8.8867397308e+00
    7.6797889709e+01    8.9092597961e+00
    7.6896522522e+01    8.9317607880e+00
    7.6997261047e+01    8.9544897079e+00
    7.7098182678e+01    8.9771499634e+00
    7.7197074890e+01    8.9993000031e+00
    7.7298988342e+01    9.0220203400e+00
    7.7398254395e+01    9.0439300537e+00
    7.7498970032e+01    9.0661106110e+00
    7.7598258972e+01    9.0879201889e+00
    7.7696952820e+01    9.1095294952e+00
    7.7798522949e+01    9.1315898895e+00
    7.7897163391e+01    9.1530694962e+00
    7.7998672485e+01    9.1750011444e+00
    7.8096832275e+01    9.1961994171e+00
    7.8199188232e+01    9.2182407379e+00
    7.8296745300e+01    9.2391099930e+00
    7.8397239685e+01    9.2606296539e+00
    7.8498985291e+01    9.2824201584e+00
    7.8597518921e+01    9.3034610748e+00
    7.8698905945e+01    9.3250808716e+00
    7.8797134399e+01    9.3459510803e+00
    7.8898582458e+01    9.3675003052e+00
    7.8996955872e+01    9.3883705139e+00
    7.9098747253e+01    9.4099597931e+00
    7.9196449280e+01    9.4305992126e+00
    7.9297119141e+01    9.4519004822e+00
    7.9396659851e+01    9.4729204178e+00
    7.9498184204e+01    9.4942903519e+00
    7.9597999573e+01    9.5153808594e+00
    7.9696594238e+01    9.5361099243e+00
    7.9798126221e+01    9.5574903488e+00
    7.9897415161e+01    9.5782403946e+00
    7.9998184204e+01    9.5993709564e+00
    8.0096794128e+01    9.6313190460e+00
    8.0199180603e+01    9.6646203995e+00
    8.0299003601e+01    9.6970500946e+00
    8.0397033691e+01    9.7287788391e+00
    8.0497505188e+01    9.7612400055e+00
    8.0596870422e+01    9.7932605743e+00
    8.0698944092e+01    9.8260097504e+00
    8.0798385620e+01    9.8578987122e+00
    8.0897232056e+01    9.8893594742e+00
    8.0998184204e+01    9.9214191437e+00
    8.1098243713e+01    9.9531402588e+00
    8.1197662354e+01    9.9844303131e+00
    8.1299293518e+01    1.0016260147e+01
    8.1398757935e+01    1.0047349930e+01
    8.1498016357e+01    1.0078159332e+01
    8.1598648071e+01    1.0109259605e+01
    8.1698013306e+01    1.0139841080e+01
    8.1796699524e+01    1.0170101166e+01
    8.1898262024e+01    1.0201049805e+01
    8.1996902466e+01    1.0230940819e+01
    8.2099266052e+01    1.0261849403e+01
    8.2198585510e+01    1.0291769981e+01
    8.2297119141e+01    1.0321240425e+01
    8.2396781921e+01    1.0351029396e+01
    8.2498329163e+01    1.0381270409e+01
    8.2596969604e+01    1.0410499573e+01
    8.2698471069e+01    1.0440560341e+01
    8.2797027588e+01    1.0469638824e+01
    8.2898483276e+01    1.0499441147e+01
    8.2999084473e+01    1.0528950691e+01
    8.3096488953e+01    1.0557420731e+01
    8.3196487427e+01    1.0586629868e+01
    8.3297966003e+01    1.0616160393e+01
    8.3396858215e+01    1.0644948959e+01
    8.3496849060e+01    1.0674020767e+01
    8.3598541260e+01    1.0703550339e+01
    8.3697082520e+01    1.0732150078e+01
    8.3798507690e+01    1.0761509895e+01
    8.3897033691e+01    1.0789949417e+01
    8.3998573303e+01    1.0819290161e+01
    8.4096755981e+01    1.0847669601e+01
    8.4197944641e+01    1.0876750946e+01
    8.4296394348e+01    1.0905060768e+01
    8.4397941589e+01    1.0934199333e+01
    8.4496452332e+01    1.0962379456e+01
    8.4596809387e+01    1.0991120338e+01
    8.4698425293e+01    1.1020039558e+01
    8.4797088623e+01    1.1048030853e+01
    8.4896705627e+01    1.1076279640e+01
    8.4997116089e+01    1.1104650497e+01
    8.5097579956e+01    1.1132879257e+01
    8.5197616577e+01    1.1160861015e+01
    8.5296203613e+01    1.1188340187e+01
    8.5396934509e+01    1.1216219902e+01
    8.5497657776e+01    1.1244071007e+01
    8.5597854614e+01    1.1271579742e+01
    8.5698532104e+01    1.1299170494e+01
    8.5797813416e+01    1.1326149940e+01
    8.5896377563e+01    1.1352839470e+01
    8.5997039795e+01    1.1379909515e+01
    8.6098609924e+01    1.1407100677e+01
    8.6196571350e+01    1.1433180809e+01
    8.6298088074e+01    1.1460080147e+01
    8.6396728516e+01    1.1486010551e+01
    8.6497428894e+01    1.1512320518e+01
    8.6596443176e+01    1.1538109779e+01
    8.6698013306e+01    1.1564390182e+01
    8.6796707153e+01    1.1589820862e+01
    8.6898315430e+01    1.1615799904e+01
    8.6998779297e+01    1.1641369820e+01
    8.7096687317e+01    1.1666110039e+01
    8.7198814392e+01    1.1691868782e+01
    8.7297546387e+01    1.1716629028e+01
    8.7396362305e+01    1.1741250038e+01
    8.7496994019e+01    1.1766249657e+01
    8.7596382141e+01    1.1790800095e+01
    8.7698097229e+01    1.1815900803e+01
    8.7796867371e+01    1.1840200424e+01
    8.7898521423e+01    1.1865200996e+01
    8.7997230530e+01    1.1889299393e+01
    8.8098396301e+01    1.1914000511e+01
    8.8197509766e+01    1.1937998772e+01
    8.8297859192e+01    1.1962499619e+01
    8.8397262573e+01    1.1986600876e+01
    8.8498840332e+01    1.2011199951e+01
    8.8597473145e+01    1.2035000801e+01
    8.8698944092e+01    1.2059500694e+01
    8.8797798157e+01    1.2083399773e+01
    8.8896240234e+01    1.2107099533e+01
    8.8997772217e+01    1.2131600380e+01
    8.9096260071e+01    1.2155301094e+01
    8.9196746826e+01    1.2179499626e+01
    8.9297241211e+01    1.2203700066e+01
    8.9399078369e+01    1.2228199959e+01
    8.9497581482e+01    1.2251900673e+01
    8.9597274780e+01    1.2275799751e+01
    8.9698837280e+01    1.2300200462e+01
    8.9797538757e+01    1.2323800087e+01
    8.9896286011e+01    1.2347399712e+01
    8.9996917725e+01    1.2371399879e+01
    9.0098526001e+01    1.2409999847e+01
    9.0197662354e+01    1.2447900772e+01
    9.0297492981e+01    1.2486000061e+01
    9.0398429871e+01    1.2524500847e+01
    9.0498687744e+01    1.2562600136e+01
    9.0598045349e+01    1.2600399971e+01
    9.0697341919e+01    1.2637999535e+01
    9.0796890259e+01    1.2675400734e+01
    9.0898941040e+01    1.2713800430e+01
    9.0997215271e+01    1.2750699043e+01
    9.1097610474e+01    1.2788099289e+01
    9.1196975708e+01    1.2825000763e+01
    9.1298728943e+01    1.2862798691e+01
    9.1398193359e+01    1.2899399757e+01
    9.1497718811e+01    1.2935899734e+01
    9.1598068237e+01    1.2972600937e+01
    9.1697769165e+01    1.3008799553e+01
    9.1796569824e+01    1.3044600487e+01
    9.1898254395e+01    1.3081398964e+01
    9.1997001648e+01    1.3116801262e+01
    9.2096206665e+01    1.3152298927e+01
    9.2198371887e+01    1.3188800812e+01
    9.2296989441e+01    1.3223798752e+01
    9.2396743774e+01    1.3259199142e+01
    9.2498359680e+01    1.3295099258e+01
    9.2597076416e+01    1.3329900742e+01
    9.2698646545e+01    1.3365600586e+01
    9.2797256470e+01    1.3400198936e+01
    9.2898628235e+01    1.3435600281e+01
    9.2999099731e+01    1.3470600128e+01
    9.3096504211e+01    1.3504600525e+01
    9.3196578979e+01    1.3539401054e+01
    9.3298126221e+01    1.3574700356e+01
    9.3396736145e+01    1.3608899117e+01
    9.3496719360e+01    1.3643600464e+01
    9.3598266602e+01    1.3678800583e+01
    9.3696891785e+01    1.3712901115e+01
    9.3798408508e+01    1.3748200417e+01
    9.3897033691e+01    1.3782198906e+01
    9.3998863220e+01    1.3817499161e+01
    9.4096923828e+01    1.3851299286e+01
    9.4197853088e+01    1.3886199951e+01
    9.4296401978e+01    1.3920200348e+01
    9.4397918701e+01    1.3955201149e+01
    9.4496528625e+01    1.3989099503e+01
    9.4597923279e+01    1.4024000168e+01
    9.4698951721e+01    1.4058600426e+01
    9.4797721863e+01    1.4092398643e+01
    9.4897262573e+01    1.4126400948e+01
    9.4997543335e+01    1.4160499573e+01
    9.5097877502e+01    1.4194500923e+01
    9.5197532654e+01    1.4228199005e+01
    9.5296211243e+01    1.4261501312e+01
    9.5397621155e+01    1.4295500755e+01
    9.5498245239e+01    1.4329099655e+01
    9.5598564148e+01    1.4362400055e+01
    9.5698234558e+01    1.4395500183e+01
    9.5798896790e+01    1.4428700447e+01
    9.5897514343e+01    1.4460999489e+01
    9.5998237610e+01    1.4493899345e+01
    9.6096794128e+01    1.4525999069e+01
    9.6197540283e+01    1.4558499336e+01
    9.6296234131e+01    1.4590298653e+01
    9.6397842407e+01    1.4622800827e+01
    9.6498649597e+01    1.4654899597e+01
    9.6597656250e+01    1.4686299324e+01
    9.6696395874e+01    1.4717300415e+01
    9.6798065186e+01    1.4749100685e+01
    9.6896850586e+01    1.4779899597e+01
    9.6998130798e+01    1.4811399460e+01
    9.7098793030e+01    1.4842399597e+01
    9.7197608948e+01    1.4872800827e+01
    9.7296424866e+01    1.4902999878e+01
    9.7398498535e+01    1.4934100151e+01
    9.7499061584e+01    1.4964700699e+01
    9.7598541260e+01    1.4994699478e+01
    9.7697456360e+01    1.5024599075e+01
    9.7796340942e+01    1.5054200172e+01
    9.7898101807e+01    1.5084799767e+01
    9.7996917725e+01    1.5114400864e+01
    9.8097290039e+01    1.5144299507e+01
    9.8198738098e+01    1.5174600601e+01
    9.8298004150e+01    1.5204100609e+01
    9.8396781921e+01    1.5233399391e+01
    9.8498451233e+01    1.5263599396e+01
    9.8597175598e+01    1.5292900085e+01
    9.8698730469e+01    1.5323000908e+01
    9.8798194885e+01    1.5352398872e+01
    9.8896713257e+01    1.5381599426e+01
    9.8998306274e+01    1.5411699295e+01
    9.9096656799e+01    1.5440799713e+01
    9.9196929932e+01    1.5470499992e+01
    9.9297218323e+01    1.5500201225e+01
    9.9398681641e+01    1.5530100822e+01
    9.9497253418e+01    1.5559201241e+01
    9.9597183228e+01    1.5588800430e+01
    9.9698814392e+01    1.5618800163e+01
    9.9797599792e+01    1.5647900581e+01
    9.9897293091e+01    1.5677299500e+01
    9.9997817993e+01    1.5706900597e+01
    1.0009641266e+02    1.5752799034e+01
    1.0019843292e+02    1.5800601006e+01
    1.0029827881e+02    1.5847399712e+01
    1.0039640808e+02    1.5893199921e+01
    1.0049726105e+02    1.5940299988e+01
    1.0059674835e+02    1.5986499786e+01
    1.0069609070e+02    1.6032600403e+01
    1.0079869080e+02    1.6080101013e+01
    1.0089778137e+02    1.6125900269e+01
    1.0099626923e+02    1.6171199799e+01
    1.0109673309e+02    1.6217197418e+01
    1.0119641113e+02    1.6262798309e+01
    1.0129830170e+02    1.6309301376e+01
    1.0139785767e+02    1.6354398727e+01
    1.0149732208e+02    1.6399400711e+01
    1.0159741211e+02    1.6444501877e+01
    1.0169705200e+02    1.6489198685e+01
    1.0179888916e+02    1.6534700394e+01
    1.0189777374e+02    1.6578599930e+01
    1.0199662018e+02    1.6622499466e+01
    1.0209867859e+02    1.6667600632e+01
    1.0219799805e+02    1.6711400986e+01
    1.0229669952e+02    1.6754701614e+01
    1.0239669800e+02    1.6798500061e+01
    1.0249839783e+02    1.6842998505e+01
    1.0259719086e+02    1.6885999680e+01
    1.0269882965e+02    1.6930198669e+01
    1.0279752350e+02    1.6973100662e+01
    1.0289864349e+02    1.7016799927e+01
    1.0299604034e+02    1.7058900833e+01
    1.0309616852e+02    1.7102201462e+01
    1.0319632721e+02    1.7145401001e+01
    1.0329797363e+02    1.7189102173e+01
    1.0339668274e+02    1.7231601715e+01
    1.0349714661e+02    1.7274801254e+01
    1.0359880829e+02    1.7318599701e+01
    1.0369754791e+02    1.7361000061e+01
    1.0379627991e+02    1.7403400421e+01
    1.0389791870e+02    1.7447101593e+01
    1.0399665833e+02    1.7489501953e+01
    1.0409773254e+02    1.7532798767e+01
    1.0419876862e+02    1.7576299667e+01
    1.0429740906e+02    1.7618600845e+01
    1.0439866638e+02    1.7661901474e+01
    1.0449736786e+02    1.7704200745e+01
    1.0459880066e+02    1.7747600555e+01
    1.0469856262e+02    1.7790199280e+01
    1.0479743195e+02    1.7832298279e+01
    1.0489691925e+02    1.7874601364e+01
    1.0499703979e+02    1.7916997910e+01
    1.0509722900e+02    1.7959398270e+01
    1.0519770050e+02    1.8001699448e+01
    1.0529646301e+02    1.8043100357e+01
    1.0539820099e+02    1.8085700989e+01
    1.0549873352e+02    1.8127700806e+01
    1.0559615326e+02    1.8168100357e+01
    1.0569606781e+02    1.8209299088e+01
    1.0579656982e+02    1.8250801086e+01
    1.0589814758e+02    1.8292297363e+01
    1.0599873352e+02    1.8333299637e+01
    1.0609732819e+02    1.8373300552e+01
    1.0619795990e+02    1.8413900375e+01
    1.0629669952e+02    1.8453500748e+01
    1.0639804077e+02    1.8494001389e+01
    1.0649609375e+02    1.8532999039e+01
    1.0659844971e+02    1.8573501587e+01
    1.0669728088e+02    1.8612400055e+01
    1.0679612732e+02    1.8651100159e+01
    1.0689791870e+02    1.8690698624e+01
    1.0699629211e+02    1.8728899002e+01
    1.0709712982e+02    1.8767801285e+01
    1.0719609833e+02    1.8805898666e+01
    1.0729839325e+02    1.8844999313e+01
    1.0739832306e+02    1.8883100510e+01
    1.0749881744e+02    1.8921197891e+01
    1.0759844971e+02    1.8958799362e+01
    1.0769750214e+02    1.8996198654e+01
    1.0779651642e+02    1.9033500671e+01
    1.0789842224e+02    1.9071701050e+01
    1.0799735260e+02    1.9108800888e+01
    1.0809693146e+02    1.9145998001e+01
    1.0819715881e+02    1.9183298111e+01
    1.0829608917e+02    1.9220100403e+01
    1.0839785767e+02    1.9257999420e+01
    1.0849671936e+02    1.9294698715e+01
    1.0859844971e+02    1.9332498550e+01
    1.0869719696e+02    1.9369098663e+01
    1.0879640198e+02    1.9405899048e+01
    1.0889808655e+02    1.9443500519e+01
    1.0899668884e+02    1.9480001450e+01
    1.0909715271e+02    1.9517299652e+01
    1.0919722748e+02    1.9554300308e+01
    1.0929731750e+02    1.9591300964e+01
    1.0939640808e+02    1.9627899170e+01
    1.0949816132e+02    1.9665498734e+01
    1.0959810638e+02    1.9702501297e+01
    1.0969696045e+02    1.9739000320e+01
    1.0979878998e+02    1.9776599884e+01
    1.0989733124e+02    1.9812902451e+01
    1.0999887085e+02    1.9850299835e+01
    1.1009745026e+02    1.9907402039e+01
    1.1019689941e+02    1.9965101242e+01
    1.1029682159e+02    2.0023101807e+01
    1.1039808655e+02    2.0081699371e+01
    1.1049884033e+02    2.0139902115e+01
    1.1059845734e+02    2.0197399139e+01
    1.1069803619e+02    2.0254598618e+01
    1.1079779053e+02    2.0311800003e+01
    1.1089704895e+02    2.0368598938e+01
    1.1099852753e+02    2.0426601410e+01
    1.1109597778e+02    2.0482002258e+01
    1.1119873047e+02    2.0540300369e+01
    1.1129786682e+02    2.0596300125e+01
    1.1139753723e+02    2.0652400970e+01
    1.1149681091e+02    2.0708198547e+01
    1.1159700012e+02    2.0764101028e+01
    1.1169679260e+02    2.0819801331e+01
    1.1179875946e+02    2.0876298904e+01
    1.1189824677e+02    2.0931299210e+01
    1.1199723053e+02    2.0985799789e+01
    1.1209626770e+02    2.1040199280e+01
    1.1219869995e+02    2.1096097946e+01
    1.1229750061e+02    2.1150100708e+01
    1.1239778137e+02    2.1204700470e+01
    1.1249667358e+02    2.1258398056e+01
    1.1259848022e+02    2.1313398361e+01
    1.1269731140e+02    2.1366701126e+01
    1.1279609680e+02    2.1420000076e+01
    1.1289774323e+02    2.1474597931e+01
    1.1299800110e+02    2.1528402328e+01
    1.1309828949e+02    2.1582101822e+01
    1.1319838715e+02    2.1635599136e+01
    1.1329725647e+02    2.1688501358e+01
    1.1339608765e+02    2.1741199493e+01
    1.1349697113e+02    2.1795101166e+01
    1.1359876251e+02    2.1849302292e+01
    1.1369763184e+02    2.1901998520e+01
    1.1379649353e+02    2.1954601288e+01
    1.1389826202e+02    2.2008897781e+01
    1.1399745178e+02    2.2061700821e+01
    1.1409829712e+02    2.2115299225e+01
    1.1419690704e+02    2.2167798996e+01
    1.1429875946e+02    2.2221799850e+01
    1.1439685822e+02    2.2273900986e+01
    1.1449875641e+02    2.2327999115e+01
    1.1459683228e+02    2.2379898071e+01
    1.1469642639e+02    2.2432500839e+01
    1.1479830170e+02    2.2486200333e+01
    1.1489778900e+02    2.2538499832e+01
    1.1499771881e+02    2.2590999603e+01
    1.1509774017e+02    2.2643201828e+01
    1.1519731140e+02    2.2695100784e+01
    1.1529617310e+02    2.2746398926e+01
    1.1539814758e+02    2.2799100876e+01
    1.1549604034e+02    2.2849401474e+01
    1.1559696198e+02    2.2901199341e+01
    1.1569770050e+02    2.2952602386e+01
    1.1579734039e+02    2.3003200531e+01
    1.1589608765e+02    2.3053098679e+01
    1.1599674988e+02    2.3103698730e+01
    1.1609851074e+02    2.3154600143e+01
    1.1619590759e+02    2.3203001022e+01
    1.1629765320e+02    2.3253501892e+01
    1.1639611816e+02    2.3302000046e+01
    1.1649617767e+02    2.3350902557e+01
    1.1659871674e+02    2.3400897980e+01
    1.1669767761e+02    2.3448900223e+01
    1.1679666901e+02    2.3496601105e+01
    1.1689859009e+02    2.3545598984e+01
    1.1699732208e+02    2.3592798233e+01
    1.1709819031e+02    2.3640701294e+01
    1.1719770813e+02    2.3687799454e+01
    1.1729747009e+02    2.3734800339e+01
    1.1739778900e+02    2.3781900406e+01
    1.1749823761e+02    2.3828798294e+01
    1.1759802246e+02    2.3875299454e+01
    1.1769725037e+02    2.3921401978e+01
    1.1779644775e+02    2.3967201233e+01
    1.1789852142e+02    2.4014400482e+01
    1.1799761200e+02    2.4059902191e+01
    1.1809664917e+02    2.4105401993e+01
    1.1819857025e+02    2.4152200699e+01
    1.1829756927e+02    2.4197401047e+01
    1.1839659119e+02    2.4242498398e+01
    1.1849851227e+02    2.4289001465e+01
    1.1859748840e+02    2.4334098816e+01
    1.1869638824e+02    2.4378999710e+01
    1.1879844666e+02    2.4425500870e+01
    1.1889718628e+02    2.4470300674e+01
    1.1899591064e+02    2.4515100479e+01
    1.1909710693e+02    2.4560998917e+01
    1.1919700623e+02    2.4606302261e+01
    1.1929694366e+02    2.4651500702e+01
    1.1939716339e+02    2.4696901321e+01
    1.1949597168e+02    2.4741600037e+01
    1.1959858704e+02    2.4788099289e+01
    1.1969763947e+02    2.4832799911e+01
    1.1979670715e+02    2.4877500534e+01
    1.1989584351e+02    2.4922199249e+01
    1.1999723053e+02    2.4967899323e+01
    1.2009609985e+02    2.5034900665e+01
    1.2019564819e+02    2.5103101730e+01
    1.2029586029e+02    2.5171499252e+01
    1.2039730072e+02    2.5240697861e+01
    1.2049788666e+02    2.5309099197e+01
    1.2059765625e+02    2.5376798630e+01
    1.2069728851e+02    2.5444299698e+01
    1.2079715729e+02    2.5511701584e+01
    1.2089642334e+02    2.5578498840e+01
    1.2099806976e+02    2.5646699905e+01
    1.2109584808e+02    2.5711999893e+01
    1.2119602966e+02    2.5778900146e+01
    1.2129643250e+02    2.5845500946e+01
    1.2139623260e+02    2.5911600113e+01
    1.2149800110e+02    2.5978597641e+01
    1.2159812927e+02    2.6044301987e+01
    1.2169751740e+02    2.6109300613e+01
    1.2179673004e+02    2.6173700333e+01
    1.2189659119e+02    2.6238401413e+01
    1.2199864197e+02    2.6304300308e+01
    1.2209774017e+02    2.6368000031e+01
    1.2219712830e+02    2.6431600571e+01
    1.2229606628e+02    2.6494800568e+01
    1.2239723206e+02    2.6559099197e+01
    1.2249627686e+02    2.6621900558e+01
    1.2259824371e+02    2.6686399460e+01
    1.2269721985e+02    2.6748800278e+01
    1.2279615021e+02    2.6810998917e+01
    1.2289792633e+02    2.6874801636e+01
    1.2299790192e+02    2.6937301636e+01
    1.2309812164e+02    2.6999799728e+01
    1.2319837952e+02    2.7062200546e+01
    1.2329740143e+02    2.7123802185e+01
    1.2339640045e+02    2.7185401917e+01
    1.2349739838e+02    2.7248001099e+01
    1.2359644318e+02    2.7309398651e+01
    1.2369834900e+02    2.7372499466e+01
    1.2379734039e+02    2.7433700562e+01
    1.2389633942e+02    2.7494899750e+01
    1.2399862671e+02    2.7558000565e+01
    1.2409597778e+02    2.7617998123e+01
    1.2419818115e+02    2.7680999756e+01
    1.2429708862e+02    2.7741802216e+01
    1.2439604187e+02    2.7802598953e+01
    1.2449810028e+02    2.7865301132e+01
    1.2459866333e+02    2.7926799774e+01
    1.2469802094e+02    2.7987499237e+01
    1.2479712677e+02    2.8047899246e+01
    1.2489721680e+02    2.8108602524e+01
    1.2499693298e+02    2.8168897629e+01
    1.2509674072e+02    2.8229101181e+01
    1.2519627380e+02    2.8288799286e+01
    1.2529804230e+02    2.8349700928e+01
    1.2539710236e+02    2.8408601761e+01
    1.2549848175e+02    2.8468601227e+01
    1.2559779358e+02    2.8527198792e+01
    1.2569674683e+02    2.8585201263e+01
    1.2579627228e+02    2.8643302917e+01
    1.2589810181e+02    2.8702400208e+01
    1.2599584198e+02    2.8758899689e+01
    1.2609777069e+02    2.8817401886e+01
    1.2619818878e+02    2.8874797821e+01
    1.2629826355e+02    2.8931499481e+01
    1.2639833069e+02    2.8987998962e+01
    1.2649697113e+02    2.9043399811e+01
    1.2659825134e+02    2.9099998474e+01
    1.2669740295e+02    2.9154998779e+01
    1.2679657745e+02    2.9209697723e+01
    1.2689576721e+02    2.9264301300e+01
    1.2699786377e+02    2.9319999695e+01
    1.2709593201e+02    2.9373397827e+01
    1.2719586945e+02    2.9427299500e+01
    1.2729583740e+02    2.9481201172e+01
    1.2739585114e+02    2.9534702301e+01
    1.2749623108e+02    2.9588298798e+01
    1.2759603119e+02    2.9641300201e+01
    1.2769841766e+02    2.9695400238e+01
    1.2779785156e+02    2.9747898102e+01
    1.2789723206e+02    2.9800098419e+01
    1.2799653625e+02    2.9852100372e+01
    1.2809631348e+02    2.9904300690e+01
    1.2819665527e+02    2.9956501007e+01
    1.2829588318e+02    3.0008098602e+01
    1.2839804077e+02    3.0061103821e+01
    1.2849728394e+02    3.0112400055e+01
    1.2859649658e+02    3.0163696289e+01
    1.2869854736e+02    3.0216400146e+01
    1.2879736328e+02    3.0267295837e+01
    1.2889633179e+02    3.0318199158e+01
    1.2899836731e+02    3.0370601654e+01
    1.2909622192e+02    3.0420898438e+01
    1.2919592285e+02    3.0472099304e+01
    1.2929858398e+02    3.0524703979e+01
    1.2939643860e+02    3.0574802399e+01
    1.2949858093e+02    3.0626995087e+01
    1.2959843445e+02    3.0678104401e+01
    1.2969607544e+02    3.0727897644e+01
    1.2979850769e+02    3.0780200958e+01
    1.2989788818e+02    3.0830799103e+01
    1.2999841309e+02    3.0881797791e+01
    1.3009725952e+02    3.0956802368e+01
    1.3019726562e+02    3.1033000946e+01
    1.3029771423e+02    3.1109195709e+01
    1.3039640808e+02    3.1184097290e+01
    1.3049732971e+02    3.1260402679e+01
    1.3059719849e+02    3.1335697174e+01
    1.3069697571e+02    3.1410701752e+01
    1.3079690552e+02    3.1485504150e+01
    1.3089837646e+02    3.1561298370e+01
    1.3099623108e+02    3.1634098053e+01
    1.3109761047e+02    3.1709300995e+01
    1.3119572449e+02    3.1781597137e+01
    1.3129827881e+02    3.1857002258e+01
    1.3139822388e+02    3.1930103302e+01
    1.3149719238e+02    3.2002201080e+01
    1.3159745789e+02    3.2074897766e+01
    1.3169688416e+02    3.2146499634e+01
    1.3179627991e+02    3.2217800140e+01
    1.3189637756e+02    3.2289199829e+01
    1.3199879456e+02    3.2361900330e+01
    1.3209808350e+02    3.2432201385e+01
    1.3219775391e+02    3.2502296448e+01
    1.3229690552e+02    3.2571804047e+01
    1.3239843750e+02    3.2642795563e+01
    1.3249768066e+02    3.2711799622e+01
    1.3259692383e+02    3.2780597687e+01
    1.3269609070e+02    3.2849102020e+01
    1.3279812622e+02    3.2919296265e+01
    1.3289715576e+02    3.2987201691e+01
    1.3299708557e+02    3.3055595398e+01
    1.3309721375e+02    3.3123802185e+01
    1.3319749451e+02    3.3192100525e+01
    1.3329670715e+02    3.3259502411e+01
    1.3339878845e+02    3.3328697205e+01
    1.3349740601e+02    3.3395401001e+01
    1.3359660339e+02    3.3462398529e+01
    1.3369868469e+02    3.3531200409e+01
    1.3379783630e+02    3.3597999573e+01
    1.3389700317e+02    3.3664703369e+01
    1.3399871826e+02    3.3733001709e+01
    1.3409791565e+02    3.3799499512e+01
    1.3419795227e+02    3.3866497040e+01
    1.3429705811e+02    3.3932704926e+01
    1.3439614868e+02    3.3998802185e+01
    1.3449836731e+02    3.4066802979e+01
    1.3459866333e+02    3.4133296967e+01
    1.3469790649e+02    3.4199001312e+01
    1.3479722595e+02    3.4264495850e+01
    1.3489712524e+02    3.4330101013e+01
    1.3499661255e+02    3.4395298004e+01
    1.3509623718e+02    3.4460197449e+01
    1.3519889832e+02    3.4526798248e+01
    1.3529789734e+02    3.4590698242e+01
    1.3539724731e+02    3.4654499054e+01
    1.3549644470e+02    3.4718002319e+01
    1.3559886169e+02    3.4783100128e+01
    1.3569735718e+02    3.4845401764e+01
    1.3579658508e+02    3.4907802582e+01
    1.3589863586e+02    3.4971698761e+01
    1.3599894714e+02    3.5034004211e+01
    1.3609800720e+02    3.5095199585e+01
    1.3619635010e+02    3.5155601501e+01
    1.3629757690e+02    3.5217399597e+01
    1.3639764404e+02    3.5278099060e+01
    1.3649685669e+02    3.5338005066e+01
    1.3659835815e+02    3.5398799896e+01
    1.3669772339e+02    3.5458000183e+01
    1.3679710388e+02    3.5516803741e+01
    1.3689649963e+02    3.5575401306e+01
    1.3699801636e+02    3.5634899139e+01
    1.3709744263e+02    3.5692699432e+01
    1.3719804382e+02    3.5750900269e+01
    1.3729844666e+02    3.5808700562e+01
    1.3739845276e+02    3.5865901947e+01
    1.3749873352e+02    3.5923000336e+01
    1.3759858704e+02    3.5979701996e+01
    1.3769830322e+02    3.6035896301e+01
    1.3779800415e+02    3.6092002869e+01
    1.3789762878e+02    3.6147800446e+01
    1.3799719238e+02    3.6203399658e+01
    1.3809832764e+02    3.6259601593e+01
    1.3819886780e+02    3.6315299988e+01
    1.3829821777e+02    3.6370101929e+01
    1.3839749146e+02    3.6424797058e+01
    1.3849670410e+02    3.6479400635e+01
    1.3859907532e+02    3.6535499573e+01
    1.3869848633e+02    3.6589801788e+01
    1.3879812622e+02    3.6644199371e+01
    1.3889735413e+02    3.6698303223e+01
    1.3899655151e+02    3.6752300262e+01
    1.3909751892e+02    3.6807201385e+01
    1.3919696045e+02    3.6861202240e+01
    1.3929641724e+02    3.6915103912e+01
    1.3939691162e+02    3.6969501495e+01
    1.3949929810e+02    3.7024803162e+01
    1.3959913635e+02    3.7078598022e+01
    1.3969635010e+02    3.7130897522e+01
    1.3979904175e+02    3.7186100006e+01
    1.3989779663e+02    3.7238903046e+01
    1.3999772644e+02    3.7292304993e+01
    1.4009678650e+02    3.7369201660e+01
    1.4019720459e+02    3.7447597504e+01
    1.4029762268e+02    3.7525703430e+01
    1.4039637756e+02    3.7602203369e+01
    1.4049839783e+02    3.7680995941e+01
    1.4059843445e+02    3.7758098602e+01
    1.4069837952e+02    3.7834701538e+01
    1.4079846191e+02    3.7911205292e+01
    1.4089915466e+02    3.7987705231e+01
    1.4099670410e+02    3.8061599731e+01
    1.4109852600e+02    3.8138298035e+01
    1.4119778442e+02    3.8212802887e+01
    1.4129908752e+02    3.8288398743e+01
    1.4139923096e+02    3.8362701416e+01
    1.4149645996e+02    3.8434402466e+01
    1.4159671021e+02    3.8507999420e+01
    1.4169926453e+02    3.8582702637e+01
    1.4179884338e+02    3.8654903412e+01
    1.4189903259e+02    3.8727104187e+01
    1.4199874878e+02    3.8798503876e+01
    1.4209823608e+02    3.8869400024e+01
    1.4219827271e+02    3.8940299988e+01
    1.4229757690e+02    3.9010398865e+01
    1.4239945984e+02    3.9081901550e+01
    1.4249888611e+02    3.9151397705e+01
    1.4259843445e+02    3.9220703125e+01
    1.4269778442e+02    3.9289497375e+01
    1.4279704285e+02    3.9357997894e+01
    1.4289918518e+02    3.9428199768e+01
    1.4299882507e+02    3.9496398926e+01
    1.4309904480e+02    3.9564796448e+01
    1.4319660950e+02    3.9631099701e+01
    1.4329893494e+02    3.9700599670e+01
    1.4339813232e+02    3.9767799377e+01
    1.4349688721e+02    3.9834499359e+01
    1.4359902954e+02    3.9903297424e+01
    1.4369813538e+02    3.9970096588e+01
    1.4379718018e+02    4.0036502838e+01
    1.4389906311e+02    4.0104896545e+01
    1.4399838257e+02    4.0171302795e+01
    1.4409762573e+02    4.0237503052e+01
    1.4419741821e+02    4.0304000854e+01
    1.4429930115e+02    4.0371696472e+01
    1.4439808655e+02    4.0437297821e+01
    1.4449690247e+02    4.0502601624e+01
    1.4459724426e+02    4.0568801880e+01
    1.4469912720e+02    4.0635696411e+01
    1.4479847717e+02    4.0700801849e+01
    1.4489784241e+02    4.0765598297e+01
    1.4499708557e+02    4.0830097198e+01
    1.4509939575e+02    4.0896102905e+01
    1.4519889832e+02    4.0960098267e+01
    1.4529689026e+02    4.1022800446e+01
    1.4539659119e+02    4.1086200714e+01
    1.4549940491e+02    4.1151199341e+01
    1.4559890747e+02    4.1213901520e+01
    1.4569757080e+02    4.1275505066e+01
    1.4579705811e+02    4.1337398529e+01
    1.4589936829e+02    4.1400505066e+01
    1.4599685669e+02    4.1460300446e+01
    1.4609925842e+02    4.1522804260e+01
    1.4619770813e+02    4.1582401276e+01
    1.4629891968e+02    4.1643398285e+01
    1.4639865112e+02    4.1702896118e+01
    1.4649757385e+02    4.1761604309e+01
    1.4659890747e+02    4.1821399689e+01
    1.4669848633e+02    4.1879703522e+01
    1.4679806519e+02    4.1937602997e+01
    1.4689761353e+02    4.1995197296e+01
    1.4699760437e+02    4.2052501678e+01
    1.4709765625e+02    4.2109603882e+01
    1.4719848633e+02    4.2166702271e+01
    1.4729911804e+02    4.2223400116e+01
    1.4739939880e+02    4.2279499054e+01
    1.4749960327e+02    4.2335300446e+01
    1.4759954834e+02    4.2390602112e+01
    1.4769949341e+02    4.2445598602e+01
    1.4779939270e+02    4.2500404358e+01
    1.4789927673e+02    4.2554801941e+01
    1.4799908447e+02    4.2608997345e+01
    1.4809819031e+02    4.2662601471e+01
    1.4819799805e+02    4.2716297150e+01
    1.4829713440e+02    4.2769496918e+01
    1.4839907837e+02    4.2823902130e+01
    1.4849815369e+02    4.2876598358e+01
    1.4859788513e+02    4.2929603577e+01
    1.4869757080e+02    4.2982601166e+01
    1.4879777527e+02    4.3035301208e+01
    1.4889901733e+02    4.3088504791e+01
    1.4899789429e+02    4.3140796661e+01
    1.4909721375e+02    4.3192401886e+01
    1.4919915771e+02    4.3246200562e+01
    1.4929820251e+02    4.3298000336e+01
    1.4939784241e+02    4.3349796295e+01
    1.4949815369e+02    4.3401596069e+01
    1.4959732056e+02    4.3453800201e+01
    1.4969946289e+02    4.3506698608e+01
    1.4979916382e+02    4.3557899475e+01
    1.4989727783e+02    4.3608196259e+01
    1.4999972534e+02    4.3661201477e+01
    1.5009852600e+02    4.3735198975e+01
    1.5019892883e+02    4.3809703827e+01
    1.5029927063e+02    4.3884998322e+01
    1.5039811707e+02    4.3958103180e+01
    1.5049774170e+02    4.4031898499e+01
    1.5059834290e+02    4.4105903625e+01
    1.5069851685e+02    4.4179199219e+01
    1.5079872131e+02    4.4252101898e+01
    1.5089892578e+02    4.4325595856e+01
    1.5099935913e+02    4.4397399902e+01
    1.5109774780e+02    4.4468696594e+01
    1.5119700623e+02    4.4539501190e+01
    1.5129869080e+02    4.4611198425e+01
    1.5139784241e+02    4.4681201935e+01
    1.5149847412e+02    4.4751697540e+01
    1.5159919739e+02    4.4822498322e+01
    1.5169900513e+02    4.4891101837e+01
    1.5179873657e+02    4.4959400177e+01
    1.5189889526e+02    4.5027603149e+01
    1.5199873352e+02    4.5095897675e+01
    1.5209834290e+02    4.5163101196e+01
    1.5219880676e+02    4.5229598999e+01
    1.5229789734e+02    4.5295803070e+01
    1.5239924622e+02    4.5363296509e+01
    1.5249899292e+02    4.5428802490e+01
    1.5259887695e+02    4.5494796753e+01
    1.5269833374e+02    4.5559200287e+01
    1.5279774475e+02    4.5624298096e+01
    1.5290005493e+02    4.5690696716e+01
    1.5299955750e+02    4.5754104614e+01
    1.5309942627e+02    4.5818798065e+01
    1.5320007324e+02    4.5883003235e+01
    1.5329968262e+02    4.5946697235e+01
    1.5339871216e+02    4.6009101868e+01
    1.5349993896e+02    4.6073898315e+01
    1.5359887695e+02    4.6136199951e+01
    1.5369766235e+02    4.6199501038e+01
    1.5379922485e+02    4.6263397217e+01
    1.5389782715e+02    4.6324699402e+01
    1.5399966431e+02    4.6388900757e+01
    1.5409881592e+02    4.6451095581e+01
    1.5419761658e+02    4.6512702942e+01
    1.5429908752e+02    4.6576004028e+01
    1.5439747620e+02    4.6638000488e+01
    1.5449896240e+02    4.6699905396e+01
    1.5459909058e+02    4.6762802124e+01
    1.5469764709e+02    4.6822898865e+01
    1.5479989624e+02    4.6885993958e+01
    1.5489924622e+02    4.6946304321e+01
    1.5499812317e+02    4.7007095337e+01
    1.5510008240e+02    4.7068702698e+01
    1.5519926453e+02    4.7128395081e+01
    1.5529891968e+02    4.7188003540e+01
    1.5539839172e+02    4.7246498108e+01
    1.5549804688e+02    4.7305404663e+01
    1.5559742737e+02    4.7364295959e+01
    1.5569804382e+02    4.7423004150e+01
    1.5579777527e+02    4.7480598450e+01
    1.5589738464e+02    4.7538101196e+01
    1.5599783325e+02    4.7595794678e+01
    1.5609727478e+02    4.7651802063e+01
    1.5619941711e+02    4.7709999084e+01
    1.5629753113e+02    4.7764297485e+01
    1.5639733887e+02    4.7820404053e+01
    1.5649914551e+02    4.7875900269e+01
    1.5659881592e+02    4.7930404663e+01
    1.5669854736e+02    4.7985397339e+01
    1.5679826355e+02    4.8039100647e+01
    1.5689796448e+02    4.8092399597e+01
    1.5699757385e+02    4.8145401001e+01
    1.5709776306e+02    4.8198097229e+01
    1.5719868469e+02    4.8251197815e+01
    1.5729939270e+02    4.8303298950e+01
    1.5739967346e+02    4.8354797363e+01
    1.5749963379e+02    4.8406402588e+01
    1.5759965515e+02    4.8457595825e+01
    1.5769961548e+02    4.8508598328e+01
    1.5779951477e+02    4.8558395386e+01
    1.5789947510e+02    4.8608802795e+01
    1.5799940491e+02    4.8657997131e+01
    1.5809764099e+02    4.8706703186e+01
    1.5820002747e+02    4.8757301331e+01
    1.5829898071e+02    4.8806404114e+01
    1.5839779663e+02    4.8854499817e+01
    1.5850007629e+02    4.8904602051e+01
    1.5860003662e+02    4.8952499390e+01
    1.5869755554e+02    4.9000198364e+01
    1.5880044556e+02    4.9049804688e+01
    1.5889900208e+02    4.9096595764e+01
    1.5900042725e+02    4.9145401001e+01
    1.5909895325e+02    4.9193000793e+01
    1.5920042419e+02    4.9241500854e+01
    1.5929898071e+02    4.9288696289e+01
    1.5939840698e+02    4.9335403442e+01
    1.5949778748e+02    4.9381996155e+01
    1.5959934998e+02    4.9430900574e+01
    1.5969805908e+02    4.9477394104e+01
    1.5979974365e+02    4.9524696350e+01
    1.5989863586e+02    4.9570495605e+01
    1.6000053406e+02    4.9618095398e+01
    1.6009906006e+02    4.9686302185e+01
    1.6019934082e+02    4.9754196167e+01
    1.6029916382e+02    4.9821594238e+01
    1.6039791870e+02    4.9888595581e+01
    1.6049786377e+02    4.9955200195e+01
    1.6059939575e+02    5.0023803711e+01
    1.6069981384e+02    5.0089897156e+01
    1.6080000305e+02    5.0157096863e+01
    1.6090029907e+02    5.0222694397e+01
    1.6099771118e+02    5.0285903931e+01
    1.6109846497e+02    5.0351997375e+01
    1.6120046997e+02    5.0417404175e+01
    1.6129890442e+02    5.0480697632e+01
    1.6139944458e+02    5.0544898987e+01
    1.6149827576e+02    5.0607604980e+01
    1.6159930420e+02    5.0671104431e+01
    1.6169924927e+02    5.0734008789e+01
    1.6179910278e+02    5.0795509338e+01
    1.6189918518e+02    5.0857299805e+01
    1.6199902344e+02    5.0918098450e+01
    1.6209866333e+02    5.0978797913e+01
    1.6219996643e+02    5.1040191650e+01
    1.6229890442e+02    5.1099494934e+01
    1.6239979553e+02    5.1160003662e+01
    1.6249963379e+02    5.1219100952e+01
    1.6259974670e+02    5.1278404236e+01
    1.6269804382e+02    5.1336601257e+01
    1.6279859924e+02    5.1395500183e+01
    1.6289808655e+02    5.1453002930e+01
    1.6300056458e+02    5.1512992859e+01
    1.6310054016e+02    5.1570190430e+01
    1.6320062256e+02    5.1627998352e+01
    1.6330038452e+02    5.1685302734e+01
    1.6340011597e+02    5.1742500305e+01
    1.6349794006e+02    5.1798904419e+01
    1.6359959412e+02    5.1856300354e+01
    1.6369812012e+02    5.1913200378e+01
    1.6379937744e+02    5.1970001221e+01
    1.6390052795e+02    5.2027900696e+01
    1.6399870300e+02    5.2083000183e+01
    1.6409967041e+02    5.2139991760e+01
    1.6420057678e+02    5.2196800232e+01
    1.6430026245e+02    5.2252799988e+01
    1.6439811707e+02    5.2306892395e+01
    1.6449902344e+02    5.2363296509e+01
    1.6459872437e+02    5.2418701172e+01
    1.6469958496e+02    5.2474807739e+01
    1.6479811096e+02    5.2528800964e+01
    1.6489971924e+02    5.2584999084e+01
    1.6499804688e+02    5.2637901306e+01
    1.6509944153e+02    5.2692901611e+01
    1.6519812012e+02    5.2746498108e+01
    1.6529949951e+02    5.2800895691e+01
    1.6539848328e+02    5.2853302002e+01
    1.6550077820e+02    5.2907295227e+01
    1.6559991455e+02    5.2959701538e+01
    1.6570046997e+02    5.3012199402e+01
    1.6580044556e+02    5.3063400269e+01
    1.6590026855e+02    5.3115493774e+01
    1.6599803162e+02    5.3165100098e+01
    1.6610078430e+02    5.3217002869e+01
    1.6619909668e+02    5.3266799927e+01
    1.6629939270e+02    5.3316505432e+01
    1.6639916992e+02    5.3365806580e+01
    1.6649894714e+02    5.3415596008e+01
    1.6659872437e+02    5.3464096069e+01
    1.6669909668e+02    5.3512100220e+01
    1.6679891968e+02    5.3560691833e+01
    1.6689869690e+02    5.3607994080e+01
    1.6699838257e+02    5.3655090332e+01
    1.6709837341e+02    5.3701293945e+01
    1.6719935608e+02    5.3748298645e+01
    1.6730012512e+02    5.3795204163e+01
    1.6740025330e+02    5.3841094971e+01
    1.6750022888e+02    5.3885993958e+01
    1.6760023499e+02    5.3931404114e+01
    1.6770022583e+02    5.3976593018e+01
    1.6780007935e+02    5.4020706177e+01
    1.6789996338e+02    5.4064506531e+01
    1.6799894714e+02    5.4108901978e+01
    1.6809992981e+02    5.4153106689e+01
    1.6819903564e+02    5.4195709229e+01
    1.6830087280e+02    5.4239791870e+01
    1.6839961243e+02    5.4282691956e+01
    1.6849880981e+02    5.4325500488e+01
    1.6859889221e+02    5.4368492126e+01
    1.6869902039e+02    5.4411300659e+01
    1.6879899597e+02    5.4453201294e+01
    1.6890019226e+02    5.4496597290e+01
    1.6899842834e+02    5.4537696838e+01
    1.6909951782e+02    5.4581100464e+01
    1.6920059204e+02    5.4623405457e+01
    1.6929873657e+02    5.4664306641e+01
    1.6939808655e+02    5.4705795288e+01
    1.6950070190e+02    5.4748802185e+01
    1.6959881592e+02    5.4789398193e+01
    1.6969984436e+02    5.4831207275e+01
    1.6980093384e+02    5.4873802185e+01
    1.6989918518e+02    5.4913703918e+01
    1.7000041199e+02    5.4955604553e+01
    1.7010070801e+02    5.5017204285e+01
    1.7020014954e+02    5.5077301025e+01
    1.7029913330e+02    5.5138000488e+01
    1.7040078735e+02    5.5199195862e+01
    1.7050038147e+02    5.5259193420e+01
    1.7059931946e+02    5.5318199158e+01
    1.7070062256e+02    5.5379096985e+01
    1.7080021667e+02    5.5437103271e+01
    1.7089996338e+02    5.5496398926e+01
    1.7100004578e+02    5.5554794312e+01
    1.7110087585e+02    5.5613288879e+01
    1.7119897461e+02    5.5669799805e+01
    1.7130047607e+02    5.5728309631e+01
    1.7139909363e+02    5.5785095215e+01
    1.7149905396e+02    5.5841789246e+01
    1.7160076904e+02    5.5898704529e+01
    1.7169842529e+02    5.5953300476e+01
    1.7179838562e+02    5.6008895874e+01
    1.7190122986e+02    5.6065193176e+01
    1.7200105286e+02    5.6120307922e+01
    1.7210066223e+02    5.6174491882e+01
    1.7219992065e+02    5.6228202820e+01
    1.7229861450e+02    5.6281692505e+01
    1.7239880371e+02    5.6334808350e+01
    1.7249850464e+02    5.6387794495e+01
    1.7259887695e+02    5.6441101074e+01
    1.7269966125e+02    5.6494293213e+01
    1.7280107117e+02    5.6547904968e+01
    1.7290054321e+02    5.6600402832e+01
    1.7300007629e+02    5.6652397156e+01
    1.7310081482e+02    5.6704803467e+01
    1.7320054626e+02    5.6756103516e+01
    1.7330026245e+02    5.6807296753e+01
    1.7340069580e+02    5.6858795166e+01
    1.7349873352e+02    5.6909004211e+01
    1.7360037231e+02    5.6962005615e+01
    1.7369882202e+02    5.7012001038e+01
    1.7379991150e+02    5.7062995911e+01
    1.7390081787e+02    5.7114997864e+01
    1.7399867249e+02    5.7163993835e+01
    1.7409928894e+02    5.7215003967e+01
    1.7419975281e+02    5.7264991760e+01
    1.7430009460e+02    5.7314994812e+01
    1.7439906311e+02    5.7365005493e+01
    1.7449938965e+02    5.7415008545e+01
    1.7459956360e+02    5.7464988708e+01
    1.7469976807e+02    5.7513999939e+01
    1.7480075073e+02    5.7564002991e+01
    1.7490130615e+02    5.7612007141e+01
    1.7499894714e+02    5.7660003662e+01
    1.7509963989e+02    5.7708999634e+01
    1.7520054626e+02    5.7756996155e+01
    1.7530018616e+02    5.7804000854e+01
    1.7539854431e+02    5.7850997925e+01
    1.7550016785e+02    5.7899002075e+01
    1.7560113525e+02    5.7946006775e+01
    1.7569869995e+02    5.7992004395e+01
    1.7579899597e+02    5.8037002563e+01
    1.7589888000e+02    5.8083000183e+01
    1.7600088501e+02    5.8128997803e+01
    1.7610087585e+02    5.8173995972e+01
    1.7620086670e+02    5.8219001770e+01
    1.7629940796e+02    5.8263992310e+01
    1.7639942932e+02    5.8308006287e+01
    1.7649940491e+02    5.8350997925e+01
    1.7659934998e+02    5.8394996643e+01
    1.7669929504e+02    5.8436996460e+01
    1.7679924011e+02    5.8478996277e+01
    1.7689910889e+02    5.8522003174e+01
    1.7699890137e+02    5.8562995911e+01
    1.7709878540e+02    5.8605003357e+01
    1.7719978333e+02    5.8648010254e+01
    1.7729963684e+02    5.8687995911e+01
    1.7739955139e+02    5.8729003906e+01
    1.7749954224e+02    5.8769004822e+01
    1.7759953308e+02    5.8809997559e+01
    1.7769949341e+02    5.8849990845e+01
    1.7779942322e+02    5.8890007019e+01
    1.7789976501e+02    5.8929008484e+01
    1.7799899292e+02    5.8968002319e+01
    1.7810101318e+02    5.9008003235e+01
    1.7820033264e+02    5.9045997620e+01
    1.7829945374e+02    5.9084999084e+01
    1.7840133667e+02    5.9125000000e+01
    1.7850086975e+02    5.9163002014e+01
    1.7860093689e+02    5.9200996399e+01
    1.7869949341e+02    5.9238998413e+01
    1.7879885864e+02    5.9277000427e+01
    1.7890013123e+02    5.9316001892e+01
    1.7900125122e+02    5.9354003906e+01
    1.7909939575e+02    5.9390991211e+01
    1.7920033264e+02    5.9429992676e+01
    1.7930116272e+02    5.9468002319e+01
    1.7940115356e+02    5.9504997253e+01
    1.7950016785e+02    5.9542007446e+01
    1.7960073853e+02    5.9580001831e+01
    1.7970123291e+02    5.9617004395e+01
    1.7980169678e+02    5.9654006958e+01
    1.7989927673e+02    5.9691001892e+01
    1.7999972534e+02    5.9727005005e+01
    1.8009909058e+02    5.9780990601e+01
    1.8020074463e+02    5.9836006165e+01
    1.8029931641e+02    5.9888000488e+01
    1.8040045166e+02    5.9941993713e+01
    1.8049902344e+02    5.9994003296e+01
    1.8060032654e+02    6.0046997070e+01
    1.8070155334e+02    6.0101005554e+01
    1.8080059814e+02    6.0152000427e+01
    1.8089994812e+02    6.0204002380e+01
    1.8099926758e+02    6.0254997253e+01
    1.8109954834e+02    6.0307006836e+01
    1.8119993591e+02    6.0357009888e+01
    1.8130146790e+02    6.0409004211e+01
    1.8139889526e+02    6.0456993103e+01
    1.8149876404e+02    6.0507003784e+01
    1.8160101318e+02    6.0557998657e+01
    1.8169926453e+02    6.0605995178e+01
    1.8179940796e+02    6.0654006958e+01
    1.8189938354e+02    6.0702995300e+01
    1.8199920654e+02    6.0750999451e+01
    1.8210177612e+02    6.0800003052e+01
    1.8220063782e+02    6.0847991943e+01
    1.8229936218e+02    6.0894004822e+01
    1.8239932251e+02    6.0941009521e+01
    1.8250152588e+02    6.0988998413e+01
    1.8260078430e+02    6.1036003113e+01
    1.8270138550e+02    6.1082992554e+01
    1.8279986572e+02    6.1128005981e+01
    1.8289918518e+02    6.1174003601e+01
    1.8300154114e+02    6.1221000671e+01
    1.8310110474e+02    6.1267005920e+01
    1.8320077515e+02    6.1311988831e+01
    1.8330044556e+02    6.1358001709e+01
    1.8340028381e+02    6.1402992249e+01
    1.8350192261e+02    6.1448997498e+01
    1.8360084534e+02    6.1492996216e+01
    1.8369946289e+02    6.1538002014e+01
    1.8380068970e+02    6.1583007812e+01
    1.8390167236e+02    6.1628005981e+01
    1.8399955750e+02    6.1671997070e+01
    1.8410011292e+02    6.1717002869e+01
    1.8420053101e+02    6.1760002136e+01
    1.8430076599e+02    6.1804008484e+01
    1.8440083313e+02    6.1849006653e+01
    1.8449954224e+02    6.1891998291e+01
    1.8459948730e+02    6.1935005188e+01
    1.8469935608e+02    6.1977996826e+01
    1.8479922485e+02    6.2021011353e+01
    1.8490197754e+02    6.2064994812e+01
    1.8500195312e+02    6.2108001709e+01
    1.8510205078e+02    6.2150009155e+01
    1.8519941711e+02    6.2192001343e+01
    1.8529980469e+02    6.2233001709e+01
    1.8540138245e+02    6.2275001526e+01
    1.8549914551e+02    6.2315002441e+01
    1.8559921265e+02    6.2356002808e+01
    1.8570036316e+02    6.2397003174e+01
    1.8580137634e+02    6.2437995911e+01
    1.8590093994e+02    6.2477996826e+01
    1.8599963379e+02    6.2516998291e+01
    1.8610177612e+02    6.2557006836e+01
    1.8620098877e+02    6.2595001221e+01
    1.8630192566e+02    6.2634994507e+01
    1.8639956665e+02    6.2671997070e+01
    1.8650006104e+02    6.2710998535e+01
    1.8660047913e+02    6.2748992920e+01
    1.8670085144e+02    6.2785995483e+01
    1.8680116272e+02    6.2825012207e+01
    1.8690139771e+02    6.2861999512e+01
    1.8700151062e+02    6.2897994995e+01
    1.8710008240e+02    6.2934005737e+01
    1.8720019531e+02    6.2971008301e+01
    1.8730024719e+02    6.3007003784e+01
    1.8740034485e+02    6.3042999268e+01
    1.8750044250e+02    6.3078994751e+01
    1.8760052490e+02    6.3113998413e+01
    1.8770051575e+02    6.3149002075e+01
    1.8780041504e+02    6.3184005737e+01
    1.8790040588e+02    6.3218994141e+01
    1.8799919128e+02    6.3253005981e+01
    1.8810060120e+02    6.3289001465e+01
    1.8820030212e+02    6.3322998047e+01
    1.8829986572e+02    6.3358001709e+01
    1.8840226746e+02    6.3392990112e+01
    1.8850216675e+02    6.3427001953e+01
    1.8860206604e+02    6.3460998535e+01
    1.8870098877e+02    6.3494995117e+01
    1.8880226135e+02    6.3529006958e+01
    1.8890101624e+02    6.3563003540e+01
    1.8899957275e+02    6.3595993042e+01
    1.8910084534e+02    6.3630004883e+01
    1.8920196533e+02    6.3663009644e+01
    1.8930003357e+02    6.3697006226e+01
    1.8940080261e+02    6.3729995728e+01
    1.8950141907e+02    6.3763000488e+01
    1.8960185242e+02    6.3796997070e+01
    1.8970210266e+02    6.3830001831e+01
    1.8980220032e+02    6.3862991333e+01
    1.8990220642e+02    6.3895004272e+01
    1.9000212097e+02    6.3927993774e+01
    1.9010038757e+02    6.3972991943e+01
    1.9020155334e+02    6.4019989014e+01
    1.9029957581e+02    6.4065994263e+01
    1.9040022278e+02    6.4111999512e+01
    1.9050076294e+02    6.4158004761e+01
    1.9060049438e+02    6.4203002930e+01
    1.9070028687e+02    6.4247009277e+01
    1.9080137634e+02    6.4292999268e+01
    1.9090109253e+02    6.4336990356e+01
    1.9100244141e+02    6.4382003784e+01
    1.9109992981e+02    6.4425003052e+01
    1.9119946289e+02    6.4468002319e+01
    1.9130085754e+02    6.4511993408e+01
    1.9140020752e+02    6.4553985596e+01
    1.9150148010e+02    6.4597000122e+01
    1.9159985352e+02    6.4638000488e+01
    1.9169978333e+02    6.4679992676e+01
    1.9180043030e+02    6.4722000122e+01
    1.9189962769e+02    6.4763992310e+01
    1.9199989319e+02    6.4804992676e+01
    1.9209992981e+02    6.4846008301e+01
    1.9220080566e+02    6.4887008667e+01
    1.9230076599e+02    6.4927993774e+01
    1.9240103149e+02    6.4968002319e+01
    1.9250047302e+02    6.5007995605e+01
    1.9259985352e+02    6.5048004150e+01
    1.9270100403e+02    6.5088989258e+01
    1.9280021667e+02    6.5128005981e+01
    1.9290255737e+02    6.5169006348e+01
    1.9300204468e+02    6.5207992554e+01
    1.9310166931e+02    6.5246994019e+01
    1.9320137024e+02    6.5287002563e+01
    1.9330107117e+02    6.5326004028e+01
    1.9340020752e+02    6.5363998413e+01
    1.9350158691e+02    6.5403991699e+01
    1.9360217285e+02    6.5442993164e+01
    1.9370120239e+02    6.5482009888e+01
    1.9379995728e+02    6.5520004272e+01
    1.9390139771e+02    6.5558990479e+01
    1.9400259399e+02    6.5597991943e+01
    1.9410072327e+02    6.5636001587e+01
    1.9420155334e+02    6.5674011230e+01
    1.9430221558e+02    6.5712005615e+01
    1.9439982605e+02    6.5750000000e+01
[...]
    2.5130459595e+02    7.1118011475e+01
    2.5140367126e+02    7.1093017578e+01
    2.5150541687e+02    7.1067016602e+01
    2.5160406494e+02    7.1043029785e+01
    2.5170579529e+02    7.1015991211e+01
    2.5180497742e+02    7.0990997314e+01
    2.5190461731e+02    7.0966003418e+01
    2.5200338745e+02    7.0941009521e+01
    2.5210530090e+02    7.0915008545e+01
    2.5220417786e+02    7.0890014648e+01
    2.5230569458e+02    7.0863983154e+01
    2.5240473938e+02    7.0838989258e+01
    2.5250381470e+02    7.0812988281e+01
    2.5260583496e+02    7.0787994385e+01
    2.5270489502e+02    7.0763000488e+01
    2.5280392456e+02    7.0736999512e+01
    2.5290574646e+02    7.0710998535e+01
    2.5300456238e+02    7.0684997559e+01
    2.5310610962e+02    7.0658996582e+01
    2.5320460510e+02    7.0634002686e+01
    2.5330584717e+02    7.0608001709e+01
    2.5340403748e+02    7.0580993652e+01
    2.5350495911e+02    7.0554992676e+01
    2.5360574341e+02    7.0529022217e+01
    2.5370349121e+02    7.0501983643e+01
    2.5380397034e+02    7.0476013184e+01
    2.5390432739e+02    7.0449005127e+01
    2.5400456238e+02    7.0421020508e+01
    2.5410557556e+02    7.0393005371e+01
    2.5420396423e+02    7.0365997314e+01
    2.5430386353e+02    7.0337005615e+01
    2.5440368652e+02    7.0309997559e+01
    2.5450627136e+02    7.0279998779e+01
    2.5460595703e+02    7.0252014160e+01
    2.5470561218e+02    7.0222015381e+01
    2.5480526733e+02    7.0192993164e+01
    2.5490603638e+02    7.0163970947e+01
    2.5500520325e+02    7.0134002686e+01
    2.5510429382e+02    7.0102996826e+01
    2.5520428467e+02    7.0072998047e+01
    2.5530436707e+02    7.0041992188e+01
    2.5540454102e+02    7.0011993408e+01
    2.5550346375e+02    6.9981018066e+01
    2.5560598755e+02    6.9949005127e+01
    2.5570472717e+02    6.9917999268e+01
    2.5580427551e+02    6.9885986328e+01
    2.5590379333e+02    6.9854003906e+01
    2.5600619507e+02    6.9822021484e+01
    2.5610562134e+02    6.9790008545e+01
    2.5620501709e+02    6.9758026123e+01
    2.5630447388e+02    6.9726013184e+01
    2.5640393066e+02    6.9694000244e+01
    2.5650631714e+02    6.9661010742e+01
    2.5660577393e+02    6.9627990723e+01
    2.5670516968e+02    6.9595977783e+01
    2.5680453491e+02    6.9562988281e+01
    2.5690383911e+02    6.9531005859e+01
    2.5700604248e+02    6.9497009277e+01
    2.5710537720e+02    6.9463989258e+01
    2.5720410156e+02    6.9430999756e+01
    2.5730538940e+02    6.9398010254e+01
    2.5740405273e+02    6.9365997314e+01
    2.5750570679e+02    6.9332000732e+01
    2.5760452271e+02    6.9298980713e+01
    2.5770632935e+02    6.9266021729e+01
    2.5780361938e+02    6.9233001709e+01
    2.5790444946e+02    6.9199981689e+01
    2.5800573730e+02    6.9165985107e+01
    2.5810363770e+02    6.9132995605e+01
    2.5820565796e+02    6.9098999023e+01
    2.5830474854e+02    6.9065002441e+01
    2.5840374756e+02    6.9032012939e+01
    2.5850555420e+02    6.8997985840e+01
    2.5860437012e+02    6.8963989258e+01
    2.5870602417e+02    6.8928985596e+01
    2.5880465698e+02    6.8894989014e+01
    2.5890612793e+02    6.8859985352e+01
    2.5900457764e+02    6.8826995850e+01
    2.5910574341e+02    6.8791015625e+01
    2.5920382690e+02    6.8756988525e+01
    2.5930459595e+02    6.8720977783e+01
    2.5940518188e+02    6.8684997559e+01
    2.5950555420e+02    6.8649017334e+01
    2.5960574341e+02    6.8613006592e+01
    2.5970581055e+02    6.8576019287e+01
    2.5980572510e+02    6.8540008545e+01
    2.5990554810e+02    6.8502990723e+01
    2.6000524902e+02    6.8467010498e+01
    2.6010552979e+02    6.8430023193e+01
    2.6020477295e+02    6.8394012451e+01
    2.6030453491e+02    6.8355987549e+01
    2.6040423584e+02    6.8319000244e+01
    2.6050384521e+02    6.8281982422e+01
    2.6060467529e+02    6.8243011475e+01
    2.6070376587e+02    6.8205993652e+01
    2.6080603027e+02    6.8166992188e+01
    2.6090512085e+02    6.8130004883e+01
    2.6100628662e+02    6.8089996338e+01
    2.6110632324e+02    6.8051971436e+01
    2.6120635986e+02    6.8013000488e+01
    2.6130630493e+02    6.7973999023e+01
    2.6140621948e+02    6.7934997559e+01
    2.6150613403e+02    6.7895996094e+01
    2.6160607910e+02    6.7858001709e+01
    2.6170596313e+02    6.7819000244e+01
    2.6180587769e+02    6.7778991699e+01
    2.6190573120e+02    6.7740020752e+01
    2.6200393677e+02    6.7703002930e+01
    2.6210537720e+02    6.7662994385e+01
    2.6220388794e+02    6.7623992920e+01
    2.6230584717e+02    6.7584991455e+01
    2.6240612793e+02    6.7546020508e+01
    2.6250573730e+02    6.7506988525e+01
    2.6260507202e+02    6.7468994141e+01
    2.6270428467e+02    6.7429992676e+01
    2.6280648804e+02    6.7390014648e+01
    2.6290579224e+02    6.7352996826e+01
    2.6300506592e+02    6.7314025879e+01
    2.6310430908e+02    6.7274993896e+01
    2.6320642090e+02    6.7234985352e+01
    2.6330551147e+02    6.7196014404e+01
    2.6340457153e+02    6.7157012939e+01
    2.6350643921e+02    6.7117004395e+01
    2.6360531616e+02    6.7078002930e+01
    2.6370407104e+02    6.7037994385e+01
    2.6380563354e+02    6.6997985840e+01
    2.6390417480e+02    6.6958007812e+01
    2.6400555420e+02    6.6917022705e+01
    2.6410681152e+02    6.6876007080e+01
    2.6420578003e+02    6.6835998535e+01
    2.6430679321e+02    6.6793029785e+01
    2.6440481567e+02    6.6752990723e+01
    2.6450561523e+02    6.6712005615e+01
    2.6460632324e+02    6.6669982910e+01
    2.6470687866e+02    6.6627014160e+01
    2.6480450439e+02    6.6585998535e+01
    2.6490499878e+02    6.6542999268e+01
    2.6500469971e+02    6.6500000000e+01
    2.6510684204e+02    6.6457000732e+01
    2.6520410156e+02    6.6414001465e+01
    2.6530435181e+02    6.6371002197e+01
    2.6540435791e+02    6.6326995850e+01
    2.6550506592e+02    6.6282989502e+01
    2.6560601807e+02    6.6239013672e+01
    2.6570590210e+02    6.6195007324e+01
    2.6580636597e+02    6.6151000977e+01
    2.6590658569e+02    6.6105987549e+01
    2.6600436401e+02    6.6063018799e+01
    2.6610504150e+02    6.6018005371e+01
    2.6620568848e+02    6.5972991943e+01
    2.6630630493e+02    6.5928009033e+01
    2.6640695190e+02    6.5882995605e+01
    2.6650457764e+02    6.5839019775e+01
    2.6660464478e+02    6.5794006348e+01
    2.6670520020e+02    6.5748992920e+01
    2.6680572510e+02    6.5703002930e+01
    2.6690625000e+02    6.5658996582e+01
    2.6700677490e+02    6.5613983154e+01
    2.6710437012e+02    6.5570007324e+01
    2.6720498657e+02    6.5523986816e+01
    2.6730422974e+02    6.5480010986e+01
    2.6740451050e+02    6.5434997559e+01
    2.6750646973e+02    6.5389007568e+01
    2.6760678101e+02    6.5344024658e+01
    2.6770437622e+02    6.5299987793e+01
    2.6780633545e+02    6.5253997803e+01
    2.6790496826e+02    6.5209991455e+01
    2.6800674438e+02    6.5162994385e+01
    2.6810458374e+02    6.5119995117e+01
    2.6820516968e+02    6.5074005127e+01
    2.6830477905e+02    6.5028991699e+01
    2.6840444946e+02    6.4984008789e+01
    2.6850701904e+02    6.4937988281e+01
    2.6860668945e+02    6.4891998291e+01
    2.6870629883e+02    6.4846984863e+01
    2.6880685425e+02    6.4801025391e+01
    2.6890515137e+02    6.4756011963e+01
    2.6900457764e+02    6.4708984375e+01
    2.6910681152e+02    6.4661987305e+01
    2.6920593262e+02    6.4615997314e+01
    2.6930487061e+02    6.4569976807e+01
    2.6940646362e+02    6.4523010254e+01
    2.6950497437e+02    6.4476989746e+01
    2.6960614014e+02    6.4428985596e+01
    2.6970712280e+02    6.4381011963e+01
    2.6980502319e+02    6.4334014893e+01
    2.6990563965e+02    6.4286010742e+01
    2.7000604248e+02    6.4237976074e+01
    2.7010711670e+02    6.4187011719e+01
    2.7020712280e+02    6.4135986328e+01
    2.7030587769e+02    6.4087005615e+01
    2.7040597534e+02    6.4035980225e+01
    2.7050460815e+02    6.3985992432e+01
    2.7060604858e+02    6.3933990479e+01
    2.7070709229e+02    6.3881988525e+01
    2.7080593872e+02    6.3832977295e+01
    2.7090509033e+02    6.3781982422e+01
    2.7100726318e+02    6.3729003906e+01
    2.7110586548e+02    6.3678009033e+01
    2.7120730591e+02    6.3626007080e+01
    2.7130557251e+02    6.3575012207e+01
    2.7140661621e+02    6.3522979736e+01
    2.7150445557e+02    6.3472991943e+01
    2.7160504150e+02    6.3420989990e+01
    2.7170538330e+02    6.3369018555e+01
    2.7180520630e+02    6.3316986084e+01
    2.7190487671e+02    6.3266021729e+01
    2.7200482178e+02    6.3214996338e+01
    2.7210644531e+02    6.3162994385e+01
    2.7220547485e+02    6.3110992432e+01
    2.7230447388e+02    6.3061004639e+01
    2.7240615845e+02    6.3009002686e+01
    2.7250506592e+02    6.2958007812e+01
    2.7260449219e+02    6.2907012939e+01
    2.7270648193e+02    6.2853973389e+01
    2.7280520630e+02    6.2803009033e+01
    2.7290698242e+02    6.2750976562e+01
    2.7300592041e+02    6.2700012207e+01
    2.7310491943e+02    6.2648986816e+01
    2.7320709229e+02    6.2596008301e+01
    2.7330664062e+02    6.2544006348e+01
    2.7340609741e+02    6.2491973877e+01
    2.7350692749e+02    6.2440002441e+01
    2.7360632324e+02    6.2388000488e+01
    2.7370562744e+02    6.2335998535e+01
    2.7380496216e+02    6.2282989502e+01
    2.7390719604e+02    6.2230010986e+01
    2.7400653076e+02    6.2175994873e+01
    2.7410583496e+02    6.2123992920e+01
    2.7420565796e+02    6.2070007324e+01
    2.7430487061e+02    6.2015991211e+01
    2.7440618896e+02    6.1962982178e+01
    2.7450527954e+02    6.1908996582e+01
    2.7460714722e+02    6.1854003906e+01
    2.7470596313e+02    6.1799987793e+01
    2.7480752563e+02    6.1744995117e+01
    2.7490606689e+02    6.1691009521e+01
    2.7500735474e+02    6.1635009766e+01
    2.7510452271e+02    6.1581024170e+01
    2.7520730591e+02    6.1524993896e+01
    2.7530743408e+02    6.1469024658e+01
    2.7540634155e+02    6.1414001465e+01
    2.7550521851e+02    6.1359008789e+01
    2.7560568237e+02    6.1303009033e+01
    2.7570596313e+02    6.1248016357e+01
    2.7580603027e+02    6.1192016602e+01
    2.7590707397e+02    6.1134979248e+01
    2.7600546265e+02    6.1080017090e+01
    2.7610693359e+02    6.1022003174e+01
    2.7620544434e+02    6.0966979980e+01
    2.7630694580e+02    6.0909973145e+01
    2.7640545654e+02    6.0855010986e+01
    2.7650692749e+02    6.0798004150e+01
    2.7660534668e+02    6.0743988037e+01
    2.7670513916e+02    6.0688018799e+01
    2.7680569458e+02    6.0630981445e+01
    2.7690682983e+02    6.0574005127e+01
    2.7700494385e+02    6.0520019531e+01
    2.7710607910e+02    6.0464019775e+01
    2.7720550537e+02    6.0407989502e+01
    2.7730548096e+02    6.0351989746e+01
    2.7740753174e+02    6.0295013428e+01
    2.7750726318e+02    6.0239013672e+01
    2.7760671997e+02    6.0184020996e+01
    2.7770730591e+02    6.0127990723e+01
    2.7780545044e+02    6.0074005127e+01
    2.7790686035e+02    6.0015991211e+01
    2.7800540161e+02    5.9960998535e+01
    2.7810723877e+02    5.9904998779e+01
    2.7820736694e+02    5.9848999023e+01
    2.7830740356e+02    5.9792999268e+01
    2.7840707397e+02    5.9736999512e+01
    2.7850683594e+02    5.9680999756e+01
    2.7860668945e+02    5.9623992920e+01
    2.7870657349e+02    5.9567993164e+01
    2.7880569458e+02    5.9511993408e+01
    2.7890713501e+02    5.9453002930e+01
    2.7900527954e+02    5.9397003174e+01
    2.7910519409e+02    5.9341003418e+01
    2.7920501709e+02    5.9283020020e+01
    2.7930764771e+02    5.9223999023e+01
    2.7940722656e+02    5.9165985107e+01
    2.7950665283e+02    5.9108001709e+01
    2.7960589600e+02    5.9049011230e+01
    2.7970501709e+02    5.8990997314e+01
    2.7980685425e+02    5.8930999756e+01
    2.7990560913e+02    5.8873016357e+01
    2.8000708008e+02    5.8813018799e+01
    2.8010635376e+02    5.8750976562e+01
    2.8020736694e+02    5.8686004639e+01
    2.8030603027e+02    5.8623992920e+01
    2.8040756226e+02    5.8558990479e+01
    2.8050518799e+02    5.8497009277e+01
    2.8060638428e+02    5.8432006836e+01
    2.8070724487e+02    5.8367980957e+01
    2.8080560303e+02    5.8305023193e+01
    2.8090786743e+02    5.8239990234e+01
    2.8100491333e+02    5.8178009033e+01
    2.8110754395e+02    5.8111999512e+01
    2.8120553589e+02    5.8049011230e+01
    2.8130642700e+02    5.7983978271e+01
    2.8140719604e+02    5.7920013428e+01
    2.8150781250e+02    5.7855987549e+01
    2.8160528564e+02    5.7794006348e+01
    2.8170626831e+02    5.7729003906e+01
    2.8180615234e+02    5.7665008545e+01
    2.8190753174e+02    5.7601013184e+01
    2.8200512695e+02    5.7537994385e+01
    2.8210522461e+02    5.7475006104e+01
    2.8220538330e+02    5.7411010742e+01
    2.8230551147e+02    5.7347015381e+01
    2.8240527344e+02    5.7283996582e+01
    2.8250689697e+02    5.7220001221e+01
    2.8260800171e+02    5.7153991699e+01
    2.8270602417e+02    5.7092010498e+01
    2.8280703735e+02    5.7028991699e+01
    2.8290533447e+02    5.6966003418e+01
    2.8300534058e+02    5.6902008057e+01
    2.8310781860e+02    5.6836029053e+01
    2.8320501709e+02    5.6774017334e+01
    2.8330737305e+02    5.6709014893e+01
    2.8340557861e+02    5.6645996094e+01
    2.8350738525e+02    5.6579986572e+01
    2.8360629272e+02    5.6516998291e+01
    2.8370724487e+02    5.6450988770e+01
    2.8380541992e+02    5.6388000488e+01
    2.8390682983e+02    5.6321014404e+01
    2.8400744629e+02    5.6255981445e+01
    2.8410733032e+02    5.6190979004e+01
    2.8420730591e+02    5.6125000000e+01
    2.8430804443e+02    5.6058990479e+01
    2.8440728760e+02    5.5993011475e+01
    2.8450616455e+02    5.5928009033e+01
    2.8460617065e+02    5.5860992432e+01
    2.8470608521e+02    5.5795013428e+01
    2.8480587769e+02    5.5727996826e+01
    2.8490557861e+02    5.5660980225e+01
    2.8500808716e+02    5.5592987061e+01
    2.8510601807e+02    5.5527008057e+01
    2.8520596313e+02    5.5460998535e+01
    2.8530740356e+02    5.5391998291e+01
    2.8540774536e+02    5.5324005127e+01
    2.8550650024e+02    5.5256988525e+01
    2.8560791016e+02    5.5187988281e+01
    2.8570620728e+02    5.5121978760e+01
    2.8580712891e+02    5.5053009033e+01
    2.8590777588e+02    5.4985992432e+01
    2.8600820923e+02    5.4916992188e+01
    2.8610571289e+02    5.4850006104e+01
    2.8620672607e+02    5.4781982422e+01
    2.8630773926e+02    5.4714019775e+01
    2.8640579224e+02    5.4648010254e+01
    2.8650677490e+02    5.4579010010e+01
    2.8660769653e+02    5.4510009766e+01
    2.8670593262e+02    5.4444000244e+01
    2.8680712891e+02    5.4375000000e+01
    2.8690548706e+02    5.4309020996e+01
    2.8700750732e+02    5.4239990234e+01
    2.8710751343e+02    5.4171997070e+01
    2.8720712280e+02    5.4105010986e+01
    2.8730722046e+02    5.4038024902e+01
    2.8740753174e+02    5.3970001221e+01
    2.8750802612e+02    5.3901977539e+01
    2.8760568237e+02    5.3837005615e+01
    2.8770660400e+02    5.3768005371e+01
    2.8780776978e+02    5.3700012207e+01
    2.8790612793e+02    5.3633972168e+01
    2.8800711060e+02    5.3566040039e+01
    2.8810693359e+02    5.3498016357e+01
    2.8820626831e+02    5.3430023193e+01
    2.8830804443e+02    5.3361999512e+01
    2.8840725708e+02    5.3293975830e+01
    2.8850570679e+02    5.3226989746e+01
    2.8860803223e+02    5.3156036377e+01
    2.8870806885e+02    5.3087982178e+01
    2.8880786133e+02    5.3019012451e+01
    2.8890798950e+02    5.2950012207e+01
    2.8900781250e+02    5.2880981445e+01
    2.8910766602e+02    5.2812011719e+01
    2.8920755005e+02    5.2741973877e+01
    2.8930749512e+02    5.2671997070e+01
    2.8940753174e+02    5.2600982666e+01
    2.8950759888e+02    5.2530975342e+01
    2.8960769653e+02    5.2459991455e+01
    2.8970782471e+02    5.2389007568e+01
    2.8980786133e+02    5.2316955566e+01
    2.8990762329e+02    5.2247009277e+01
    2.9000726318e+02    5.2174987793e+01
    2.9010800171e+02    5.2097015381e+01
    2.9020730591e+02    5.2021026611e+01
    2.9030715942e+02    5.1944000244e+01
    2.9040750122e+02    5.1867034912e+01
    2.9050701904e+02    5.1791015625e+01
    2.9060614014e+02    5.1713989258e+01
    2.9070812988e+02    5.1635009766e+01
    2.9080688477e+02    5.1558013916e+01
    2.9090582275e+02    5.1481994629e+01
    2.9100827026e+02    5.1402008057e+01
    2.9110586548e+02    5.1326995850e+01
    2.9120690918e+02    5.1248016357e+01
    2.9130642700e+02    5.1170989990e+01
    2.9140646362e+02    5.1095001221e+01
    2.9150601196e+02    5.1016998291e+01
    2.9160845947e+02    5.0937988281e+01
    2.9170816040e+02    5.0860992432e+01
    2.9180841064e+02    5.0783966064e+01
    2.9190777588e+02    5.0706970215e+01
    2.9200796509e+02    5.0629974365e+01
    2.9210812378e+02    5.0552978516e+01
    2.9220812988e+02    5.0476989746e+01
    2.9230816650e+02    5.0399993896e+01
    2.9240652466e+02    5.0324005127e+01
    2.9250711060e+02    5.0246978760e+01
    2.9260812378e+02    5.0169982910e+01
    2.9270602417e+02    5.0093994141e+01
    2.9280688477e+02    5.0016967773e+01
    2.9290826416e+02    4.9938018799e+01
    2.9300650024e+02    4.9862976074e+01
    2.9310705566e+02    4.9785003662e+01
    2.9320559692e+02    4.9709991455e+01
    2.9330740356e+02    4.9631011963e+01
    2.9340576172e+02    4.9554016113e+01
    2.9350689697e+02    4.9476013184e+01
    2.9360775757e+02    4.9397033691e+01
    2.9370593262e+02    4.9320007324e+01
    2.9380697632e+02    4.9240997314e+01
    2.9390765381e+02    4.9162994385e+01
    2.9400762939e+02    4.9084014893e+01
    2.9410824585e+02    4.9003997803e+01
    2.9420800781e+02    4.8925018311e+01
    2.9430648804e+02    4.8846984863e+01
    2.9440670776e+02    4.8766967773e+01
    2.9450732422e+02    4.8686981201e+01
    2.9460714722e+02    4.8605987549e+01
    2.9470648193e+02    4.8525970459e+01
    2.9480871582e+02    4.8444000244e+01
    2.9490808105e+02    4.8364013672e+01
    2.9500744629e+02    4.8283996582e+01
    2.9510705566e+02    4.8202972412e+01
    2.9520745850e+02    4.8120971680e+01
    2.9530770874e+02    4.8038970947e+01
    2.9540774536e+02    4.7958038330e+01
    2.9550759888e+02    4.7876983643e+01
    2.9560720825e+02    4.7795959473e+01
    2.9570654297e+02    4.7713989258e+01
    2.9580853271e+02    4.7631011963e+01
    2.9590734863e+02    4.7549011230e+01
    2.9600875854e+02    4.7465972900e+01
    2.9610723877e+02    4.7385009766e+01
    2.9620745850e+02    4.7302001953e+01
    2.9630773926e+02    4.7221038818e+01
    2.9640808105e+02    4.7138031006e+01
    2.9650860596e+02    4.7054992676e+01
    2.9660769653e+02    4.6975006104e+01
    2.9670867920e+02    4.6892028809e+01
    2.9680654907e+02    4.6812011719e+01
    2.9690777588e+02    4.6729003906e+01
    2.9700604248e+02    4.6649017334e+01
    2.9710754395e+02    4.6565979004e+01
    2.9720614624e+02    4.6485015869e+01
    2.9730706787e+02    4.6402984619e+01
    2.9740649414e+02    4.6320983887e+01
    2.9750732422e+02    4.6238983154e+01
    2.9760830688e+02    4.6156982422e+01
    2.9770645142e+02    4.6076019287e+01
    2.9780783081e+02    4.5992980957e+01
    2.9790640259e+02    4.5912994385e+01
    2.9800796509e+02    4.5830017090e+01
    2.9810800171e+02    4.5746978760e+01
    2.9820864868e+02    4.5664978027e+01
    2.9830804443e+02    4.5582977295e+01
    2.9840750122e+02    4.5500976562e+01
    2.9850692749e+02    4.5418975830e+01
    2.9860775757e+02    4.5334991455e+01
    2.9870715332e+02    4.5252990723e+01
    2.9880645752e+02    4.5169982910e+01
    2.9890869141e+02    4.5084014893e+01
    2.9900796509e+02    4.5000976562e+01
    2.9910723877e+02    4.4917968750e+01
    2.9920651245e+02    4.4833984375e+01
    2.9930868530e+02    4.4748992920e+01
    2.9940792847e+02    4.4665008545e+01
    2.9950720215e+02    4.4578979492e+01
    2.9960650635e+02    4.4496032715e+01
    2.9970883179e+02    4.4407012939e+01
    2.9980865479e+02    4.4322021484e+01
    2.9990655518e+02    4.4239013672e+01
endcurve
