Curveplot
LS-DYNA keyword deck by LS-PrePost
Abscissa
Ordinate
XY data
CHOP_EAMZ_mo-1 #pts=3000
* Minval=    -3.0166400909e+01 at time=       231.3038330078
* Maxval=     1.9500000690e-06 at time=         3.1972544193
    0.0000000000e+00    0.0000000000e+00
    9.7369909286e-02    3.9326901061e-35
    1.9807700813e-01    9.6139899856e-28
    2.9948920012e-01    5.9419401518e-23
    3.9713996649e-01    1.2671999598e-18
    4.9812555313e-01    5.0296498771e-15
    5.9749299288e-01    7.7860298504e-13
    6.9738900661e-01    9.4175299503e-11
    7.9955375195e-01    4.1686800678e-09
    8.9783728123e-01    2.4924700526e-08
    9.9828058481e-01    7.6012597106e-08
    1.0996562243e+00    1.4184800534e-07
    1.1974014044e+00    2.0666600165e-07
    1.2984220982e+00    2.8818701026e-07
    1.3971672058e+00    3.9078099690e-07
    1.4989128113e+00    5.0599498991e-07
    1.5977989435e+00    5.8187600871e-07
    1.6997433901e+00    6.3611497580e-07
    1.7984901667e+00    6.6992998882e-07
    1.8987457752e+00    7.0097502203e-07
    1.9997639656e+00    7.6969797647e-07
    2.0978953838e+00    8.7597499032e-07
    2.1994953156e+00    1.0663800367e-06
    2.2993786335e+00    1.2671699778e-06
    2.3983728886e+00    1.4570199482e-06
    2.4975562096e+00    1.5823200101e-06
    2.5975327492e+00    1.5846900396e-06
    2.6985549927e+00    1.4794200069e-06
    2.7983779907e+00    1.3424800045e-06
    2.8981916904e+00    1.3121699567e-06
    2.9984147549e+00    1.4651000129e-06
    3.0974473953e+00    1.7463499944e-06
    3.1972544193e+00    1.9500000690e-06
    3.2982785702e+00    1.6753100454e-06
    3.3992686272e+00    3.9976399080e-07
    3.4973409176e+00   -2.3349900857e-06
    3.5992622375e+00   -7.3011101449e-06
    3.6988952160e+00   -1.4565300262e-05
    3.7990405560e+00   -2.4404400392e-05
    3.8982412815e+00   -3.6523098970e-05
    3.9996523857e+00   -5.0946298870e-05
    4.0988574028e+00   -6.6519096436e-05
    4.1998772621e+00   -8.3303697465e-05
    4.2982239723e+00   -1.0007999663e-04
    4.3992471695e+00   -1.1747499957e-04
    4.4991350174e+00   -1.3474399748e-04
    4.5988092422e+00   -1.5213899314e-04
    4.6975693703e+00   -1.6969899298e-04
    4.7989411354e+00   -1.8822599668e-04
    4.8999624252e+00   -2.0726300136e-04
    4.9980959892e+00   -2.2623999394e-04
    5.0998129845e+00   -2.4626401137e-04
    5.1989932060e+00   -2.6584599982e-04
    5.2981653214e+00   -2.8520499473e-04
    5.3986592293e+00   -3.0446698656e-04
    5.4997544289e+00   -3.2349399407e-04
    5.5971760750e+00   -3.4168199636e-04
    5.6978554726e+00   -3.6057500984e-04
    5.7974638939e+00   -3.7955099833e-04
    5.8984732628e+00   -3.9922198630e-04
    5.9999842644e+00   -4.1954498738e-04
    6.0983343124e+00   -4.3981100316e-04
    6.1984119415e+00   -4.6104600187e-04
    6.2999501228e+00   -4.8322801013e-04
    6.3996829987e+00   -5.0567399012e-04
    6.4988436699e+00   -5.2871298976e-04
    6.5997147560e+00   -5.5312202312e-04
    6.6997900009e+00   -5.7859497610e-04
    6.7986364365e+00   -6.0526700690e-04
    6.8981943130e+00   -6.3390599098e-04
    6.9998621941e+00   -6.6505902214e-04
    7.0975832939e+00   -6.9663900649e-04
    7.1989593506e+00   -7.3075800901e-04
    7.2974481583e+00   -7.6486502076e-04
    7.3989973068e+00   -8.0066098599e-04
    7.4993929863e+00   -8.3646702114e-04
    7.5987024307e+00   -8.7234500097e-04
    7.6984376907e+00   -9.0911699226e-04
    7.7987232208e+00   -9.4733299920e-04
    7.8997526169e+00   -9.8765303846e-04
    7.9989619255e+00   -1.0295299580e-03
    8.0996818542e+00   -1.0747299530e-03
    8.1999330521e+00   -1.1225099443e-03
    8.2976121902e+00   -1.1715500150e-03
    8.3971357346e+00   -1.2235699687e-03
    8.4985017776e+00   -1.2779500103e-03
    8.5995206833e+00   -1.3327499619e-03
    8.6976509094e+00   -1.3860600302e-03
    8.7984514236e+00   -1.4406499686e-03
    8.8979358673e+00   -1.4943500282e-03
    8.9987192154e+00   -1.5488599893e-03
    9.0970468521e+00   -1.6027400270e-03
    9.1981859207e+00   -1.6594700282e-03
    9.2992000580e+00   -1.7178299604e-03
    9.3987522125e+00   -1.7771100393e-03
    9.4978952408e+00   -1.8376599764e-03
    9.5992670059e+00   -1.9005599897e-03
    9.6992788315e+00   -1.9628501032e-03
    9.7982511520e+00   -2.0241199527e-03
    9.8977012634e+00   -2.0848601125e-03
    9.9987659454e+00   -2.1456000395e-03
    1.0098511696e+01   -2.2049499676e-03
    1.0199678421e+01   -2.2653900087e-03
    1.0298215866e+01   -2.3254700936e-03
    1.0398855209e+01   -2.3889499716e-03
    1.0497861862e+01   -2.4540100712e-03
    1.0597251892e+01   -2.5220999960e-03
    1.0697270393e+01   -2.5930400006e-03
    1.0799457550e+01   -2.6674401015e-03
    1.0897672653e+01   -2.7400599793e-03
    1.0998721123e+01   -2.8152000159e-03
    1.1097229004e+01   -2.8885400388e-03
    1.1198507309e+01   -2.9640600551e-03
    1.1299547195e+01   -3.0400000978e-03
    1.1398487091e+01   -3.1156700570e-03
    1.1499978065e+01   -3.1954098959e-03
    1.1598881721e+01   -3.2757299487e-03
    1.1699591637e+01   -3.3602300100e-03
    1.1797919273e+01   -3.4450499807e-03
    1.1898950577e+01   -3.5338599700e-03
    1.1999979973e+01   -3.6232999992e-03
    1.2098205566e+01   -3.7099700421e-03
    1.2197334290e+01   -3.7966200616e-03
    1.2298474312e+01   -3.8843099028e-03
    1.2397833824e+01   -3.9703301154e-03
    1.2499473572e+01   -4.0591801517e-03
    1.2598923683e+01   -4.1480502114e-03
    1.2699953079e+01   -4.2411498725e-03
    1.2798091888e+01   -4.3346202001e-03
    1.2899495125e+01   -4.4339997694e-03
    1.2997612000e+01   -4.5322501101e-03
    1.3098699570e+01   -4.6348702163e-03
    1.3197715759e+01   -4.7363499179e-03
    1.3298756599e+01   -4.8409299925e-03
    1.3397233963e+01   -4.9445098266e-03
    1.3497929573e+01   -5.0531998277e-03
    1.3597932816e+01   -5.1652798429e-03
    1.3699493408e+01   -5.2845198661e-03
    1.3797644615e+01   -5.4057100788e-03
    1.3898680687e+01   -5.5367802270e-03
    1.3997740746e+01   -5.6709400378e-03
    1.4098539352e+01   -5.8120200410e-03
    1.4197928429e+01   -5.9541598894e-03
    1.4299071312e+01   -6.1003300361e-03
    1.4397571564e+01   -6.2429797836e-03
    1.4497648239e+01   -6.3875298947e-03
    1.4599093437e+01   -6.5335999243e-03
    1.4699822426e+01   -6.6786701791e-03
    1.4798312187e+01   -6.8213399500e-03
    1.4897054672e+01   -6.9659701549e-03
    1.4998292923e+01   -7.1164597757e-03
    1.5098944664e+01   -7.2683198377e-03
    1.5199199677e+01   -7.4212402105e-03
    1.5299445152e+01   -7.5749498792e-03
    1.5399482727e+01   -7.7284201980e-03
    1.5497596741e+01   -7.8784702346e-03
    1.5597725868e+01   -8.0310599878e-03
    1.5697420120e+01   -8.1827798858e-03
    1.5797376633e+01   -8.3353295922e-03
    1.5898392677e+01   -8.4907999262e-03
    1.5998808861e+01   -8.6476001889e-03
    1.6099941254e+01   -8.8085802272e-03
    1.6199506760e+01   -8.9704804122e-03
    1.6297647476e+01   -9.1335698962e-03
    1.6399570465e+01   -9.3064801767e-03
    1.6497373581e+01   -9.4755198807e-03
    1.6598758698e+01   -9.6538504586e-03
    1.6698831558e+01   -9.8331198096e-03
    1.6799879074e+01   -1.0017800145e-02
    1.6898040771e+01   -1.0201299563e-02
    1.6998636246e+01   -1.0393699631e-02
    1.7099475861e+01   -1.0591199622e-02
    1.7198326111e+01   -1.0788800195e-02
    1.7299909592e+01   -1.0995400138e-02
    1.7399274826e+01   -1.1200300418e-02
    1.7497299194e+01   -1.1404300109e-02
    1.7597951889e+01   -1.1615299620e-02
    1.7699010849e+01   -1.1828499846e-02
    1.7797180176e+01   -1.2037199922e-02
    1.7898233414e+01   -1.2254299596e-02
    1.7999279022e+01   -1.2474399991e-02
    1.8097755432e+01   -1.2692400254e-02
    1.8199289322e+01   -1.2921400368e-02
    1.8297386169e+01   -1.3146899641e-02
    1.8398450851e+01   -1.3383099809e-02
    1.8497283936e+01   -1.3617199846e-02
    1.8598314285e+01   -1.3858599588e-02
    1.8699340820e+01   -1.4100999571e-02
    1.8798715591e+01   -1.4339700341e-02
    1.8898563385e+01   -1.4579599723e-02
    1.8999273300e+01   -1.4821699820e-02
    1.9098115921e+01   -1.5060200356e-02
    1.9198606491e+01   -1.5304500237e-02
    1.9298030853e+01   -1.5548899770e-02
    1.9398485184e+01   -1.5799000859e-02
    1.9498451233e+01   -1.6050999984e-02
    1.9599578857e+01   -1.6308499500e-02
    1.9697742462e+01   -1.6559900716e-02
    1.9799339294e+01   -1.6820300370e-02
    1.9899480820e+01   -1.7076399177e-02
    1.9998109818e+01   -1.7327500507e-02
    2.0099456787e+01   -1.7585100606e-02
    2.0197763443e+01   -1.7835499719e-02
    2.0299747467e+01   -1.8097599968e-02
    2.0397531509e+01   -1.8352499232e-02
    2.0499458313e+01   -1.8622800708e-02
    2.0599056244e+01   -1.8891900778e-02
    2.0698812485e+01   -1.9165800884e-02
    2.0797962189e+01   -1.9441699609e-02
    2.0898649216e+01   -1.9724499434e-02
    2.0999725342e+01   -2.0010299981e-02
    2.1098436356e+01   -2.0290600136e-02
    2.1200010300e+01   -2.0580200478e-02
    2.1298189163e+01   -2.0862000063e-02
    2.1397323608e+01   -2.1149400622e-02
    2.1499183655e+01   -2.1448800340e-02
    2.1599388123e+01   -2.1748000756e-02
    2.1697563171e+01   -2.2045800462e-02
    2.1798622131e+01   -2.2356400266e-02
    2.1899675369e+01   -2.2669799626e-02
    2.1997837067e+01   -2.2975599393e-02
    2.2099744797e+01   -2.3292599246e-02
    2.2199426651e+01   -2.3601200432e-02
    2.2297525406e+01   -2.3903500289e-02
    2.2399444580e+01   -2.4216599762e-02
    2.2497875214e+01   -2.4519300088e-02
    2.2599109650e+01   -2.4832500145e-02
    2.2697280884e+01   -2.5139300153e-02
    2.2798330307e+01   -2.5459000841e-02
    2.2897104263e+01   -2.5775000453e-02
    2.2998182297e+01   -2.6101300493e-02
    2.3099815369e+01   -2.6431599632e-02
    2.3198589325e+01   -2.6754099876e-02
    2.3299652100e+01   -2.7085600421e-02
    2.3399400711e+01   -2.7415199205e-02
    2.3497232437e+01   -2.7742000297e-02
    2.3598722458e+01   -2.8086399660e-02
    2.3699779510e+01   -2.8436399996e-02
    2.3797945023e+01   -2.8783999383e-02
    2.3898994446e+01   -2.9149999842e-02
    2.3999860764e+01   -2.9522899538e-02
    2.4097249985e+01   -2.9888700694e-02
    2.4197904587e+01   -3.0270500109e-02
    2.4298036575e+01   -3.0651999637e-02
    2.4398069382e+01   -3.1032800674e-02
    2.4498348236e+01   -3.1413100660e-02
    2.4598653793e+01   -3.1791798770e-02
    2.4699348450e+01   -3.2170798630e-02
    2.4797519684e+01   -3.2540600747e-02
    2.4899753571e+01   -3.2927598804e-02
    2.4999788284e+01   -3.3309198916e-02
    2.5098043442e+01   -3.3687099814e-02
    2.5199472427e+01   -3.4079600126e-02
    2.5298135757e+01   -3.4462500364e-02
    2.5397808075e+01   -3.4848999232e-02
    2.5498870850e+01   -3.5239201039e-02
    2.5598821640e+01   -3.5623099655e-02
    2.5698518753e+01   -3.6004498601e-02
    2.5798412323e+01   -3.6386400461e-02
    2.5899452209e+01   -3.6774199456e-02
    2.5999002457e+01   -3.7159498781e-02
    2.6099269867e+01   -3.7552401423e-02
    2.6198505402e+01   -3.7946999073e-02
    2.6299566269e+01   -3.8354698569e-02
    2.6397920609e+01   -3.8756899536e-02
    2.6497484207e+01   -3.9168298244e-02
    2.6598600388e+01   -3.9589799941e-02
    2.6697399139e+01   -4.0004801005e-02
    2.6798490524e+01   -4.0432900190e-02
    2.6899581909e+01   -4.0864899755e-02
    2.6997192383e+01   -4.1286099702e-02
    2.7098279953e+01   -4.1726700962e-02
    2.7199348450e+01   -4.2171098292e-02
    2.7298974991e+01   -4.2612500489e-02
    2.7399595261e+01   -4.3060701340e-02
    2.7497600555e+01   -4.3498400599e-02
    2.7598070145e+01   -4.3947398663e-02
    2.7699167252e+01   -4.4399000704e-02
    2.7797370911e+01   -4.4837199152e-02
    2.7898452759e+01   -4.5288100839e-02
    2.7999525070e+01   -4.5739501715e-02
    2.8098470688e+01   -4.6182900667e-02
    2.8199514389e+01   -4.6638298780e-02
    2.8297582626e+01   -4.7083400190e-02
    2.8398618698e+01   -4.7545399517e-02
    2.8498054504e+01   -4.8002898693e-02
    2.8599115372e+01   -4.8469498754e-02
    2.8697284698e+01   -4.8923101276e-02
    2.8797231674e+01   -4.9384001642e-02
    2.8898393631e+01   -4.9848999828e-02
    2.8998153687e+01   -5.0305899233e-02
    2.9098014832e+01   -5.0762400031e-02
    2.9197786331e+01   -5.1219299436e-02
    2.9297653198e+01   -5.1678698510e-02
    2.9397525787e+01   -5.2141599357e-02
    2.9497989655e+01   -5.2611298859e-02
    2.9599515915e+01   -5.3089600056e-02
    2.9697723389e+01   -5.3554598242e-02
    2.9799516678e+01   -5.4037299007e-02
    2.9898330688e+01   -5.4505098611e-02
    2.9998817444e+01   -5.4978799075e-02
    3.0099903107e+01   -5.5453199893e-02
    3.0198249817e+01   -5.5913500488e-02
    3.0297286987e+01   -5.6377198547e-02
    3.0397830963e+01   -5.6849699467e-02
    3.0499715805e+01   -5.7331699878e-02
    3.0599077225e+01   -5.7805299759e-02
    3.0698534012e+01   -5.8282900602e-02
    3.0797813416e+01   -5.8762699366e-02
    3.0899099350e+01   -5.9254199266e-02
    3.0998241425e+01   -5.9736099094e-02
    3.1097181320e+01   -6.0217101127e-02
    3.1198631287e+01   -6.0709699988e-02
    3.1299747467e+01   -6.1200700700e-02
    3.1398910522e+01   -6.1683099717e-02
    3.1497997284e+01   -6.2167201191e-02
    3.1599212646e+01   -6.2664799392e-02
    3.1697280884e+01   -6.3150197268e-02
    3.1798379898e+01   -6.3653603196e-02
    3.1899467468e+01   -6.4158603549e-02
    3.1997659683e+01   -6.4648896456e-02
    3.2098819733e+01   -6.5151698887e-02
    3.2198230743e+01   -6.5641596913e-02
    3.2299430847e+01   -6.6135697067e-02
    3.2398677826e+01   -6.6615901887e-02
    3.2497402191e+01   -6.7090399563e-02
    3.2599353790e+01   -6.7579202354e-02
    3.2697566986e+01   -6.8050302565e-02
    3.2798660278e+01   -6.8536601961e-02
    3.2899646759e+01   -6.9024100900e-02
    3.3000015259e+01   -6.9509997964e-02
    3.3098072052e+01   -6.9985501468e-02
    3.3200008392e+01   -7.0480898023e-02
    3.3298236847e+01   -7.0959798992e-02
    3.3399932861e+01   -7.1459002793e-02
    3.3497901917e+01   -7.1945197880e-02
    3.3599918365e+01   -7.2459302843e-02
    3.3698131561e+01   -7.2963796556e-02
    3.3799224854e+01   -7.3494203389e-02
    3.3897426605e+01   -7.4020400643e-02
    3.3998973846e+01   -7.4574902654e-02
    3.4099018097e+01   -7.5129002333e-02
    3.4198455811e+01   -7.5684502721e-02
    3.4298782349e+01   -7.6246596873e-02
    3.4397705078e+01   -7.6799698174e-02
    3.4497135162e+01   -7.7352598310e-02
    3.4598686218e+01   -7.7913597226e-02
    3.4699409485e+01   -7.8466996551e-02
    3.4797637939e+01   -7.9005099833e-02
    3.4898921967e+01   -7.9560101032e-02
    3.4997650146e+01   -8.0102302134e-02
    3.5098644257e+01   -8.0658100545e-02
    3.5198165894e+01   -8.1205703318e-02
    3.5299198151e+01   -8.1759400666e-02
    3.5399360657e+01   -8.2304403186e-02
    3.5497417450e+01   -8.2832902670e-02
    3.5597862244e+01   -8.3368703723e-02
    3.5697563171e+01   -8.3896197379e-02
    3.5797180176e+01   -8.4420397878e-02
    3.5898250580e+01   -8.4951601923e-02
    3.5997821808e+01   -8.5476599634e-02
    3.6099006653e+01   -8.6013697088e-02
    3.6199165344e+01   -8.6550198495e-02
    3.6297374725e+01   -8.7081298232e-02
    3.6398475647e+01   -8.7633199990e-02
    3.6498336792e+01   -8.8182598352e-02
    3.6599468231e+01   -8.8743001223e-02
    3.6698734283e+01   -8.9296899736e-02
    3.6799880981e+01   -8.9865602553e-02
    3.6898143768e+01   -9.0422898531e-02
    3.6999145508e+01   -9.1000400484e-02
    3.7099063873e+01   -9.1575801373e-02
    3.7197330475e+01   -9.2144198716e-02
    3.7298488617e+01   -9.2730402946e-02
    3.7399894714e+01   -9.3317501247e-02
    3.7497932434e+01   -9.3883298337e-02
    3.7598609924e+01   -9.4461798668e-02
    3.7699787140e+01   -9.5040701330e-02
    3.7798065186e+01   -9.5601499081e-02
    3.7899219513e+01   -9.6178598702e-02
    3.7997463226e+01   -9.6740499139e-02
    3.8098033905e+01   -9.7318902612e-02
    3.8199501038e+01   -9.7907103598e-02
    3.8297504425e+01   -9.8480097950e-02
    3.8398471832e+01   -9.9074602127e-02
    3.8499824524e+01   -9.9673800170e-02
    3.8598041534e+01   -1.0025399923e-01
    3.8699127197e+01   -1.0085000098e-01
    3.8799816132e+01   -1.0143899918e-01
    3.8897941589e+01   -1.0200899839e-01
    3.8998657227e+01   -1.0259199888e-01
    3.9097087860e+01   -1.0316099972e-01
    3.9199443817e+01   -1.0375399888e-01
    3.9297817230e+01   -1.0432899743e-01
    3.9397159576e+01   -1.0491500050e-01
    3.9498397827e+01   -1.0551699996e-01
    3.9599723816e+01   -1.0612399876e-01
    3.9697998047e+01   -1.0671299696e-01
    3.9799179077e+01   -1.0731600225e-01
    3.9899059296e+01   -1.0790500045e-01
    3.9997802734e+01   -1.0848099738e-01
    4.0099170685e+01   -1.0906500369e-01
    4.0197639465e+01   -1.0962799937e-01
    4.0299781799e+01   -1.1021099985e-01
    4.0397491455e+01   -1.1077000201e-01
    4.0498821259e+01   -1.1135499924e-01
    4.0598335266e+01   -1.1193399876e-01
    4.0697666168e+01   -1.1251600087e-01
    4.0799892426e+01   -1.1311800033e-01
    4.0898353577e+01   -1.1369799823e-01
    4.0997745514e+01   -1.1428000033e-01
    4.1099727631e+01   -1.1487200111e-01
    4.1198368073e+01   -1.1544000357e-01
    4.1299564362e+01   -1.1602000147e-01
    4.1398780823e+01   -1.1658900231e-01
    4.1497798920e+01   -1.1715900153e-01
    4.1598438263e+01   -1.1774399877e-01
    4.1698898315e+01   -1.1833299696e-01
    4.1797187805e+01   -1.1891599745e-01
    4.1898345947e+01   -1.1951699853e-01
    4.1999492645e+01   -1.2011700124e-01
    4.2098392487e+01   -1.2069699913e-01
    4.2197704315e+01   -1.2127000093e-01
    4.2298961639e+01   -1.2184400111e-01
    4.2398273468e+01   -1.2239900231e-01
    4.2499443054e+01   -1.2295900285e-01
    4.2597728729e+01   -1.2350200117e-01
    4.2698890686e+01   -1.2406300008e-01
    4.2797138214e+01   -1.2461200356e-01
    4.2898265839e+01   -1.2518300116e-01
    4.2999252319e+01   -1.2575599551e-01
    4.3098644257e+01   -1.2632100284e-01
    4.3197647095e+01   -1.2688499689e-01
    4.3298831940e+01   -1.2746199965e-01
    4.3397628784e+01   -1.2802700698e-01
    4.3498329163e+01   -1.2860800326e-01
    4.3597644806e+01   -1.2918999791e-01
    4.3698818207e+01   -1.2979499996e-01
    4.3797092438e+01   -1.3039800525e-01
    4.3898250580e+01   -1.3103400171e-01
    4.3999877930e+01   -1.3168899715e-01
    4.4097713470e+01   -1.3233000040e-01
    4.4197380066e+01   -1.3299000263e-01
    4.4298625946e+01   -1.3366100192e-01
    4.4398490906e+01   -1.3431900740e-01
    4.4499050140e+01   -1.3497400284e-01
    4.4597064972e+01   -1.3560399413e-01
    4.4697483063e+01   -1.3624300063e-01
    4.4798660278e+01   -1.3688200712e-01
    4.4897926331e+01   -1.3750800490e-01
    4.4999431610e+01   -1.3814799488e-01
    4.5097381592e+01   -1.3876800239e-01
    4.5199176788e+01   -1.3941200078e-01
    4.5297183990e+01   -1.4002899826e-01
    4.5397365570e+01   -1.4065299928e-01
    4.5498355865e+01   -1.4127300680e-01
    4.5598461151e+01   -1.4187699556e-01
    4.5697849274e+01   -1.4246700704e-01
    4.5797565460e+01   -1.4305299520e-01
    4.5898693085e+01   -1.4364300668e-01
    4.5999576569e+01   -1.4423400164e-01
    4.6097759247e+01   -1.4481300116e-01
    4.6198177338e+01   -1.4541299641e-01
    4.6299354553e+01   -1.4602600038e-01
    4.6397647858e+01   -1.4663100243e-01
    4.6497612000e+01   -1.4725400507e-01
    4.6598735809e+01   -1.4789000154e-01
    4.6698215485e+01   -1.4852100611e-01
    4.6799449921e+01   -1.4916899800e-01
    4.6897792816e+01   -1.4980399609e-01
    4.6999187469e+01   -1.5046399832e-01
    4.7097259521e+01   -1.5110799670e-01
    4.7199436188e+01   -1.5178200603e-01
    4.7297775269e+01   -1.5243400633e-01
    4.7399093628e+01   -1.5310500562e-01
    4.7497077942e+01   -1.5375399590e-01
    4.7596961975e+01   -1.5441200137e-01
    4.7698234558e+01   -1.5507599711e-01
    4.7799491882e+01   -1.5573799610e-01
    4.7897838593e+01   -1.5637899935e-01
    4.7999053955e+01   -1.5703800321e-01
    4.8099296570e+01   -1.5769399703e-01
    4.8197628021e+01   -1.5834000707e-01
    4.8298515320e+01   -1.5900899470e-01
    4.8399387360e+01   -1.5968200564e-01
    4.8498435974e+01   -1.6034500301e-01
    4.8599601746e+01   -1.6102300584e-01
    4.8697853088e+01   -1.6167999804e-01
    4.8797870636e+01   -1.6234500706e-01
    4.8899097443e+01   -1.6301399469e-01
    4.8999790192e+01   -1.6367599368e-01
    4.9099060059e+01   -1.6432799399e-01
    4.9199317932e+01   -1.6498899460e-01
    4.9298015594e+01   -1.6564300656e-01
    4.9398445129e+01   -1.6631400585e-01
    4.9499729156e+01   -1.6699700058e-01
    4.9598400116e+01   -1.6766600311e-01
    4.9699634552e+01   -1.6835199296e-01
    4.9798007965e+01   -1.6901500523e-01
    4.9897174835e+01   -1.6967600584e-01
    4.9998050690e+01   -1.7034099996e-01
    5.0099567413e+01   -1.7100000381e-01
    5.0198360443e+01   -1.7163600028e-01
    5.0298023224e+01   -1.7227700353e-01
    5.0398799896e+01   -1.7292599380e-01
    5.0497673035e+01   -1.7356699705e-01
    5.0597156525e+01   -1.7421600223e-01
    5.0699535370e+01   -1.7488899827e-01
    5.0798843384e+01   -1.7554399371e-01
    5.0897224426e+01   -1.7619299889e-01
    5.0999603271e+01   -1.7686499655e-01
    5.1098686218e+01   -1.7751100659e-01
    5.1197410583e+01   -1.7815099657e-01
    5.1298694611e+01   -1.7880499363e-01
    5.1397964478e+01   -1.7944799364e-01
    5.1497184753e+01   -1.8009500206e-01
    5.1597976685e+01   -1.8075999618e-01
    5.1697269440e+01   -1.8142299354e-01
    5.1798530579e+01   -1.8210600317e-01
    5.1899768829e+01   -1.8279199302e-01
    5.1998104095e+01   -1.8345600367e-01
    5.2096977234e+01   -1.8411800265e-01
    5.2199260712e+01   -1.8479299545e-01
    5.2297531128e+01   -1.8543000519e-01
    5.2396930695e+01   -1.8606600165e-01
    5.2498199463e+01   -1.8670700490e-01
    5.2599475861e+01   -1.8734599650e-01
    5.2697837830e+01   -1.8796800077e-01
    5.2799060822e+01   -1.8861199915e-01
    5.2897830963e+01   -1.8924400210e-01
    5.2998752594e+01   -1.8989300728e-01
    5.3098449707e+01   -1.9053499401e-01
    5.3197719574e+01   -1.9117599726e-01
    5.3298973083e+01   -1.9183099270e-01
    5.3398006439e+01   -1.9247600436e-01
    5.3498535156e+01   -1.9313800335e-01
    5.3597702026e+01   -1.9380499423e-01
    5.3698928833e+01   -1.9450099766e-01
    5.3797245026e+01   -1.9519700110e-01
    5.3898445129e+01   -1.9593299925e-01
    5.3996906281e+01   -1.9666700065e-01
    5.4097717285e+01   -1.9743199646e-01
    5.4197616577e+01   -1.9819800556e-01
    5.4298179626e+01   -1.9897100329e-01
    5.4398288727e+01   -1.9973599911e-01
    5.4499633789e+01   -2.0050300658e-01
    5.4597366333e+01   -2.0123200119e-01
    5.4697776794e+01   -2.0197300613e-01
    5.4799037933e+01   -2.0271599293e-01
    5.4898460388e+01   -2.0344300568e-01
    5.4999576569e+01   -2.0418600738e-01
    5.5097434998e+01   -2.0490700006e-01
    5.5199214935e+01   -2.0565700531e-01
    5.5299663544e+01   -2.0639300346e-01
    5.5399677277e+01   -2.0711900294e-01
    5.5497642517e+01   -2.0781800151e-01
    5.5597816467e+01   -2.0852200687e-01
    5.5697303772e+01   -2.0920999348e-01
    5.5797233582e+01   -2.0989499986e-01
    5.5898429871e+01   -2.1058699489e-01
    5.5998657227e+01   -2.1127599478e-01
    5.6096908569e+01   -2.1195900440e-01
    5.6197391510e+01   -2.1266999841e-01
    5.6298645020e+01   -2.1340000629e-01
    5.6397018433e+01   -2.1412199736e-01
    5.6499591827e+01   -2.1488399804e-01
    5.6597183228e+01   -2.1561799943e-01
    5.6699062347e+01   -2.1639199555e-01
    5.6797500610e+01   -2.1714699268e-01
    5.6898845673e+01   -2.1793299913e-01
    5.6999496460e+01   -2.1872200072e-01
    5.7097530365e+01   -2.1949699521e-01
    5.7199539185e+01   -2.2030800581e-01
    5.7297977448e+01   -2.2109399736e-01
    5.7399467468e+01   -2.2190399468e-01
    5.7497383118e+01   -2.2268299758e-01
    5.7597335815e+01   -2.2347399592e-01
    5.7698707581e+01   -2.2427099943e-01
    5.7797157288e+01   -2.2504000366e-01
    5.7898479462e+01   -2.2582900524e-01
    5.7996875763e+01   -2.2659400105e-01
    5.8097724915e+01   -2.2738100588e-01
    5.8198951721e+01   -2.2817499936e-01
    5.8296779633e+01   -2.2894899547e-01
    5.8397552490e+01   -2.2975300252e-01
    5.8499511719e+01   -2.3057100177e-01
    5.8597862244e+01   -2.3136100173e-01
    5.8699073792e+01   -2.3217299581e-01
    5.8796977997e+01   -2.3295499384e-01
    5.8898269653e+01   -2.3375999928e-01
    5.8999568939e+01   -2.3456199467e-01
    5.9096981049e+01   -2.3533399403e-01
    5.9198596954e+01   -2.3614299297e-01
    5.9299503326e+01   -2.3695400357e-01
    5.9398372650e+01   -2.3775899410e-01
    5.9496665955e+01   -2.3857000470e-01
    5.9598667145e+01   -2.3941999674e-01
    5.9697093964e+01   -2.4024300277e-01
    5.9798450470e+01   -2.4108999968e-01
    5.9897960663e+01   -2.4191600084e-01
    5.9998714447e+01   -2.4274200201e-01
    6.0097549438e+01   -2.4354399741e-01
    6.0199367523e+01   -2.4436399341e-01
    6.0298969269e+01   -2.4516500533e-01
    6.0396930695e+01   -2.4595600367e-01
    6.0497882843e+01   -2.4677699804e-01
    6.0597320557e+01   -2.4759300053e-01
    6.0696704865e+01   -2.4841399491e-01
    6.0799045563e+01   -2.4926400185e-01
    6.0897533417e+01   -2.5008299947e-01
    6.0996948242e+01   -2.5090700388e-01
    6.1099380493e+01   -2.5175198913e-01
    6.1198226929e+01   -2.5256198645e-01
    6.1299629211e+01   -2.5339001417e-01
    6.1399047852e+01   -2.5420498848e-01
    6.1497985840e+01   -2.5502198935e-01
    6.1598667145e+01   -2.5586399436e-01
    6.1698490143e+01   -2.5670900941e-01
    6.1796958923e+01   -2.5755101442e-01
    6.1898296356e+01   -2.5842401385e-01
    6.1999614716e+01   -2.5929498672e-01
    6.2098617554e+01   -2.6013800502e-01
    6.2198146820e+01   -2.6097500324e-01
    6.2299568176e+01   -2.6181301475e-01
    6.2398868561e+01   -2.6262098551e-01
    6.2497322083e+01   -2.6341500878e-01
    6.2598678589e+01   -2.6422899961e-01
    6.2697109222e+01   -2.6502099633e-01
    6.2798397064e+01   -2.6584100723e-01
    6.2897315979e+01   -2.6664799452e-01
    6.2998157501e+01   -2.6747500896e-01
    6.3098064423e+01   -2.6829901338e-01
    6.3197929382e+01   -2.6912501454e-01
    6.3299263000e+01   -2.6996800303e-01
    6.3398269653e+01   -2.7079799771e-01
    6.3498832703e+01   -2.7165201306e-01
    6.3597949982e+01   -2.7250999212e-01
    6.3699249268e+01   -2.7340799570e-01
    6.3797641754e+01   -2.7430298924e-01
    6.3898914337e+01   -2.7525100112e-01
    6.3997306824e+01   -2.7619498968e-01
    6.4098884583e+01   -2.7718898654e-01
    6.4199554443e+01   -2.7818700671e-01
    6.4297851562e+01   -2.7916699648e-01
    6.4398559570e+01   -2.8016999364e-01
    6.4496910095e+01   -2.8114399314e-01
    6.4596954346e+01   -2.8212800622e-01
    6.4696998596e+01   -2.8310599923e-01
    6.4798362732e+01   -2.8409400582e-01
    6.4897712708e+01   -2.8506299853e-01
    6.4998382568e+01   -2.8605100513e-01
    6.5099082947e+01   -2.8704500198e-01
    6.5196884155e+01   -2.8801199794e-01
    6.5298324585e+01   -2.8901299834e-01
    6.5398803711e+01   -2.8999701142e-01
    6.5496704102e+01   -2.9094401002e-01
    6.5597015381e+01   -2.9190298915e-01
    6.5699356079e+01   -2.9286998510e-01
    6.5799064636e+01   -2.9380500317e-01
    6.5897445679e+01   -2.9472699761e-01
    6.5998283386e+01   -2.9567798972e-01
    6.6096603394e+01   -2.9661500454e-01
    6.6197532654e+01   -2.9758998752e-01
    6.6298873901e+01   -2.9858601093e-01
    6.6397331238e+01   -2.9956701398e-01
    6.6496742249e+01   -3.0057001114e-01
    6.6599296570e+01   -3.0161601305e-01
    6.6697807312e+01   -3.0263099074e-01
    6.6799232483e+01   -3.0368500948e-01
    6.6897773743e+01   -3.0472001433e-01
    6.6998497009e+01   -3.0578699708e-01
    6.7099395752e+01   -3.0686399341e-01
    6.7197929382e+01   -3.0792099237e-01
    6.7299362183e+01   -3.0901101232e-01
    6.7397979736e+01   -3.1007000804e-01
    6.7498786926e+01   -3.1114798784e-01
    6.7598541260e+01   -3.1220999360e-01
    6.7697128296e+01   -3.1325298548e-01
    6.7798583984e+01   -3.1432199478e-01
    6.7897117615e+01   -3.1535699964e-01
    6.7998512268e+01   -3.1642198563e-01
    6.8099464417e+01   -3.1748598814e-01
    6.8198211670e+01   -3.1853398681e-01
    6.8298873901e+01   -3.1961199641e-01
    6.8399513245e+01   -3.2069998980e-01
    6.8498092651e+01   -3.2177299261e-01
    6.8599418640e+01   -3.2287898660e-01
    6.8697807312e+01   -3.2395601273e-01
    6.8798660278e+01   -3.2506000996e-01
    6.8896942139e+01   -3.2613700628e-01
    6.8998298645e+01   -3.2724899054e-01
    6.9097198486e+01   -3.2834199071e-01
    6.9197990417e+01   -3.2946699858e-01
    6.9298789978e+01   -3.3060899377e-01
    6.9397819519e+01   -3.3174800873e-01
    6.9499267578e+01   -3.3293399215e-01
    6.9598472595e+01   -3.3410599828e-01
    6.9696990967e+01   -3.3527898788e-01
    6.9798454285e+01   -3.3648699522e-01
    6.9897857666e+01   -3.3766600490e-01
    6.9998748779e+01   -3.3885300159e-01
    7.0097549438e+01   -3.4000599384e-01
    7.0196594238e+01   -3.4115698934e-01
    7.0299308777e+01   -3.4235098958e-01
    7.0397270203e+01   -3.4349399805e-01
    7.0497833252e+01   -3.4467500448e-01
    7.0597160339e+01   -3.4585100412e-01
    7.0696517944e+01   -3.4703400731e-01
    7.0798896790e+01   -3.4825798869e-01
    7.0897644043e+01   -3.4943699837e-01
    7.0997871399e+01   -3.5062998533e-01
    7.1097663879e+01   -3.5181000829e-01
    7.1196792603e+01   -3.5297501087e-01
    7.1298309326e+01   -3.5416498780e-01
    7.1397712708e+01   -3.5533198714e-01
    7.1496971130e+01   -3.5650599003e-01
    7.1597366333e+01   -3.5770699382e-01
    7.1696670532e+01   -3.5890999436e-01
    7.1798141479e+01   -3.6015099287e-01
    7.1896690369e+01   -3.6136600375e-01
    7.1998115540e+01   -3.6261600256e-01
    7.2097534180e+01   -3.6383399367e-01
    7.2196853638e+01   -3.6503800750e-01
    7.2298370361e+01   -3.6625298858e-01
    7.2397949219e+01   -3.6743000150e-01
    7.2499389648e+01   -3.6862000823e-01
    7.2597946167e+01   -3.6977300048e-01
    7.2699356079e+01   -3.7096199393e-01
    7.2797828674e+01   -3.7212398648e-01
    7.2899055481e+01   -3.7332800031e-01
    7.2996826172e+01   -3.7449800968e-01
    7.3097061157e+01   -3.7570598722e-01
    7.3197174072e+01   -3.7692001462e-01
    7.3298583984e+01   -3.7815698981e-01
    7.3397590637e+01   -3.7937599421e-01
    7.3497947693e+01   -3.8062500954e-01
    7.3596824646e+01   -3.8187599182e-01
    7.3698204041e+01   -3.8318398595e-01
    7.3796669006e+01   -3.8448199630e-01
    7.3898017883e+01   -3.8585099578e-01
    7.3996559143e+01   -3.8721099496e-01
    7.4097869873e+01   -3.8863399625e-01
    7.4198799133e+01   -3.9007198811e-01
    7.4297157288e+01   -3.9148500562e-01
    7.4398628235e+01   -3.9294499159e-01
    7.4497062683e+01   -3.9436000586e-01
    7.4597007751e+01   -3.9579200745e-01
    7.4698799133e+01   -3.9724600315e-01
    7.4797355652e+01   -3.9865300059e-01
    7.4897003174e+01   -4.0008100867e-01
    7.4997543335e+01   -4.0152999759e-01
    7.5098121643e+01   -4.0298798680e-01
    7.5198593140e+01   -4.0445101261e-01
    7.5297058105e+01   -4.0588501096e-01
    7.5397483826e+01   -4.0734198689e-01
    7.5498275757e+01   -4.0879300237e-01
    7.5598358154e+01   -4.1021999717e-01
    7.5696479797e+01   -4.1160801053e-01
    7.5798194885e+01   -4.1303899884e-01
    7.5896682739e+01   -4.1442200541e-01
    7.5996902466e+01   -4.1583499312e-01
    7.6098403931e+01   -4.1727700830e-01
    7.6199264526e+01   -4.1872701049e-01
    7.6297813416e+01   -4.2015999556e-01
    7.6399276733e+01   -4.2165398598e-01
    7.6499114990e+01   -4.2313799262e-01
    7.6597778320e+01   -4.2461600900e-01
    7.6699279785e+01   -4.2614701390e-01
    7.6797889709e+01   -4.2764300108e-01
    7.6896522522e+01   -4.2914700508e-01
    7.6997261047e+01   -4.3068999052e-01
    7.7098182678e+01   -4.3224000931e-01
    7.7197074890e+01   -4.3376201391e-01
    7.7298988342e+01   -4.3532899022e-01
    7.7398254395e+01   -4.3685498834e-01
    7.7498970032e+01   -4.3840101361e-01
    7.7598258972e+01   -4.3992099166e-01
    7.7696952820e+01   -4.4142898917e-01
    7.7798522949e+01   -4.4297900796e-01
    7.7897163391e+01   -4.4448399544e-01
    7.7998672485e+01   -4.4603401423e-01
    7.8096832275e+01   -4.4753798842e-01
    7.8199188232e+01   -4.4911500812e-01
    7.8296745300e+01   -4.5062899590e-01
    7.8397239685e+01   -4.5219999552e-01
    7.8498985291e+01   -4.5380398631e-01
    7.8597518921e+01   -4.5536598563e-01
    7.8698905945e+01   -4.5698198676e-01
    7.8797134399e+01   -4.5855700970e-01
    7.8898582458e+01   -4.6019101143e-01
    7.8996955872e+01   -4.6178498864e-01
    7.9098747253e+01   -4.6344798803e-01
    7.9196449280e+01   -4.6505999565e-01
    7.9297119141e+01   -4.6674099565e-01
    7.9396659851e+01   -4.6842399240e-01
    7.9498184204e+01   -4.7016099095e-01
    7.9597999573e+01   -4.7188699245e-01
    7.9696594238e+01   -4.7360301018e-01
    7.9798126221e+01   -4.7537699342e-01
    7.9897415161e+01   -4.7711199522e-01
    7.9998184204e+01   -4.7887000442e-01
    8.0096794128e+01   -4.8058500886e-01
    8.0199180603e+01   -4.8236399889e-01
    8.0299003601e+01   -4.8409798741e-01
    8.0397033691e+01   -4.8580500484e-01
    8.0497505188e+01   -4.8755899072e-01
    8.0596870422e+01   -4.8929899931e-01
    8.0698944092e+01   -4.9108898640e-01
    8.0798385620e+01   -4.9283298850e-01
    8.0897232056e+01   -4.9456399679e-01
    8.0998184204e+01   -4.9632599950e-01
    8.1098243713e+01   -4.9806499481e-01
    8.1197662354e+01   -4.9978700280e-01
    8.1299293518e+01   -5.0154399872e-01
    8.1398757935e+01   -5.0326699018e-01
    8.1498016357e+01   -5.0499498844e-01
    8.1598648071e+01   -5.0675898790e-01
    8.1698013306e+01   -5.0851500034e-01
    8.1796699524e+01   -5.1027101278e-01
    8.1898262024e+01   -5.1208698750e-01
    8.1996902466e+01   -5.1385098696e-01
    8.2099266052e+01   -5.1567697525e-01
    8.2198585510e+01   -5.1743799448e-01
    8.2297119141e+01   -5.1917397976e-01
    8.2396781921e+01   -5.2091801167e-01
    8.2498329163e+01   -5.2268797159e-01
    8.2596969604e+01   -5.2440500259e-01
    8.2698471069e+01   -5.2617400885e-01
    8.2797027588e+01   -5.2789700031e-01
    8.2898483276e+01   -5.2967900038e-01
    8.2999084473e+01   -5.3145301342e-01
    8.3096488953e+01   -5.3317999840e-01
    8.3196487427e+01   -5.3496402502e-01
    8.3297966003e+01   -5.3678601980e-01
    8.3396858215e+01   -5.3857898712e-01
    8.3496849060e+01   -5.4041302204e-01
    8.3598541260e+01   -5.4230397940e-01
    8.3697082520e+01   -5.4416602850e-01
    8.3798507690e+01   -5.4611802101e-01
    8.3897033691e+01   -5.4804801941e-01
    8.3998573303e+01   -5.5007100105e-01
    8.4096755981e+01   -5.5205702782e-01
    8.4197944641e+01   -5.5412697792e-01
    8.4296394348e+01   -5.5615997314e-01
    8.4397941589e+01   -5.5826801062e-01
    8.4496452332e+01   -5.6031799316e-01
    8.4596809387e+01   -5.6240999699e-01
    8.4698425293e+01   -5.6453299522e-01
    8.4797088623e+01   -5.6659901142e-01
    8.4896705627e+01   -5.6869399548e-01
    8.4997116089e+01   -5.7081902027e-01
    8.5097579956e+01   -5.7295697927e-01
    8.5197616577e+01   -5.7509297132e-01
    8.5296203613e+01   -5.7719898224e-01
    8.5396934509e+01   -5.7934701443e-01
    8.5497657776e+01   -5.8148598671e-01
    8.5597854614e+01   -5.8360201120e-01
    8.5698532104e+01   -5.8571797609e-01
    8.5797813416e+01   -5.8780002594e-01
    8.5896377563e+01   -5.8986598253e-01
    8.5997039795e+01   -5.9198099375e-01
    8.6098609924e+01   -5.9412598610e-01
    8.6196571350e+01   -5.9620797634e-01
    8.6298088074e+01   -5.9838002920e-01
    8.6396728516e+01   -6.0050398111e-01
    8.6497428894e+01   -6.0268497467e-01
    8.6596443176e+01   -6.0483902693e-01
    8.6698013306e+01   -6.0705900192e-01
    8.6796707153e+01   -6.0922497511e-01
    8.6898315430e+01   -6.1146497726e-01
    8.6998779297e+01   -6.1368697882e-01
    8.7096687317e+01   -6.1585599184e-01
    8.7198814392e+01   -6.1812102795e-01
    8.7297546387e+01   -6.2030899525e-01
    8.7396362305e+01   -6.2249600887e-01
    8.7496994019e+01   -6.2471902370e-01
    8.7596382141e+01   -6.2691199780e-01
    8.7698097229e+01   -6.2915301323e-01
    8.7796867371e+01   -6.3133001328e-01
    8.7898521423e+01   -6.3357400894e-01
    8.7997230530e+01   -6.3575899601e-01
    8.8098396301e+01   -6.3801002502e-01
    8.8197509766e+01   -6.4023101330e-01
    8.8297859192e+01   -6.4249598980e-01
    8.8397262573e+01   -6.4475798607e-01
    8.8498840332e+01   -6.4708799124e-01
    8.8597473145e+01   -6.4936602116e-01
    8.8698944092e+01   -6.5172499418e-01
    8.8797798157e+01   -6.5403902531e-01
    8.8896240234e+01   -6.5635901690e-01
    8.8997772217e+01   -6.5877002478e-01
    8.9096260071e+01   -6.6113001108e-01
    8.9196746826e+01   -6.6356301308e-01
    8.9297241211e+01   -6.6602402925e-01
    8.9399078369e+01   -6.6854697466e-01
    8.9497581482e+01   -6.7101401091e-01
    8.9597274780e+01   -6.7353397608e-01
    8.9698837280e+01   -6.7611801624e-01
    8.9797538757e+01   -6.7864000797e-01
    8.9896286011e+01   -6.8116801977e-01
    8.9996917725e+01   -6.8374502659e-01
    9.0098526001e+01   -6.8634700775e-01
    9.0197662354e+01   -6.8888700008e-01
    9.0297492981e+01   -6.9144898653e-01
    9.0398429871e+01   -6.9404798746e-01
    9.0498687744e+01   -6.9663602114e-01
    9.0598045349e+01   -6.9920897484e-01
    9.0697341919e+01   -7.0178401470e-01
    9.0796890259e+01   -7.0436602831e-01
    9.0898941040e+01   -7.0700901747e-01
    9.0997215271e+01   -7.0954799652e-01
    9.1097610474e+01   -7.1213299036e-01
    9.1196975708e+01   -7.1468400955e-01
    9.1298728943e+01   -7.1729397774e-01
    9.1398193359e+01   -7.1984797716e-01
    9.1497718811e+01   -7.2241199017e-01
    9.1598068237e+01   -7.2501200438e-01
    9.1697769165e+01   -7.2760999203e-01
    9.1796569824e+01   -7.3019701242e-01
    9.1898254395e+01   -7.3286700249e-01
    9.1997001648e+01   -7.3546200991e-01
    9.2096206665e+01   -7.3806399107e-01
    9.2198371887e+01   -7.4073201418e-01
    9.2296989441e+01   -7.4329799414e-01
    9.2396743774e+01   -7.4588400126e-01
    9.2498359680e+01   -7.4851500988e-01
    9.2597076416e+01   -7.5107097626e-01
    9.2698646545e+01   -7.5370699167e-01
    9.2797256470e+01   -7.5627398491e-01
    9.2898628235e+01   -7.5892400742e-01
    9.2999099731e+01   -7.6156002283e-01
    9.3096504211e+01   -7.6412802935e-01
    9.3196578979e+01   -7.6678001881e-01
    9.3298126221e+01   -7.6949000359e-01
    9.3396736145e+01   -7.7214598656e-01
    9.3496719360e+01   -7.7486997843e-01
    9.3598266602e+01   -7.7767401934e-01
    9.3696891785e+01   -7.8044098616e-01
    9.3798408508e+01   -7.8333801031e-01
    9.3897033691e+01   -7.8619998693e-01
    9.3998863220e+01   -7.8920298815e-01
    9.4096923828e+01   -7.9213702679e-01
    9.4197853088e+01   -7.9519301653e-01
    9.4296401978e+01   -7.9820698500e-01
    9.4397918701e+01   -8.0133497715e-01
    9.4496528625e+01   -8.0439400673e-01
    9.4597923279e+01   -8.0755501986e-01
    9.4698951721e+01   -8.1072300673e-01
    9.4797721863e+01   -8.1383997202e-01
    9.4897262573e+01   -8.1700301170e-01
    9.4997543335e+01   -8.2021200657e-01
    9.5097877502e+01   -8.2344502211e-01
    9.5197532654e+01   -8.2666999102e-01
    9.5296211243e+01   -8.2986998558e-01
    9.5397621155e+01   -8.3315902948e-01
    9.5498245239e+01   -8.3641701937e-01
    9.5598564148e+01   -8.3965897560e-01
    9.5698234558e+01   -8.4287399054e-01
    9.5798896790e+01   -8.4611999989e-01
    9.5897514343e+01   -8.4930199385e-01
    9.5998237610e+01   -8.5255897045e-01
    9.6096794128e+01   -8.5575598478e-01
    9.6197540283e+01   -8.5903602839e-01
    9.6296234131e+01   -8.6225998402e-01
    9.6397842407e+01   -8.6559200287e-01
    9.6498649597e+01   -8.6890798807e-01
    9.6597656250e+01   -8.7217402458e-01
    9.6696395874e+01   -8.7544202805e-01
    9.6798065186e+01   -8.7882000208e-01
    9.6896850586e+01   -8.8211500645e-01
    9.6998130798e+01   -8.8550698757e-01
    9.7098793030e+01   -8.8888698816e-01
    9.7197608948e+01   -8.9221101999e-01
    9.7296424866e+01   -8.9553701878e-01
    9.7398498535e+01   -8.9897197485e-01
    9.7499061584e+01   -9.0235602856e-01
    9.7598541260e+01   -9.0570497513e-01
    9.7697456360e+01   -9.0903997421e-01
    9.7796340942e+01   -9.1238301992e-01
    9.7898101807e+01   -9.1583901644e-01
    9.7996917725e+01   -9.1921502352e-01
    9.8097290039e+01   -9.2267000675e-01
    9.8198738098e+01   -9.2619401217e-01
    9.8298004150e+01   -9.2967301607e-01
    9.8396781921e+01   -9.3316698074e-01
    9.8498451233e+01   -9.3679302931e-01
    9.8597175598e+01   -9.4033998251e-01
    9.8698730469e+01   -9.4401597977e-01
    9.8798194885e+01   -9.4764202833e-01
    9.8896713257e+01   -9.5126098394e-01
    9.8998306274e+01   -9.5502597094e-01
    9.9096656799e+01   -9.5870602131e-01
    9.9196929932e+01   -9.6249997616e-01
    9.9297218323e+01   -9.6633797884e-01
    9.9398681641e+01   -9.7026598454e-01
    9.9497253418e+01   -9.7412300110e-01
    9.9597183228e+01   -9.7807002068e-01
    9.9698814392e+01   -9.8211401701e-01
    9.9797599792e+01   -9.8606497049e-01
    9.9897293091e+01   -9.9006801844e-01
    9.9997817993e+01   -9.9411499500e-01
    1.0009641266e+02   -9.9809402227e-01
    1.0019843292e+02   -1.0022200346e+00
    1.0029827881e+02   -1.0062799454e+00
    1.0039640808e+02   -1.0102900267e+00
    1.0049726105e+02   -1.0144300461e+00
    1.0059674835e+02   -1.0185300112e+00
    1.0069609070e+02   -1.0226399899e+00
    1.0079869080e+02   -1.0268900394e+00
    1.0089778137e+02   -1.0310000181e+00
    1.0099626923e+02   -1.0350699425e+00
    1.0109673309e+02   -1.0392199755e+00
    1.0119641113e+02   -1.0433399677e+00
    1.0129830170e+02   -1.0475399494e+00
    1.0139785767e+02   -1.0516500473e+00
    1.0149732208e+02   -1.0557700396e+00
    1.0159741211e+02   -1.0599299669e+00
    1.0169705200e+02   -1.0641000271e+00
    1.0179888916e+02   -1.0683699846e+00
    1.0189777374e+02   -1.0725400448e+00
    1.0199662018e+02   -1.0766999722e+00
    1.0209867859e+02   -1.0809899569e+00
    1.0219799805e+02   -1.0851600170e+00
    1.0229669952e+02   -1.0893000364e+00
    1.0239669800e+02   -1.0934900045e+00
    1.0249839783e+02   -1.0977400541e+00
    1.0259719086e+02   -1.1018899679e+00
    1.0269882965e+02   -1.1061700583e+00
    1.0279752350e+02   -1.1103399992e+00
    1.0289864349e+02   -1.1146299839e+00
    1.0299604034e+02   -1.1187900305e+00
    1.0309616852e+02   -1.1230800152e+00
    1.0319632721e+02   -1.1274100542e+00
    1.0329797363e+02   -1.1318299770e+00
    1.0339668274e+02   -1.1361600161e+00
    1.0349714661e+02   -1.1406199932e+00
    1.0359880829e+02   -1.1452000141e+00
    1.0369754791e+02   -1.1497100592e+00
    1.0379627991e+02   -1.1542999744e+00
    1.0389791870e+02   -1.1591000557e+00
    1.0399665833e+02   -1.1638300419e+00
    1.0409773254e+02   -1.1687500477e+00
    1.0419876862e+02   -1.1737300158e+00
    1.0429740906e+02   -1.1786400080e+00
    1.0439866638e+02   -1.1837300062e+00
    1.0449736786e+02   -1.1887300014e+00
    1.0459880066e+02   -1.1939100027e+00
    1.0469856262e+02   -1.1990400553e+00
    1.0479743195e+02   -1.2041599751e+00
    1.0489691925e+02   -1.2093499899e+00
    1.0499703979e+02   -1.2146099806e+00
    1.0509722900e+02   -1.2199100256e+00
    1.0519770050e+02   -1.2252500057e+00
    1.0529646301e+02   -1.2305200100e+00
    1.0539820099e+02   -1.2359600067e+00
    1.0549873352e+02   -1.2413400412e+00
    1.0559615326e+02   -1.2465499640e+00
    1.0569606781e+02   -1.2518999577e+00
    1.0579656982e+02   -1.2572799921e+00
    1.0589814758e+02   -1.2627300024e+00
    1.0599873352e+02   -1.2681399584e+00
    1.0609732819e+02   -1.2734500170e+00
    1.0619795990e+02   -1.2788900137e+00
    1.0629669952e+02   -1.2842500210e+00
    1.0639804077e+02   -1.2897599936e+00
    1.0649609375e+02   -1.2951099873e+00
    1.0659844971e+02   -1.3006999493e+00
    1.0669728088e+02   -1.3061200380e+00
    1.0679612732e+02   -1.3115500212e+00
    1.0689791870e+02   -1.3171700239e+00
    1.0699629211e+02   -1.3226300478e+00
    1.0709712982e+02   -1.3282300234e+00
    1.0719609833e+02   -1.3337500095e+00
    1.0729839325e+02   -1.3394700289e+00
    1.0739832306e+02   -1.3450599909e+00
    1.0749881744e+02   -1.3506900072e+00
    1.0759844971e+02   -1.3562899828e+00
    1.0769750214e+02   -1.3618700504e+00
    1.0779651642e+02   -1.3674800396e+00
    1.0789842224e+02   -1.3732800484e+00
    1.0799735260e+02   -1.3789399862e+00
    1.0809693146e+02   -1.3846999407e+00
    1.0819715881e+02   -1.3905400038e+00
    1.0829608917e+02   -1.3963500261e+00
    1.0839785767e+02   -1.4023900032e+00
    1.0849671936e+02   -1.4083000422e+00
    1.0859844971e+02   -1.4144400358e+00
    1.0869719696e+02   -1.4204299450e+00
    1.0879640198e+02   -1.4264999628e+00
    1.0889808655e+02   -1.4327700138e+00
    1.0899668884e+02   -1.4388999939e+00
    1.0909715271e+02   -1.4451999664e+00
    1.0919722748e+02   -1.4515399933e+00
    1.0929731750e+02   -1.4579499960e+00
    1.0939640808e+02   -1.4643599987e+00
    1.0949816132e+02   -1.4709999561e+00
    1.0959810638e+02   -1.4775899649e+00
    1.0969696045e+02   -1.4841500521e+00
    1.0979878998e+02   -1.4909600019e+00
    1.0989733124e+02   -1.4975800514e+00
    1.0999887085e+02   -1.5044300556e+00
    1.1009745026e+02   -1.5111000538e+00
    1.1019689941e+02   -1.5178699493e+00
    1.1029682159e+02   -1.5247100592e+00
    1.1039808655e+02   -1.5316699743e+00
    1.1049884033e+02   -1.5386400223e+00
    1.1059845734e+02   -1.5455600023e+00
    1.1069803619e+02   -1.5525000095e+00
    1.1079779053e+02   -1.5594799519e+00
    1.1089704895e+02   -1.5664199591e+00
    1.1099852753e+02   -1.5735199451e+00
    1.1109597778e+02   -1.5803300142e+00
    1.1119873047e+02   -1.5875099897e+00
    1.1129786682e+02   -1.5944399834e+00
    1.1139753723e+02   -1.6014100313e+00
    1.1149681091e+02   -1.6083699465e+00
    1.1159700012e+02   -1.6154199839e+00
    1.1169679260e+02   -1.6224600077e+00
    1.1179875946e+02   -1.6296800375e+00
    1.1189824677e+02   -1.6367399693e+00
    1.1199723053e+02   -1.6437599659e+00
    1.1209626770e+02   -1.6507899761e+00
    1.1219869995e+02   -1.6580400467e+00
    1.1229750061e+02   -1.6650400162e+00
    1.1239778137e+02   -1.6721400023e+00
    1.1249667358e+02   -1.6791499853e+00
    1.1259848022e+02   -1.6863800287e+00
    1.1269731140e+02   -1.6934299469e+00
    1.1279609680e+02   -1.7005100250e+00
    1.1289774323e+02   -1.7078200579e+00
    1.1299800110e+02   -1.7150800228e+00
    1.1309828949e+02   -1.7223700285e+00
    1.1319838715e+02   -1.7296999693e+00
    1.1329725647e+02   -1.7369999886e+00
    1.1339608765e+02   -1.7443499565e+00
    1.1349697113e+02   -1.7519400120e+00
    1.1359876251e+02   -1.7596999407e+00
    1.1369763184e+02   -1.7673399448e+00
    1.1379649353e+02   -1.7750799656e+00
    1.1389826202e+02   -1.7831699848e+00
    1.1399745178e+02   -1.7911599874e+00
    1.1409829712e+02   -1.7993799448e+00
    1.1419690704e+02   -1.8075200319e+00
    1.1429875946e+02   -1.8159999847e+00
    1.1439685822e+02   -1.8242399693e+00
    1.1449875641e+02   -1.8328700066e+00
    1.1459683228e+02   -1.8412300348e+00
    1.1469642639e+02   -1.8497899771e+00
    1.1479830170e+02   -1.8586000204e+00
    1.1489778900e+02   -1.8672699928e+00
    1.1499771881e+02   -1.8760299683e+00
    1.1509774017e+02   -1.8848600388e+00
    1.1519731140e+02   -1.8936799765e+00
    1.1529617310e+02   -1.9024699926e+00
    1.1539814758e+02   -1.9115500450e+00
    1.1549604034e+02   -1.9202799797e+00
    1.1559696198e+02   -1.9292900562e+00
    1.1569770050e+02   -1.9382799864e+00
    1.1579734039e+02   -1.9471900463e+00
    1.1589608765e+02   -1.9560400248e+00
    1.1599674988e+02   -1.9650700092e+00
    1.1609851074e+02   -1.9742300510e+00
    1.1619590759e+02   -1.9830299616e+00
    1.1629765320e+02   -1.9922300577e+00
    1.1639611816e+02   -2.0011599064e+00
    1.1649617767e+02   -2.0102500916e+00
    1.1659871674e+02   -2.0195798874e+00
    1.1669767761e+02   -2.0286099911e+00
    1.1679666901e+02   -2.0376598835e+00
    1.1689859009e+02   -2.0469999313e+00
    1.1699732208e+02   -2.0560901165e+00
    1.1709819031e+02   -2.0653998852e+00
    1.1719770813e+02   -2.0746099949e+00
    1.1729747009e+02   -2.0838599205e+00
    1.1739778900e+02   -2.0931799412e+00
    1.1749823761e+02   -2.1025300026e+00
    1.1759802246e+02   -2.1118299961e+00
    1.1769725037e+02   -2.1211099625e+00
    1.1779644775e+02   -2.1304199696e+00
    1.1789852142e+02   -2.1400499344e+00
    1.1799761200e+02   -2.1494500637e+00
    1.1809664917e+02   -2.1589100361e+00
    1.1819857025e+02   -2.1687200069e+00
    1.1829756927e+02   -2.1783199310e+00
    1.1839659119e+02   -2.1880099773e+00
    1.1849851227e+02   -2.1980500221e+00
    1.1859748840e+02   -2.2078700066e+00
    1.1869638824e+02   -2.2177500725e+00
    1.1879844666e+02   -2.2280099392e+00
    1.1889718628e+02   -2.2379999161e+00
    1.1899591064e+02   -2.2480599880e+00
    1.1909710693e+02   -2.2584500313e+00
    1.1919700623e+02   -2.2688100338e+00
    1.1929694366e+02   -2.2792599201e+00
    1.1939716339e+02   -2.2898399830e+00
    1.1949597168e+02   -2.3003599644e+00
    1.1959858704e+02   -2.3113799095e+00
    1.1969763947e+02   -2.3220999241e+00
    1.1979670715e+02   -2.3328900337e+00
    1.1989584351e+02   -2.3437299728e+00
    1.1999723053e+02   -2.3548800945e+00
    1.2009609985e+02   -2.3657898903e+00
    1.2019564819e+02   -2.3768200874e+00
    1.2029586029e+02   -2.3879799843e+00
    1.2039730072e+02   -2.3993299007e+00
    1.2049788666e+02   -2.4106400013e+00
    1.2059765625e+02   -2.4219000340e+00
    1.2069728851e+02   -2.4331901073e+00
    1.2079715729e+02   -2.4445199966e+00
    1.2089642334e+02   -2.4557900429e+00
    1.2099806976e+02   -2.4673399925e+00
    1.2109584808e+02   -2.4784300327e+00
    1.2119602966e+02   -2.4897799492e+00
    1.2129643250e+02   -2.5011498928e+00
    1.2139623260e+02   -2.5124499798e+00
    1.2149800110e+02   -2.5239899158e+00
    1.2159812927e+02   -2.5353701115e+00
    1.2169751740e+02   -2.5466799736e+00
    1.2179673004e+02   -2.5580000877e+00
    1.2189659119e+02   -2.5694100857e+00
    1.2199864197e+02   -2.5810599327e+00
    1.2209774017e+02   -2.5923800468e+00
    1.2219712830e+02   -2.6037099361e+00
    1.2229606628e+02   -2.6149899960e+00
    1.2239723206e+02   -2.6265099049e+00
    1.2249627686e+02   -2.6378099918e+00
    1.2259824371e+02   -2.6494600773e+00
    1.2269721985e+02   -2.6608099937e+00
    1.2279615021e+02   -2.6721999645e+00
    1.2289792633e+02   -2.6839599609e+00
    1.2299790192e+02   -2.6955699921e+00
    1.2309812164e+02   -2.7072598934e+00
    1.2319837952e+02   -2.7190299034e+00
    1.2329740143e+02   -2.7307200432e+00
    1.2339640045e+02   -2.7425000668e+00
    1.2349739838e+02   -2.7546300888e+00
    1.2359644318e+02   -2.7666399479e+00
    1.2369834900e+02   -2.7791399956e+00
    1.2379734039e+02   -2.7914199829e+00
    1.2389633942e+02   -2.8038399220e+00
    1.2399862671e+02   -2.8168199062e+00
    1.2409597778e+02   -2.8293099403e+00
    1.2419818115e+02   -2.8425400257e+00
    1.2429708862e+02   -2.8554499149e+00
    1.2439604187e+02   -2.8684699535e+00
    1.2449810028e+02   -2.8819899559e+00
    1.2459866333e+02   -2.8953900337e+00
    1.2469802094e+02   -2.9087200165e+00
    1.2479712677e+02   -2.9220900536e+00
    1.2489721680e+02   -2.9356698990e+00
    1.2499693298e+02   -2.9492700100e+00
    1.2509674072e+02   -2.9629600048e+00
    1.2519627380e+02   -2.9766499996e+00
    1.2529804230e+02   -2.9906899929e+00
    1.2539710236e+02   -3.0043799877e+00
    1.2549848175e+02   -3.0183999538e+00
    1.2559779358e+02   -3.0321400166e+00
    1.2569674683e+02   -3.0458500385e+00
    1.2579627228e+02   -3.0596399307e+00
    1.2589810181e+02   -3.0737700462e+00
    1.2599584198e+02   -3.0873498917e+00
    1.2609777069e+02   -3.1015400887e+00
    1.2619818878e+02   -3.1155500412e+00
    1.2629826355e+02   -3.1295299530e+00
    1.2639833069e+02   -3.1435201168e+00
    1.2649697113e+02   -3.1573300362e+00
    1.2659825134e+02   -3.1715199947e+00
    1.2669740295e+02   -3.1854200363e+00
    1.2679657745e+02   -3.1993501186e+00
    1.2689576721e+02   -3.2132999897e+00
    1.2699786377e+02   -3.2276799679e+00
    1.2709593201e+02   -3.2415199280e+00
    1.2719586945e+02   -3.2556400299e+00
    1.2729583740e+02   -3.2697799206e+00
    1.2739585114e+02   -3.2839300632e+00
    1.2749623108e+02   -3.2981500626e+00
    1.2759603119e+02   -3.3122899532e+00
    1.2769841766e+02   -3.3268299103e+00
    1.2779785156e+02   -3.3409800529e+00
    1.2789723206e+02   -3.3551700115e+00
    1.2799653625e+02   -3.3694100380e+00
    1.2809631348e+02   -3.3838000298e+00
    1.2819665527e+02   -3.3983399868e+00
    1.2829588318e+02   -3.4128201008e+00
    1.2839804077e+02   -3.4278199673e+00
    1.2849728394e+02   -3.4424901009e+00
    1.2859649658e+02   -3.4572401047e+00
    1.2869854736e+02   -3.4725000858e+00
    1.2879736328e+02   -3.4873700142e+00
    1.2889633179e+02   -3.5023400784e+00
    1.2899836731e+02   -3.5178799629e+00
    1.2909622192e+02   -3.5328900814e+00
    1.2919592285e+02   -3.5483000278e+00
    1.2929858398e+02   -3.5642900467e+00
    1.2939643860e+02   -3.5796499252e+00
    1.2949858093e+02   -3.5958199501e+00
    1.2959843445e+02   -3.6117498875e+00
    1.2969607544e+02   -3.6274199486e+00
    1.2979850769e+02   -3.6439599991e+00
    1.2989788818e+02   -3.6600799561e+00
    1.2999841309e+02   -3.6764400005e+00
    1.3009725952e+02   -3.6925899982e+00
    1.3019726562e+02   -3.7089800835e+00
    1.3029771423e+02   -3.7255001068e+00
    1.3039640808e+02   -3.7417900562e+00
    1.3049732971e+02   -3.7585000992e+00
    1.3059719849e+02   -3.7750899792e+00
    1.3069697571e+02   -3.7916998863e+00
    1.3079690552e+02   -3.8083500862e+00
    1.3089837646e+02   -3.8252499104e+00
    1.3099623108e+02   -3.8415300846e+00
    1.3109761047e+02   -3.8583700657e+00
    1.3119572449e+02   -3.8746399879e+00
    1.3129827881e+02   -3.8916099072e+00
    1.3139822388e+02   -3.9081299305e+00
    1.3149719238e+02   -3.9244899750e+00
    1.3159745789e+02   -3.9410700798e+00
    1.3169688416e+02   -3.9575200081e+00
    1.3179627991e+02   -3.9739799500e+00
    1.3189637756e+02   -3.9905600548e+00
    1.3199879456e+02   -4.0075201988e+00
    1.3209808350e+02   -4.0239400864e+00
    1.3219775391e+02   -4.0404000282e+00
    1.3229690552e+02   -4.0567498207e+00
    1.3239843750e+02   -4.0734701157e+00
    1.3249768066e+02   -4.0898199081e+00
    1.3259692383e+02   -4.1061902046e+00
    1.3269609070e+02   -4.1225700378e+00
    1.3279812622e+02   -4.1394600868e+00
    1.3289715576e+02   -4.1559100151e+00
    1.3299708557e+02   -4.1725602150e+00
    1.3309721375e+02   -4.1893200874e+00
    1.3319749451e+02   -4.2061700821e+00
    1.3329670715e+02   -4.2229299545e+00
    1.3339878845e+02   -4.2402801514e+00
    1.3349740601e+02   -4.2571501732e+00
    1.3359660339e+02   -4.2742700577e+00
    1.3369868469e+02   -4.2920298576e+00
    1.3379783630e+02   -4.3094501495e+00
    1.3389700317e+02   -4.3270301819e+00
    1.3399871826e+02   -4.3452401161e+00
    1.3409791565e+02   -4.3631501198e+00
    1.3419795227e+02   -4.3813700676e+00
    1.3429705811e+02   -4.3995499611e+00
    1.3439614868e+02   -4.4178600311e+00
    1.3449836731e+02   -4.4368500710e+00
    1.3459866333e+02   -4.4555997849e+00
    1.3469790649e+02   -4.4742398262e+00
    1.3479722595e+02   -4.4930000305e+00
    1.3489712524e+02   -4.5119600296e+00
    1.3499661255e+02   -4.5309200287e+00
    1.3509623718e+02   -4.5499901772e+00
    1.3519889832e+02   -4.5697097778e+00
    1.3529789734e+02   -4.5887598991e+00
    1.3539724731e+02   -4.6079101562e+00
    1.3549644470e+02   -4.6270298958e+00
    1.3559886169e+02   -4.6467900276e+00
    1.3569735718e+02   -4.6657800674e+00
    1.3579658508e+02   -4.6849198341e+00
    1.3589863586e+02   -4.7045998573e+00
    1.3599894714e+02   -4.7239599228e+00
    1.3609800720e+02   -4.7430801392e+00
    1.3619635010e+02   -4.7620801926e+00
    1.3629757690e+02   -4.7816300392e+00
    1.3639764404e+02   -4.8009700775e+00
    1.3649685669e+02   -4.8201298714e+00
    1.3659835815e+02   -4.8397297859e+00
    1.3669772339e+02   -4.8589000702e+00
    1.3679710388e+02   -4.8780698776e+00
    1.3689649963e+02   -4.8972301483e+00
    1.3699801636e+02   -4.9168000221e+00
    1.3709744263e+02   -4.9359698296e+00
    1.3719804382e+02   -4.9553499222e+00
    1.3729844666e+02   -4.9746899605e+00
    1.3739845276e+02   -4.9939298630e+00
    1.3749873352e+02   -5.0132098198e+00
    1.3759858704e+02   -5.0324201584e+00
    1.3769830322e+02   -5.0516099930e+00
    1.3779800415e+02   -5.0708198547e+00
    1.3789762878e+02   -5.0900602341e+00
    1.3799719238e+02   -5.1093401909e+00
    1.3809832764e+02   -5.1290001869e+00
    1.3819886780e+02   -5.1486401558e+00
    1.3829821777e+02   -5.1681299210e+00
    1.3839749146e+02   -5.1877098083e+00
    1.3849670410e+02   -5.2073698044e+00
    1.3859907532e+02   -5.2277798653e+00
    1.3869848633e+02   -5.2477002144e+00
    1.3879812622e+02   -5.2677798271e+00
    1.3889735413e+02   -5.2878899574e+00
    1.3899655151e+02   -5.3081197739e+00
    1.3909751892e+02   -5.3288397789e+00
    1.3919696045e+02   -5.3493800163e+00
    1.3929641724e+02   -5.3700699806e+00
    1.3939691162e+02   -5.3911399841e+00
    1.3949929810e+02   -5.4127597809e+00
    1.3959913635e+02   -5.4339799881e+00
    1.3969635010e+02   -5.4547600746e+00
    1.3979904175e+02   -5.4768300056e+00
    1.3989779663e+02   -5.4981398582e+00
    1.3999772644e+02   -5.5197801590e+00
    1.4009678650e+02   -5.5412898064e+00
    1.4019720459e+02   -5.5631599426e+00
    1.4029762268e+02   -5.5850801468e+00
    1.4039637756e+02   -5.6066999435e+00
    1.4049839783e+02   -5.6290798187e+00
    1.4059843445e+02   -5.6510601044e+00
    1.4069837952e+02   -5.6730499268e+00
    1.4079846191e+02   -5.6950798035e+00
    1.4089915466e+02   -5.7172098160e+00
    1.4099670410e+02   -5.7386198044e+00
    1.4109852600e+02   -5.7609000206e+00
    1.4119778442e+02   -5.7825698853e+00
    1.4129908752e+02   -5.8046197891e+00
    1.4139923096e+02   -5.8263797760e+00
    1.4149645996e+02   -5.8474597931e+00
    1.4159671021e+02   -5.8691802025e+00
    1.4169926453e+02   -5.8913898468e+00
    1.4179884338e+02   -5.9129400253e+00
    1.4189903259e+02   -5.9345998764e+00
    1.4199874878e+02   -5.9561300278e+00
    1.4209823608e+02   -5.9775600433e+00
    1.4219827271e+02   -5.9990601540e+00
    1.4229757690e+02   -6.0203599930e+00
    1.4239945984e+02   -6.0421700478e+00
    1.4249888611e+02   -6.0634298325e+00
    1.4259843445e+02   -6.0847001076e+00
    1.4269778442e+02   -6.1059298515e+00
    1.4279704285e+02   -6.1271700859e+00
    1.4289918518e+02   -6.1490597725e+00
    1.4299882507e+02   -6.1704502106e+00
    1.4309904480e+02   -6.1920299530e+00
    1.4319660950e+02   -6.2130999565e+00
    1.4329893494e+02   -6.2352900505e+00
    1.4339813232e+02   -6.2568998337e+00
    1.4349688721e+02   -6.2785301208e+00
    1.4359902954e+02   -6.3010601997e+00
    1.4369813538e+02   -6.3230700493e+00
    1.4379718018e+02   -6.3452401161e+00
    1.4389906311e+02   -6.3682298660e+00
    1.4399838257e+02   -6.3908200264e+00
    1.4409762573e+02   -6.4135799408e+00
    1.4419741821e+02   -6.4366397858e+00
    1.4429930115e+02   -6.4603600502e+00
    1.4439808655e+02   -6.4835000038e+00
    1.4449690247e+02   -6.5067901611e+00
    1.4459724426e+02   -6.5305800438e+00
    1.4469912720e+02   -6.5548501015e+00
    1.4479847717e+02   -6.5786399841e+00
    1.4489784241e+02   -6.6025400162e+00
    1.4499708557e+02   -6.6265201569e+00
    1.4509939575e+02   -6.6513199806e+00
    1.4519889832e+02   -6.6755199432e+00
    1.4529689026e+02   -6.6993999481e+00
    1.4539659119e+02   -6.7237200737e+00
    1.4549940491e+02   -6.7488198280e+00
    1.4559890747e+02   -6.7730998993e+00
    1.4569757080e+02   -6.7971701622e+00
    1.4579705811e+02   -6.8214302063e+00
    1.4589936829e+02   -6.8463602066e+00
    1.4599685669e+02   -6.8700900078e+00
    1.4609925842e+02   -6.8949899673e+00
    1.4619770813e+02   -6.9189100266e+00
    1.4629891968e+02   -6.9434700012e+00
    1.4639865112e+02   -6.9676399231e+00
    1.4649757385e+02   -6.9915699959e+00
    1.4659890747e+02   -7.0160398483e+00
    1.4669848633e+02   -7.0400400162e+00
    1.4679806519e+02   -7.0640001297e+00
    1.4689761353e+02   -7.0879001617e+00
    1.4699760437e+02   -7.1118698120e+00
    1.4709765625e+02   -7.1357998848e+00
    1.4719848633e+02   -7.1598701477e+00
    1.4729911804e+02   -7.1838498116e+00
    1.4739939880e+02   -7.2076802254e+00
    1.4749960327e+02   -7.2314701080e+00
    1.4759954834e+02   -7.2551598549e+00
    1.4769949341e+02   -7.2788500786e+00
    1.4779939270e+02   -7.3025298119e+00
    1.4789927673e+02   -7.3262400627e+00
    1.4799908447e+02   -7.3499698639e+00
    1.4809819031e+02   -7.3736000061e+00
    1.4819799805e+02   -7.3974599838e+00
    1.4829713440e+02   -7.4212598801e+00
    1.4839907837e+02   -7.4458198547e+00
    1.4849815369e+02   -7.4697999954e+00
    1.4859788513e+02   -7.4940600395e+00
    1.4869757080e+02   -7.5184202194e+00
    1.4879777527e+02   -7.5430397987e+00
    1.4889901733e+02   -7.5680499077e+00
    1.4899789429e+02   -7.5926299095e+00
    1.4909721375e+02   -7.6174697876e+00
    1.4919915771e+02   -7.6431298256e+00
    1.4929820251e+02   -7.6682300568e+00
    1.4939784241e+02   -7.6936497688e+00
    1.4949815369e+02   -7.7194099426e+00
    1.4959732056e+02   -7.7450499535e+00
    1.4969946289e+02   -7.7715997696e+00
    1.4979916382e+02   -7.7976498604e+00
    1.4989727783e+02   -7.8233900070e+00
    1.4999972534e+02   -7.8503499031e+00
    1.5009852600e+02   -7.8764400482e+00
    1.5019892883e+02   -7.9030199051e+00
    1.5029927063e+02   -7.9296498299e+00
    1.5039811707e+02   -7.9559397697e+00
    1.5049774170e+02   -7.9824900627e+00
    1.5059834290e+02   -8.0093402863e+00
    1.5069851685e+02   -8.0360803604e+00
    1.5079872131e+02   -8.0628299713e+00
    1.5089892578e+02   -8.0895395279e+00
    1.5099935913e+02   -8.1162500381e+00
    1.5109774780e+02   -8.1423501968e+00
    1.5119700623e+02   -8.1685800552e+00
    1.5129869080e+02   -8.1953697205e+00
    1.5139784241e+02   -8.2214097977e+00
    1.5149847412e+02   -8.2477598190e+00
    1.5159919739e+02   -8.2740697861e+00
    1.5169900513e+02   -8.3000898361e+00
    1.5179873657e+02   -8.3260402679e+00
    1.5189889526e+02   -8.3520298004e+00
    1.5199873352e+02   -8.3778696060e+00
    1.5209834290e+02   -8.4035596848e+00
    1.5219880676e+02   -8.4293899536e+00
    1.5229789734e+02   -8.4547700882e+00
    1.5239924622e+02   -8.4806404114e+00
    1.5249899292e+02   -8.5060396194e+00
    1.5259887695e+02   -8.5314197540e+00
    1.5269833374e+02   -8.5566501617e+00
    1.5279774475e+02   -8.5818595886e+00
    1.5290005493e+02   -8.6078100204e+00
    1.5299955750e+02   -8.6330604553e+00
    1.5309942627e+02   -8.6584396362e+00
    1.5320007324e+02   -8.6840801239e+00
    1.5329968262e+02   -8.7095203400e+00
    1.5339871216e+02   -8.7349195480e+00
    1.5349993896e+02   -8.7609996796e+00
    1.5359887695e+02   -8.7866296768e+00
    1.5369766235e+02   -8.8123798370e+00
    1.5379922485e+02   -8.8390502930e+00
    1.5389782715e+02   -8.8651399612e+00
    1.5399966431e+02   -8.8922901154e+00
    1.5409881592e+02   -8.9189395905e+00
    1.5419761658e+02   -8.9457101822e+00
    1.5429908752e+02   -8.9733896255e+00
    1.5439747620e+02   -9.0004301071e+00
    1.5449896240e+02   -9.0284900665e+00
    1.5459909058e+02   -9.0563497543e+00
    1.5469764709e+02   -9.0839099884e+00
    1.5479989624e+02   -9.1126604080e+00
    1.5489924622e+02   -9.1407299042e+00
    1.5499812317e+02   -9.1688003540e+00
    1.5510008240e+02   -9.1978502274e+00
    1.5519926453e+02   -9.2262001038e+00
    1.5529891968e+02   -9.2547397614e+00
    1.5539839172e+02   -9.2832803726e+00
    1.5549804688e+02   -9.3118896484e+00
    1.5559742737e+02   -9.3404197693e+00
    1.5569804382e+02   -9.3692798615e+00
    1.5579777527e+02   -9.3978700638e+00
    1.5589738464e+02   -9.4263801575e+00
    1.5599783325e+02   -9.4550895691e+00
    1.5609727478e+02   -9.4834604263e+00
    1.5619941711e+02   -9.5125398636e+00
    1.5629753113e+02   -9.5404300690e+00
    1.5639733887e+02   -9.5687303543e+00
    1.5649914551e+02   -9.5975198746e+00
    1.5659881592e+02   -9.6256303787e+00
    1.5669854736e+02   -9.6536703110e+00
    1.5679826355e+02   -9.6816101074e+00
    1.5689796448e+02   -9.7094602585e+00
    1.5699757385e+02   -9.7371902466e+00
    1.5709776306e+02   -9.7649898529e+00
    1.5719868469e+02   -9.7928895950e+00
    1.5729939270e+02   -9.8206300735e+00
    1.5739967346e+02   -9.8481702805e+00
    1.5749963379e+02   -9.8755397797e+00
    1.5759965515e+02   -9.9028701782e+00
    1.5769961548e+02   -9.9301500320e+00
    1.5779951477e+02   -9.9573802948e+00
    1.5789947510e+02   -9.9846296310e+00
    1.5799940491e+02   -1.0011899948e+01
    1.5809764099e+02   -1.0038700104e+01
    1.5820002747e+02   -1.0066699982e+01
    1.5829898071e+02   -1.0093799591e+01
    1.5839779663e+02   -1.0121000290e+01
    1.5850007629e+02   -1.0149200439e+01
    1.5860003662e+02   -1.0176899910e+01
    1.5869755554e+02   -1.0204099655e+01
    1.5880044556e+02   -1.0232899666e+01
    1.5889900208e+02   -1.0260600090e+01
    1.5900042725e+02   -1.0289299965e+01
    1.5909895325e+02   -1.0317399979e+01
    1.5920042419e+02   -1.0346400261e+01
    1.5929898071e+02   -1.0374899864e+01
    1.5939840698e+02   -1.0403699875e+01
    1.5949778748e+02   -1.0432800293e+01
    1.5959934998e+02   -1.0462699890e+01
    1.5969805908e+02   -1.0491999626e+01
    1.5979974365e+02   -1.0522299767e+01
    1.5989863586e+02   -1.0551899910e+01
    1.6000053406e+02   -1.0582500458e+01
    1.6009906006e+02   -1.0612299919e+01
    1.6019934082e+02   -1.0642700195e+01
    1.6029916382e+02   -1.0673000336e+01
    1.6039791870e+02   -1.0703100204e+01
    1.6049786377e+02   -1.0733599663e+01
    1.6059939575e+02   -1.0764699936e+01
    1.6069981384e+02   -1.0795399666e+01
    1.6080000305e+02   -1.0826100349e+01
    1.6090029907e+02   -1.0856699944e+01
    1.6099771118e+02   -1.0886500359e+01
    1.6109846497e+02   -1.0917099953e+01
    1.6120046997e+02   -1.0948100090e+01
    1.6129890442e+02   -1.0977800369e+01
    1.6139944458e+02   -1.1008099556e+01
    1.6149827576e+02   -1.1037699699e+01
    1.6159930420e+02   -1.1067899704e+01
    1.6169924927e+02   -1.1097700119e+01
    1.6179910278e+02   -1.1127300262e+01
    1.6189918518e+02   -1.1156900406e+01
    1.6199902344e+02   -1.1186300278e+01
    1.6209866333e+02   -1.1215499878e+01
    1.6219996643e+02   -1.1245100021e+01
    1.6229890442e+02   -1.1273799896e+01
    1.6239979553e+02   -1.1303000450e+01
    1.6249963379e+02   -1.1331700325e+01
    1.6259974670e+02   -1.1360400200e+01
    1.6269804382e+02   -1.1388500214e+01
    1.6279859924e+02   -1.1417200089e+01
    1.6289808655e+02   -1.1445500374e+01
    1.6300056458e+02   -1.1474699974e+01
    1.6310054016e+02   -1.1503100395e+01
    1.6320062256e+02   -1.1531599998e+01
    1.6330038452e+02   -1.1560099602e+01
    1.6340011597e+02   -1.1588700294e+01
    1.6349794006e+02   -1.1616800308e+01
    1.6359959412e+02   -1.1646200180e+01
    1.6369812012e+02   -1.1674799919e+01
    1.6379937744e+02   -1.1704400063e+01
    1.6390052795e+02   -1.1734199524e+01
    1.6399870300e+02   -1.1763400078e+01
    1.6409967041e+02   -1.1793600082e+01
    1.6420057678e+02   -1.1824000359e+01
    1.6430026245e+02   -1.1854399681e+01
    1.6439811707e+02   -1.1884300232e+01
    1.6449902344e+02   -1.1915399551e+01
    1.6459872437e+02   -1.1946399689e+01
    1.6469958496e+02   -1.1977899551e+01
    1.6479811096e+02   -1.2008799553e+01
    1.6489971924e+02   -1.2040900230e+01
    1.6499804688e+02   -1.2072099686e+01
    1.6509944153e+02   -1.2104499817e+01
    1.6519812012e+02   -1.2135999680e+01
    1.6529949951e+02   -1.2168600082e+01
    1.6539848328e+02   -1.2200400352e+01
    1.6550077820e+02   -1.2233400345e+01
    1.6559991455e+02   -1.2265399933e+01
    1.6570046997e+02   -1.2297800064e+01
    1.6580044556e+02   -1.2329999924e+01
    1.6590026855e+02   -1.2362199783e+01
    1.6599803162e+02   -1.2393600464e+01
    1.6610078430e+02   -1.2426600456e+01
    1.6619909668e+02   -1.2458100319e+01
    1.6629939270e+02   -1.2490200043e+01
    1.6639916992e+02   -1.2522100449e+01
    1.6649894714e+02   -1.2553799629e+01
    1.6659872437e+02   -1.2585499763e+01
    1.6669909668e+02   -1.2617199898e+01
    1.6679891968e+02   -1.2648599625e+01
    1.6689869690e+02   -1.2679900169e+01
    1.6699838257e+02   -1.2711099625e+01
    1.6709837341e+02   -1.2742099762e+01
    1.6719935608e+02   -1.2773400307e+01
    1.6730012512e+02   -1.2804400444e+01
    1.6740025330e+02   -1.2835100174e+01
    1.6750022888e+02   -1.2865599632e+01
    1.6760023499e+02   -1.2895999908e+01
    1.6770022583e+02   -1.2926199913e+01
    1.6780007935e+02   -1.2956399918e+01
    1.6789996338e+02   -1.2986499786e+01
    1.6799894714e+02   -1.3016300201e+01
    1.6809992981e+02   -1.3046699524e+01
    1.6819903564e+02   -1.3076499939e+01
    1.6830087280e+02   -1.3107199669e+01
    1.6839961243e+02   -1.3137000084e+01
    1.6849880981e+02   -1.3166999817e+01
    1.6859889221e+02   -1.3197299957e+01
    1.6869902039e+02   -1.3227800369e+01
    1.6879899597e+02   -1.3258399963e+01
    1.6890019226e+02   -1.3289500237e+01
    1.6899842834e+02   -1.3319800377e+01
    1.6909951782e+02   -1.3351300240e+01
    1.6920059204e+02   -1.3382900238e+01
    1.6929873657e+02   -1.3413800240e+01
    1.6939808655e+02   -1.3445400238e+01
    1.6950070190e+02   -1.3478199959e+01
    1.6959881592e+02   -1.3509799957e+01
    1.6969984436e+02   -1.3542599678e+01
    1.6980093384e+02   -1.3575599670e+01
    1.6989918518e+02   -1.3607899666e+01
    1.7000041199e+02   -1.3641400337e+01
    1.7010070801e+02   -1.3674699783e+01
    1.7020014954e+02   -1.3707900047e+01
    1.7029913330e+02   -1.3741100311e+01
    1.7040078735e+02   -1.3775300026e+01
    1.7050038147e+02   -1.3808899879e+01
    1.7059931946e+02   -1.3842399597e+01
    1.7070062256e+02   -1.3876700401e+01
    1.7080021667e+02   -1.3910499573e+01
    1.7089996338e+02   -1.3944299698e+01
    1.7100004578e+02   -1.3978199959e+01
    1.7110087585e+02   -1.4012299538e+01
    1.7119897461e+02   -1.4045299530e+01
    1.7130047607e+02   -1.4079400063e+01
    1.7139909363e+02   -1.4112500191e+01
    1.7149905396e+02   -1.4145799637e+01
    1.7160076904e+02   -1.4179599762e+01
    1.7169842529e+02   -1.4211999893e+01
    1.7179838562e+02   -1.4244899750e+01
    1.7190122986e+02   -1.4278699875e+01
    1.7200105286e+02   -1.4311300278e+01
    1.7210066223e+02   -1.4343600273e+01
    1.7219992065e+02   -1.4375699997e+01
    1.7229861450e+02   -1.4407400131e+01
    1.7239880371e+02   -1.4439399719e+01
    1.7249850464e+02   -1.4470999718e+01
    1.7259887695e+02   -1.4502699852e+01
    1.7269966125e+02   -1.4534399986e+01
    1.7280107117e+02   -1.4566200256e+01
    1.7290054321e+02   -1.4597200394e+01
    1.7300007629e+02   -1.4628199577e+01
    1.7310081482e+02   -1.4659500122e+01
    1.7320054626e+02   -1.4690500259e+01
    1.7330026245e+02   -1.4721500397e+01
    1.7340069580e+02   -1.4752699852e+01
    1.7349873352e+02   -1.4783300400e+01
    1.7360037231e+02   -1.4815099716e+01
    1.7369882202e+02   -1.4845999718e+01
    1.7379991150e+02   -1.4877900124e+01
    1.7390081787e+02   -1.4909999847e+01
    1.7399867249e+02   -1.4941300392e+01
    1.7409928894e+02   -1.4973699570e+01
    1.7419975281e+02   -1.5006299973e+01
    1.7430009460e+02   -1.5039099693e+01
    1.7439906311e+02   -1.5071800232e+01
    1.7449938965e+02   -1.5104999542e+01
    1.7459956360e+02   -1.5138500214e+01
    1.7469976807e+02   -1.5172200203e+01
    1.7480075073e+02   -1.5206399918e+01
    1.7490130615e+02   -1.5240599632e+01
    1.7499894714e+02   -1.5274100304e+01
    1.7509963989e+02   -1.5308799744e+01
    1.7520054626e+02   -1.5343700409e+01
    1.7530018616e+02   -1.5378299713e+01
    1.7539854431e+02   -1.5412699699e+01
    1.7550016785e+02   -1.5448200226e+01
    1.7560113525e+02   -1.5483599663e+01
    1.7569869995e+02   -1.5517900467e+01
    1.7579899597e+02   -1.5553199768e+01
    1.7589888000e+02   -1.5588299751e+01
    1.7600088501e+02   -1.5624199867e+01
    1.7610087585e+02   -1.5659399986e+01
    1.7620086670e+02   -1.5694499969e+01
    1.7629940796e+02   -1.5729100227e+01
    1.7639942932e+02   -1.5764200211e+01
    1.7649940491e+02   -1.5799200058e+01
    1.7659934998e+02   -1.5833999634e+01
    1.7669929504e+02   -1.5868800163e+01
    1.7679924011e+02   -1.5903400421e+01
    1.7689910889e+02   -1.5937800407e+01
    1.7699890137e+02   -1.5972000122e+01
    1.7709878540e+02   -1.6006099701e+01
    1.7719978333e+02   -1.6040399551e+01
    1.7729963684e+02   -1.6074100494e+01
    1.7739955139e+02   -1.6107700348e+01
    1.7749954224e+02   -1.6141000748e+01
    1.7759953308e+02   -1.6174200058e+01
    1.7769949341e+02   -1.6207199097e+01
    1.7779942322e+02   -1.6239999771e+01
    1.7789976501e+02   -1.6272899628e+01
    1.7799899292e+02   -1.6305200577e+01
    1.7810101318e+02   -1.6338399887e+01
    1.7820033264e+02   -1.6370599747e+01
    1.7829945374e+02   -1.6402700424e+01
    1.7840133667e+02   -1.6435699463e+01
    1.7850086975e+02   -1.6467899323e+01
    1.7860093689e+02   -1.6500299454e+01
    1.7869949341e+02   -1.6532400131e+01
    1.7879885864e+02   -1.6564699173e+01
    1.7890013123e+02   -1.6597799301e+01
    1.7900125122e+02   -1.6631099701e+01
    1.7909939575e+02   -1.6663400650e+01
    1.7920033264e+02   -1.6696899414e+01
    1.7930116272e+02   -1.6730600357e+01
    1.7940115356e+02   -1.6764200211e+01
    1.7950016785e+02   -1.6797800064e+01
    1.7960073853e+02   -1.6832099915e+01
    1.7970123291e+02   -1.6866600037e+01
    1.7980169678e+02   -1.6901399612e+01
    1.7989927673e+02   -1.6935400009e+01
    1.7999972534e+02   -1.6970699310e+01
    1.8009909058e+02   -1.7005699158e+01
    1.8020074463e+02   -1.7041799545e+01
    1.8029931641e+02   -1.7076999664e+01
    1.8040045166e+02   -1.7113199234e+01
    1.8049902344e+02   -1.7148700714e+01
    1.8060032654e+02   -1.7185300827e+01
    1.8070155334e+02   -1.7222000122e+01
    1.8080059814e+02   -1.7257999420e+01
    1.8089994812e+02   -1.7294099808e+01
    1.8099926758e+02   -1.7330200195e+01
    1.8109954834e+02   -1.7366699219e+01
    1.8119993591e+02   -1.7403200150e+01
    1.8130146790e+02   -1.7440000534e+01
    1.8139889526e+02   -1.7475299835e+01
    1.8149876404e+02   -1.7511400223e+01
    1.8160101318e+02   -1.7548299789e+01
    1.8169926453e+02   -1.7583499908e+01
    1.8179940796e+02   -1.7619400024e+01
    1.8189938354e+02   -1.7655000687e+01
    1.8199920654e+02   -1.7690399170e+01
    1.8210177612e+02   -1.7726699829e+01
    1.8220063782e+02   -1.7761400223e+01
    1.8229936218e+02   -1.7795799255e+01
    1.8239932251e+02   -1.7830499649e+01
    1.8250152588e+02   -1.7865699768e+01
    1.8260078430e+02   -1.7899700165e+01
    1.8270138550e+02   -1.7934000015e+01
    1.8279986572e+02   -1.7967300415e+01
    1.8289918518e+02   -1.8000699997e+01
    1.8300154114e+02   -1.8034999847e+01
    1.8310110474e+02   -1.8068199158e+01
    1.8320077515e+02   -1.8101299286e+01
    1.8330044556e+02   -1.8134399414e+01
    1.8340028381e+02   -1.8167400360e+01
    1.8350192261e+02   -1.8201000214e+01
    1.8360084534e+02   -1.8233699799e+01
    1.8369946289e+02   -1.8266300201e+01
    1.8380068970e+02   -1.8299900055e+01
    1.8390167236e+02   -1.8333499908e+01
    1.8399955750e+02   -1.8366199493e+01
    1.8410011292e+02   -1.8399900436e+01
    1.8420053101e+02   -1.8433799744e+01
    1.8430076599e+02   -1.8467800140e+01
    1.8440083313e+02   -1.8502000809e+01
    1.8449954224e+02   -1.8535900116e+01
    1.8459948730e+02   -1.8570499420e+01
    1.8469935608e+02   -1.8605199814e+01
    1.8479922485e+02   -1.8640199661e+01
    1.8490197754e+02   -1.8676399231e+01
    1.8500195312e+02   -1.8711799622e+01
    1.8510205078e+02   -1.8747499466e+01
    1.8519941711e+02   -1.8782400131e+01
    1.8529980469e+02   -1.8818599701e+01
    1.8540138245e+02   -1.8855400085e+01
    1.8549914551e+02   -1.8891000748e+01
    1.8559921265e+02   -1.8927499771e+01
    1.8570036316e+02   -1.8964599609e+01
    1.8580137634e+02   -1.9001699448e+01
    1.8590093994e+02   -1.9038400650e+01
    1.8599963379e+02   -1.9074800491e+01
    1.8610177612e+02   -1.9112499237e+01
    1.8620098877e+02   -1.9149299622e+01
    1.8630192566e+02   -1.9186599731e+01
    1.8639956665e+02   -1.9222799301e+01
    1.8650006104e+02   -1.9260000229e+01
    1.8660047913e+02   -1.9297100067e+01
    1.8670085144e+02   -1.9334100723e+01
    1.8680116272e+02   -1.9371000290e+01
    1.8690139771e+02   -1.9407699585e+01
    1.8700151062e+02   -1.9444299698e+01
    1.8710008240e+02   -1.9480100632e+01
    1.8720019531e+02   -1.9516300201e+01
    1.8730024719e+02   -1.9552299500e+01
    1.8740034485e+02   -1.9588100433e+01
    1.8750044250e+02   -1.9623600006e+01
    1.8760052490e+02   -1.9659000397e+01
    1.8770051575e+02   -1.9694000244e+01
    1.8780041504e+02   -1.9728900909e+01
    1.8790040588e+02   -1.9763500214e+01
    1.8799919128e+02   -1.9797500610e+01
    1.8810060120e+02   -1.9832300186e+01
    1.8820030212e+02   -1.9866300583e+01
    1.8829986572e+02   -1.9900100708e+01
    1.8840226746e+02   -1.9934700012e+01
    1.8850216675e+02   -1.9968399048e+01
    1.8860206604e+02   -2.0002099991e+01
    1.8870098877e+02   -2.0035299301e+01
    1.8880226135e+02   -2.0069400787e+01
    1.8890101624e+02   -2.0102600098e+01
    1.8899957275e+02   -2.0135799408e+01
    1.8910084534e+02   -2.0169900894e+01
    1.8920196533e+02   -2.0204099655e+01
    1.8930003357e+02   -2.0237300873e+01
    1.8940080261e+02   -2.0271600723e+01
    1.8950141907e+02   -2.0305999756e+01
    1.8960185242e+02   -2.0340599060e+01
    1.8970210266e+02   -2.0375200272e+01
    1.8980220032e+02   -2.0409999847e+01
    1.8990220642e+02   -2.0444999695e+01
    1.9000212097e+02   -2.0480100632e+01
    1.9010038757e+02   -2.0514900208e+01
    1.9020155334e+02   -2.0550800323e+01
    1.9029957581e+02   -2.0585800171e+01
    1.9040022278e+02   -2.0621900558e+01
    1.9050076294e+02   -2.0658199310e+01
    1.9060049438e+02   -2.0694299698e+01
    1.9070028687e+02   -2.0730600357e+01
    1.9080137634e+02   -2.0767499924e+01
    1.9090109253e+02   -2.0804000854e+01
    1.9100244141e+02   -2.0841299057e+01
    1.9109992981e+02   -2.0877199173e+01
    1.9119946289e+02   -2.0913900375e+01
    1.9130085754e+02   -2.0951299667e+01
    1.9140020752e+02   -2.0988000870e+01
    1.9150148010e+02   -2.1025400162e+01
    1.9159985352e+02   -2.1061700821e+01
    1.9169978333e+02   -2.1098499298e+01
    1.9180043030e+02   -2.1135599136e+01
    1.9189962769e+02   -2.1172000885e+01
    1.9199989319e+02   -2.1208700180e+01
    1.9209992981e+02   -2.1245300293e+01
    1.9220080566e+02   -2.1281900406e+01
    1.9230076599e+02   -2.1318099976e+01
    1.9240103149e+02   -2.1354099274e+01
    1.9250047302e+02   -2.1389699936e+01
    1.9259985352e+02   -2.1424999237e+01
    1.9270100403e+02   -2.1460599899e+01
    1.9280021667e+02   -2.1495300293e+01
    1.9290255737e+02   -2.1530899048e+01
    1.9300204468e+02   -2.1565299988e+01
    1.9310166931e+02   -2.1599399567e+01
    1.9320137024e+02   -2.1633399963e+01
    1.9330107117e+02   -2.1667200089e+01
    1.9340020752e+02   -2.1700599670e+01
    1.9350158691e+02   -2.1734600067e+01
    1.9360217285e+02   -2.1768100739e+01
    1.9370120239e+02   -2.1801099777e+01
    1.9379995728e+02   -2.1833900452e+01
    1.9390139771e+02   -2.1867500305e+01
    1.9400259399e+02   -2.1900999069e+01
    1.9410072327e+02   -2.1933599472e+01
    1.9420155334e+02   -2.1967100143e+01
    1.9430221558e+02   -2.2000600815e+01
    1.9439982605e+02   -2.2033100128e+01
[...]
    2.5130459595e+02   -2.8038600922e+01
    2.5140367126e+02   -2.8018499374e+01
    2.5150541687e+02   -2.7997600555e+01
    2.5160406494e+02   -2.7977100372e+01
    2.5170579529e+02   -2.7955799103e+01
    2.5180497742e+02   -2.7934700012e+01
    2.5190461731e+02   -2.7913400650e+01
    2.5200338745e+02   -2.7891899109e+01
    2.5210530090e+02   -2.7869600296e+01
    2.5220417786e+02   -2.7847600937e+01
    2.5230569458e+02   -2.7824899673e+01
    2.5240473938e+02   -2.7802400589e+01
    2.5250381470e+02   -2.7779699326e+01
    2.5260583496e+02   -2.7756099701e+01
    2.5270489502e+02   -2.7732999802e+01
    2.5280392456e+02   -2.7709600449e+01
    2.5290574646e+02   -2.7685400009e+01
    2.5300456238e+02   -2.7661699295e+01
    2.5310610962e+02   -2.7637199402e+01
    2.5320460510e+02   -2.7613300323e+01
    2.5330584717e+02   -2.7588600159e+01
    2.5340403748e+02   -2.7564500809e+01
    2.5350495911e+02   -2.7539600372e+01
    2.5360574341e+02   -2.7514799118e+01
    2.5370349121e+02   -2.7490600586e+01
    2.5380397034e+02   -2.7465700150e+01
    2.5390432739e+02   -2.7440799713e+01
    2.5400456238e+02   -2.7416000366e+01
    2.5410557556e+02   -2.7391000748e+01
    2.5420396423e+02   -2.7366699219e+01
    2.5430386353e+02   -2.7342100143e+01
    2.5440368652e+02   -2.7317600250e+01
    2.5450627136e+02   -2.7292400360e+01
    2.5460595703e+02   -2.7267999649e+01
    2.5470561218e+02   -2.7243700027e+01
    2.5480526733e+02   -2.7219400406e+01
    2.5490603638e+02   -2.7194999695e+01
    2.5500520325e+02   -2.7170999527e+01
    2.5510429382e+02   -2.7146999359e+01
    2.5520428467e+02   -2.7122900009e+01
    2.5530436707e+02   -2.7098699570e+01
    2.5540454102e+02   -2.7074499130e+01
    2.5550346375e+02   -2.7050699234e+01
    2.5560598755e+02   -2.7025899887e+01
    2.5570472717e+02   -2.7002000809e+01
    2.5580427551e+02   -2.6977899551e+01
    2.5590379333e+02   -2.6953800201e+01
    2.5600619507e+02   -2.6928800583e+01
    2.5610562134e+02   -2.6904600143e+01
    2.5620501709e+02   -2.6880300522e+01
    2.5630447388e+02   -2.6855899811e+01
    2.5640393066e+02   -2.6831399918e+01
    2.5650631714e+02   -2.6806100845e+01
    2.5660577393e+02   -2.6781400681e+01
    2.5670516968e+02   -2.6756599426e+01
    2.5680453491e+02   -2.6731800079e+01
    2.5690383911e+02   -2.6706800461e+01
    2.5700604248e+02   -2.6680999756e+01
    2.5710537720e+02   -2.6655700684e+01
    2.5720410156e+02   -2.6630399704e+01
    2.5730538940e+02   -2.6604299545e+01
    2.5740405273e+02   -2.6578699112e+01
    2.5750570679e+02   -2.6552000046e+01
    2.5760452271e+02   -2.6525899887e+01
    2.5770632935e+02   -2.6498800278e+01
    2.5780361938e+02   -2.6472600937e+01
    2.5790444946e+02   -2.6445199966e+01
    2.5800573730e+02   -2.6417499542e+01
    2.5810363770e+02   -2.6390399933e+01
    2.5820565796e+02   -2.6361900330e+01
    2.5830474854e+02   -2.6333999634e+01
    2.5840374756e+02   -2.6305900574e+01
    2.5850555420e+02   -2.6276800156e+01
    2.5860437012e+02   -2.6248300552e+01
    2.5870602417e+02   -2.6218799591e+01
    2.5880465698e+02   -2.6190000534e+01
    2.5890612793e+02   -2.6160200119e+01
    2.5900457764e+02   -2.6131299973e+01
    2.5910574341e+02   -2.6101400375e+01
    2.5920382690e+02   -2.6072399139e+01
    2.5930459595e+02   -2.6042499542e+01
    2.5940518188e+02   -2.6012800217e+01
    2.5950555420e+02   -2.5982999802e+01
    2.5960574341e+02   -2.5953399658e+01
    2.5970581055e+02   -2.5923900604e+01
    2.5980572510e+02   -2.5894399643e+01
    2.5990554810e+02   -2.5865100861e+01
    2.6000524902e+02   -2.5835899353e+01
    2.6010552979e+02   -2.5806699753e+01
    2.6020477295e+02   -2.5777799606e+01
    2.6030453491e+02   -2.5748899460e+01
    2.6040423584e+02   -2.5720100403e+01
    2.6050384521e+02   -2.5691499710e+01
    2.6060467529e+02   -2.5662500381e+01
    2.6070376587e+02   -2.5634199142e+01
    2.6080603027e+02   -2.5604999542e+01
    2.6090512085e+02   -2.5576700211e+01
    2.6100628662e+02   -2.5548000336e+01
    2.6110632324e+02   -2.5519500732e+01
    2.6120635986e+02   -2.5491100311e+01
    2.6130630493e+02   -2.5462699890e+01
    2.6140621948e+02   -2.5434299469e+01
    2.6150613403e+02   -2.5405899048e+01
    2.6160607910e+02   -2.5377399445e+01
    2.6170596313e+02   -2.5348899841e+01
    2.6180587769e+02   -2.5320199966e+01
    2.6190573120e+02   -2.5291500092e+01
    2.6200393677e+02   -2.5263099670e+01
    2.6210537720e+02   -2.5233699799e+01
    2.6220388794e+02   -2.5204900742e+01
    2.6230584717e+02   -2.5174900055e+01
    2.6240612793e+02   -2.5145200729e+01
    2.6250573730e+02   -2.5115499496e+01
    2.6260507202e+02   -2.5085599899e+01
    2.6270428467e+02   -2.5055599213e+01
    2.6280648804e+02   -2.5024400711e+01
    2.6290579224e+02   -2.4993799210e+01
    2.6300506592e+02   -2.4962999344e+01
    2.6310430908e+02   -2.4931999207e+01
    2.6320642090e+02   -2.4899799347e+01
    2.6330551147e+02   -2.4868200302e+01
    2.6340457153e+02   -2.4836500168e+01
    2.6350643921e+02   -2.4803600311e+01
    2.6360531616e+02   -2.4771400452e+01
    2.6370407104e+02   -2.4739099503e+01
    2.6380563354e+02   -2.4705699921e+01
    2.6390417480e+02   -2.4673099518e+01
    2.6400555420e+02   -2.4639400482e+01
    2.6410681152e+02   -2.4605600357e+01
    2.6420578003e+02   -2.4572500229e+01
    2.6430679321e+02   -2.4538600922e+01
    2.6440481567e+02   -2.4505599976e+01
    2.6450561523e+02   -2.4471700668e+01
    2.6460632324e+02   -2.4437700272e+01
    2.6470687866e+02   -2.4403799057e+01
    2.6480450439e+02   -2.4370800018e+01
    2.6490499878e+02   -2.4336900711e+01
    2.6500469971e+02   -2.4303300858e+01
    2.6510684204e+02   -2.4268899918e+01
    2.6520410156e+02   -2.4236200333e+01
    2.6530435181e+02   -2.4202499390e+01
    2.6540435791e+02   -2.4168899536e+01
    2.6550506592e+02   -2.4135200500e+01
    2.6560601807e+02   -2.4101499557e+01
    2.6570590210e+02   -2.4068199158e+01
    2.6580636597e+02   -2.4034700394e+01
    2.6590658569e+02   -2.4001399994e+01
    2.6600436401e+02   -2.3968999863e+01
    2.6610504150e+02   -2.3935699463e+01
    2.6620568848e+02   -2.3902500153e+01
    2.6630630493e+02   -2.3869499207e+01
    2.6640695190e+02   -2.3836500168e+01
    2.6650457764e+02   -2.3804500580e+01
    2.6660464478e+02   -2.3771799088e+01
    2.6670520020e+02   -2.3739000320e+01
    2.6680572510e+02   -2.3706300735e+01
    2.6690625000e+02   -2.3673500061e+01
    2.6700677490e+02   -2.3640699387e+01
    2.6710437012e+02   -2.3608900070e+01
    2.6720498657e+02   -2.3576000214e+01
    2.6730422974e+02   -2.3543500900e+01
    2.6740451050e+02   -2.3510599136e+01
    2.6750646973e+02   -2.3476999283e+01
    2.6760678101e+02   -2.3443700790e+01
    2.6770437622e+02   -2.3411199570e+01
    2.6780633545e+02   -2.3376899719e+01
    2.6790496826e+02   -2.3343500137e+01
    2.6800674438e+02   -2.3308799744e+01
    2.6810458374e+02   -2.3275100708e+01
    2.6820516968e+02   -2.3240100861e+01
    2.6830477905e+02   -2.3205200195e+01
    2.6840444946e+02   -2.3170000076e+01
    2.6850701904e+02   -2.3133399963e+01
    2.6860668945e+02   -2.3097600937e+01
    2.6870629883e+02   -2.3061500549e+01
    2.6880685425e+02   -2.3024700165e+01
    2.6890515137e+02   -2.2988599777e+01
    2.6900457764e+02   -2.2951700211e+01
    2.6910681152e+02   -2.2913600922e+01
    2.6920593262e+02   -2.2876399994e+01
    2.6930487061e+02   -2.2839199066e+01
    2.6940646362e+02   -2.2800800323e+01
    2.6950497437e+02   -2.2763399124e+01
    2.6960614014e+02   -2.2725000381e+01
    2.6970712280e+02   -2.2686599731e+01
    2.6980502319e+02   -2.2649299622e+01
    2.6990563965e+02   -2.2611099243e+01
    2.7000604248e+02   -2.2572900772e+01
    2.7010711670e+02   -2.2534400940e+01
    2.7020712280e+02   -2.2496400833e+01
    2.7030587769e+02   -2.2458900452e+01
    2.7040597534e+02   -2.2420999527e+01
    2.7050460815e+02   -2.2383699417e+01
    2.7060604858e+02   -2.2345500946e+01
    2.7070709229e+02   -2.2307500839e+01
    2.7080593872e+02   -2.2270500183e+01
    2.7090509033e+02   -2.2233499527e+01
    2.7100726318e+02   -2.2195400238e+01
    2.7110586548e+02   -2.2158800125e+01
    2.7120730591e+02   -2.2121200562e+01
    2.7130557251e+02   -2.2084899902e+01
    2.7140661621e+02   -2.2047700882e+01
    2.7150445557e+02   -2.2011699677e+01
    2.7160504150e+02   -2.1974899292e+01
    2.7170538330e+02   -2.1938100815e+01
    2.7180520630e+02   -2.1901599884e+01
    2.7190487671e+02   -2.1865299225e+01
    2.7200482178e+02   -2.1828800201e+01
    2.7210644531e+02   -2.1791700363e+01
    2.7220547485e+02   -2.1755599976e+01
    2.7230447388e+02   -2.1719299316e+01
    2.7240615845e+02   -2.1681999207e+01
    2.7250506592e+02   -2.1645700455e+01
    2.7260449219e+02   -2.1608999252e+01
    2.7270648193e+02   -2.1571199417e+01
    2.7280520630e+02   -2.1534400940e+01
    2.7290698242e+02   -2.1496299744e+01
    2.7300592041e+02   -2.1459100723e+01
    2.7310491943e+02   -2.1421600342e+01
    2.7320709229e+02   -2.1382699966e+01
    2.7330664062e+02   -2.1344499588e+01
    2.7340609741e+02   -2.1306100845e+01
    2.7350692749e+02   -2.1266799927e+01
    2.7360632324e+02   -2.1227800369e+01
    2.7370562744e+02   -2.1188499451e+01
    2.7380496216e+02   -2.1149000168e+01
    2.7390719604e+02   -2.1107999802e+01
    2.7400653076e+02   -2.1068000793e+01
    2.7410583496e+02   -2.1027700424e+01
    2.7420565796e+02   -2.0986999512e+01
    2.7430487061e+02   -2.0946300507e+01
    2.7440618896e+02   -2.0904499054e+01
    2.7450527954e+02   -2.0863500595e+01
    2.7460714722e+02   -2.0821199417e+01
    2.7470596313e+02   -2.0780000687e+01
    2.7480752563e+02   -2.0737499237e+01
    2.7490606689e+02   -2.0696300507e+01
    2.7500735474e+02   -2.0653699875e+01
    2.7510452271e+02   -2.0612899780e+01
    2.7520730591e+02   -2.0569700241e+01
    2.7530743408e+02   -2.0527500153e+01
    2.7540634155e+02   -2.0485900879e+01
    2.7550521851e+02   -2.0444299698e+01
    2.7560568237e+02   -2.0402099609e+01
    2.7570596313e+02   -2.0360000610e+01
    2.7580603027e+02   -2.0318000793e+01
    2.7590707397e+02   -2.0275699615e+01
    2.7600546265e+02   -2.0234699249e+01
    2.7610693359e+02   -2.0192399979e+01
    2.7620544434e+02   -2.0151599884e+01
    2.7630694580e+02   -2.0109600067e+01
    2.7640545654e+02   -2.0069000244e+01
    2.7650692749e+02   -2.0027399063e+01
    2.7660534668e+02   -1.9987199783e+01
    2.7670513916e+02   -1.9946500778e+01
    2.7680569458e+02   -1.9905700684e+01
    2.7690682983e+02   -1.9864700317e+01
    2.7700494385e+02   -1.9825099945e+01
    2.7710607910e+02   -1.9784299850e+01
    2.7720550537e+02   -1.9744300842e+01
    2.7730548096e+02   -1.9704099655e+01
    2.7740753174e+02   -1.9663099289e+01
    2.7750726318e+02   -1.9622999191e+01
    2.7760671997e+02   -1.9583000183e+01
    2.7770730591e+02   -1.9542400360e+01
    2.7780545044e+02   -1.9502700806e+01
    2.7790686035e+02   -1.9461399078e+01
    2.7800540161e+02   -1.9421100616e+01
    2.7810723877e+02   -1.9379299164e+01
    2.7820736694e+02   -1.9337900162e+01
    2.7830740356e+02   -1.9296199799e+01
    2.7840707397e+02   -1.9254499435e+01
    2.7850683594e+02   -1.9212400436e+01
    2.7860668945e+02   -1.9170000076e+01
    2.7870657349e+02   -1.9127300262e+01
    2.7880569458e+02   -1.9084600449e+01
    2.7890713501e+02   -1.9040599823e+01
    2.7900527954e+02   -1.8997800827e+01
    2.7910519409e+02   -1.8953899384e+01
    2.7920501709e+02   -1.8909799576e+01
    2.7930764771e+02   -1.8864099503e+01
    2.7940722656e+02   -1.8819599152e+01
    2.7950665283e+02   -1.8774999619e+01
    2.7960589600e+02   -1.8730300903e+01
    2.7970501709e+02   -1.8685499191e+01
    2.7980685425e+02   -1.8639400482e+01
    2.7990560913e+02   -1.8594499588e+01
    2.8000708008e+02   -1.8548400879e+01
    2.8010635376e+02   -1.8503099442e+01
    2.8020736694e+02   -1.8456899643e+01
    2.8030603027e+02   -1.8411800385e+01
    2.8040756226e+02   -1.8365299225e+01
    2.8050518799e+02   -1.8320699692e+01
    2.8060638428e+02   -1.8274400711e+01
    2.8070724487e+02   -1.8228300095e+01
    2.8080560303e+02   -1.8183399200e+01
    2.8090786743e+02   -1.8136899948e+01
    2.8100491333e+02   -1.8092800140e+01
    2.8110754395e+02   -1.8046300888e+01
    2.8120553589e+02   -1.8002000809e+01
    2.8130642700e+02   -1.7956499100e+01
    2.8140719604e+02   -1.7911300659e+01
    2.8150781250e+02   -1.7866199493e+01
    2.8160528564e+02   -1.7822599411e+01
    2.8170626831e+02   -1.7777599335e+01
    2.8180615234e+02   -1.7733299255e+01
    2.8190753174e+02   -1.7688400269e+01
    2.8200512695e+02   -1.7645399094e+01
    2.8210522461e+02   -1.7601299286e+01
    2.8220538330e+02   -1.7557399750e+01
    2.8230551147e+02   -1.7513399124e+01
    2.8240527344e+02   -1.7469699860e+01
    2.8250689697e+02   -1.7425199509e+01
    2.8260800171e+02   -1.7380899429e+01
    2.8270602417e+02   -1.7337900162e+01
    2.8280703735e+02   -1.7293500900e+01
    2.8290533447e+02   -1.7250200272e+01
    2.8300534058e+02   -1.7206100464e+01
    2.8310781860e+02   -1.7160800934e+01
    2.8320501709e+02   -1.7117599487e+01
    2.8330737305e+02   -1.7072000504e+01
    2.8340557861e+02   -1.7027999878e+01
    2.8350738525e+02   -1.6982099533e+01
    2.8360629272e+02   -1.6937400818e+01
    2.8370724487e+02   -1.6891399384e+01
    2.8380541992e+02   -1.6846399307e+01
    2.8390682983e+02   -1.6799699783e+01
    2.8400744629e+02   -1.6753099442e+01
    2.8410733032e+02   -1.6706600189e+01
    2.8420730591e+02   -1.6659700394e+01
    2.8430804443e+02   -1.6612300873e+01
    2.8440728760e+02   -1.6565299988e+01
    2.8450616455e+02   -1.6518299103e+01
    2.8460617065e+02   -1.6470600128e+01
    2.8470608521e+02   -1.6422800064e+01
    2.8480587769e+02   -1.6374799728e+01
    2.8490557861e+02   -1.6326599121e+01
    2.8500808716e+02   -1.6277000427e+01
    2.8510601807e+02   -1.6229400635e+01
    2.8520596313e+02   -1.6180799484e+01
    2.8530740356e+02   -1.6131299973e+01
    2.8540774536e+02   -1.6082300186e+01
    2.8550650024e+02   -1.6034000397e+01
    2.8560791016e+02   -1.5984399796e+01
    2.8570620728e+02   -1.5936300278e+01
    2.8580712891e+02   -1.5887000084e+01
    2.8590777588e+02   -1.5837800026e+01
    2.8600820923e+02   -1.5788800240e+01
    2.8610571289e+02   -1.5741299629e+01
    2.8620672607e+02   -1.5692199707e+01
    2.8630773926e+02   -1.5643199921e+01
    2.8640579224e+02   -1.5595800400e+01
    2.8650677490e+02   -1.5547100067e+01
    2.8660769653e+02   -1.5498700142e+01
    2.8670593262e+02   -1.5451700211e+01
    2.8680712891e+02   -1.5403400421e+01
    2.8690548706e+02   -1.5356800079e+01
    2.8700750732e+02   -1.5308500290e+01
    2.8710751343e+02   -1.5261400223e+01
    2.8720712280e+02   -1.5214599609e+01
    2.8730722046e+02   -1.5167799950e+01
    2.8740753174e+02   -1.5121000290e+01
    2.8750802612e+02   -1.5074199677e+01
    2.8760568237e+02   -1.5028800011e+01
    2.8770660400e+02   -1.4981900215e+01
    2.8780776978e+02   -1.4934900284e+01
    2.8790612793e+02   -1.4889200211e+01
    2.8800711060e+02   -1.4842200279e+01
    2.8810693359e+02   -1.4795599937e+01
    2.8820626831e+02   -1.4749099731e+01
    2.8830804443e+02   -1.4701199532e+01
    2.8840725708e+02   -1.4654399872e+01
    2.8850570679e+02   -1.4607799530e+01
    2.8860803223e+02   -1.4559200287e+01
    2.8870806885e+02   -1.4511400223e+01
    2.8880786133e+02   -1.4463399887e+01
    2.8890798950e+02   -1.4415100098e+01
    2.8900781250e+02   -1.4366700172e+01
    2.8910766602e+02   -1.4317999840e+01
    2.8920755005e+02   -1.4269100189e+01
    2.8930749512e+02   -1.4219900131e+01
    2.8940753174e+02   -1.4170499802e+01
    2.8950759888e+02   -1.4120800018e+01
    2.8960769653e+02   -1.4070899963e+01
    2.8970782471e+02   -1.4020799637e+01
    2.8980786133e+02   -1.3970600128e+01
    2.8990762329e+02   -1.3920399666e+01
    2.9000726318e+02   -1.3870200157e+01
    2.9010800171e+02   -1.3819199562e+01
    2.9020730591e+02   -1.3768799782e+01
    2.9030715942e+02   -1.3718099594e+01
    2.9040750122e+02   -1.3666999817e+01
    2.9050701904e+02   -1.3616200447e+01
    2.9060614014e+02   -1.3565699577e+01
    2.9070812988e+02   -1.3513699532e+01
    2.9080688477e+02   -1.3463299751e+01
    2.9090582275e+02   -1.3412899971e+01
    2.9100827026e+02   -1.3360799789e+01
    2.9110586548e+02   -1.3311300278e+01
    2.9120690918e+02   -1.3260100365e+01
    2.9130642700e+02   -1.3209799767e+01
    2.9140646362e+02   -1.3159399986e+01
    2.9150601196e+02   -1.3109399796e+01
    2.9160845947e+02   -1.3058099747e+01
    2.9170816040e+02   -1.3008399963e+01
    2.9180841064e+02   -1.2958600044e+01
    2.9190777588e+02   -1.2909399986e+01
    2.9200796509e+02   -1.2859999657e+01
    2.9210812378e+02   -1.2810799599e+01
    2.9220812988e+02   -1.2761799812e+01
    2.9230816650e+02   -1.2713000298e+01
    2.9240652466e+02   -1.2665200233e+01
    2.9250711060e+02   -1.2616499901e+01
    2.9260812378e+02   -1.2567600250e+01
    2.9270602417e+02   -1.2520299911e+01
    2.9280688477e+02   -1.2471599579e+01
    2.9290826416e+02   -1.2422699928e+01
    2.9300650024e+02   -1.2375300407e+01
    2.9310705566e+02   -1.2326800346e+01
    2.9320559692e+02   -1.2279299736e+01
    2.9330740356e+02   -1.2230099678e+01
    2.9340576172e+02   -1.2182499886e+01
    2.9350689697e+02   -1.2133500099e+01
    2.9360775757e+02   -1.2084400177e+01
    2.9370593262e+02   -1.2036499977e+01
    2.9380697632e+02   -1.1987099648e+01
    2.9390765381e+02   -1.1937600136e+01
    2.9400762939e+02   -1.1888299942e+01
    2.9410824585e+02   -1.1838500023e+01
    2.9420800781e+02   -1.1788900375e+01
    2.9430648804e+02   -1.1739700317e+01
    2.9440670776e+02   -1.1689499855e+01
    2.9450732422e+02   -1.1638999939e+01
    2.9460714722e+02   -1.1588600159e+01
    2.9470648193e+02   -1.1538299561e+01
    2.9480871582e+02   -1.1486399651e+01
    2.9490808105e+02   -1.1435799599e+01
    2.9500744629e+02   -1.1385000229e+01
    2.9510705566e+02   -1.1333900452e+01
    2.9520745850e+02   -1.1282199860e+01
    2.9530770874e+02   -1.1230500221e+01
    2.9540774536e+02   -1.1178799629e+01
    2.9550759888e+02   -1.1127099991e+01
    2.9560720825e+02   -1.1075499535e+01
    2.9570654297e+02   -1.1023900032e+01
    2.9580853271e+02   -1.0971099854e+01
    2.9590734863e+02   -1.0919899940e+01
    2.9600875854e+02   -1.0867400169e+01
    2.9610723877e+02   -1.0816499710e+01
    2.9620745850e+02   -1.0764800072e+01
    2.9630773926e+02   -1.0713100433e+01
    2.9640808105e+02   -1.0661600113e+01
    2.9650860596e+02   -1.0610199928e+01
    2.9660769653e+02   -1.0559700012e+01
    2.9670867920e+02   -1.0508500099e+01
    2.9680654907e+02   -1.0459099770e+01
    2.9690777588e+02   -1.0408200264e+01
    2.9700604248e+02   -1.0359100342e+01
    2.9710754395e+02   -1.0308699608e+01
    2.9720614624e+02   -1.0259900093e+01
    2.9730706787e+02   -1.0210300446e+01
    2.9740649414e+02   -1.0161600113e+01
    2.9750732422e+02   -1.0112400055e+01
    2.9760830688e+02   -1.0063400269e+01
    2.9770645142e+02   -1.0015899658e+01
    2.9780783081e+02   -9.9669198990e+00
    2.9790640259e+02   -9.9194297791e+00
    2.9800796509e+02   -9.8705596924e+00
    2.9810800171e+02   -9.8224697113e+00
    2.9820864868e+02   -9.7740697861e+00
    2.9830804443e+02   -9.7262496948e+00
    2.9840750122e+02   -9.6783304214e+00
    2.9850692749e+02   -9.6303596497e+00
    2.9860775757e+02   -9.5815896988e+00
    2.9870715332e+02   -9.5334100723e+00
    2.9880645752e+02   -9.4851198196e+00
    2.9890869141e+02   -9.4352798462e+00
    2.9900796509e+02   -9.3867301941e+00
    2.9910723877e+02   -9.3380403519e+00
    2.9920651245e+02   -9.2891902924e+00
    2.9930868530e+02   -9.2387504578e+00
    2.9940792847e+02   -9.1895904541e+00
    2.9950720215e+02   -9.1402797699e+00
    2.9960650635e+02   -9.0907897949e+00
    2.9970883179e+02   -9.0396604538e+00
    2.9980865479e+02   -8.9896097183e+00
    2.9990655518e+02   -8.9404201508e+00
endcurve
