Curveplot
LS-DYNA keyword deck by LS-PrePost
Z-displ
Z-force
Mat/Node Ids
1 #pts=1000
* Minval=    -1.1292890625e+03 at time=       -19.9991245270
* Maxval=     6.2373798341e-02 at time=         0.0000396246
    3.9624577767e-05    6.2373798341e-02
    5.0177586672e-05    4.2776811868e-02
    6.0931262851e-05    1.5812663361e-02
    7.2067632573e-05   -2.1422309801e-02
    8.2434802607e-05   -6.7654654384e-02
    9.1669600806e-05   -1.2488773465e-01
    9.9059579952e-05   -1.9625340402e-01
    1.0325128824e-04   -2.7820736170e-01
    1.0327723430e-04   -3.7334907055e-01
    9.7425487184e-05   -4.8561003804e-01
    8.4611019702e-05   -6.0892349482e-01
    6.2569379224e-05   -7.4843478203e-01
    2.9180006095e-05   -9.0384030342e-01
   -1.6841333490e-05   -1.0723862648e+00
   -7.9505349277e-05   -1.2588933706e+00
   -1.5999797324e-04   -1.4592981339e+00
   -2.6119544054e-04   -1.6742800474e+00
   -3.8531719474e-04   -1.9023662806e+00
   -5.4150115466e-04   -2.1534850597e+00
   -7.2048977017e-04   -2.4089660645e+00
   -9.4488402829e-04   -2.6930294037e+00
   -1.2017629342e-03   -2.9847693443e+00
   -1.5010916395e-03   -3.2915694714e+00
   -1.8443095032e-03   -3.6109642982e+00
   -2.2399821319e-03   -3.9466164112e+00
   -2.6920973323e-03   -4.2976903915e+00
   -3.2050742302e-03   -4.6637182236e+00
   -3.7850530352e-03   -5.0451850891e+00
   -4.4299634174e-03   -5.4377374649e+00
   -5.1528899930e-03   -5.8460621834e+00
   -5.9359539300e-03   -6.2583222389e+00
   -6.8266894668e-03   -6.6956553459e+00
   -7.8058517538e-03   -7.1448302269e+00
   -8.9027509093e-03   -7.6159796715e+00
   -1.0081659071e-02   -8.0923871994e+00
   -1.1361254379e-02   -8.5788145065e+00
   -1.2768367305e-02   -9.0835695267e+00
   -1.4294339344e-02   -9.6001405716e+00
   -1.5941115096e-02   -1.0127664566e+01
   -1.7727166414e-02   -1.0669798851e+01
   -1.9665807486e-02   -1.1227212906e+01
   -2.1744223312e-02   -1.1796463013e+01
   -2.3968646303e-02   -1.2375374794e+01
   -2.6371981949e-02   -1.2972211838e+01
   -2.8928283602e-02   -1.3577289581e+01
   -3.1674575061e-02   -1.4198539734e+01
   -3.4615982324e-02   -1.4834067345e+01
   -3.7718176842e-02   -1.5475726128e+01
   -4.1052326560e-02   -1.6135992050e+01
   -4.4489368796e-02   -1.6789932251e+01
   -4.8320766538e-02   -1.7489595413e+01
   -5.2199374884e-02   -1.8170730591e+01
   -5.6458879262e-02   -1.8890354156e+01
   -6.0765724629e-02   -1.9592281342e+01
   -6.5555311739e-02   -2.0343725204e+01
   -7.0453613997e-02   -2.1084833145e+01
   -7.5639925897e-02   -2.1843902588e+01
   -8.1096775830e-02   -2.2614637375e+01
   -8.6822345853e-02   -2.3397048950e+01
   -9.2848524451e-02   -2.4195682526e+01
   -9.9155932665e-02   -2.5005290985e+01
   -1.0576560348e-01   -2.5827260971e+01
   -1.1253668368e-01   -2.6644515991e+01
   -1.1983714253e-01   -2.7499677658e+01
   -1.2740591168e-01   -2.8360532761e+01
   -1.3529822230e-01   -2.9231626511e+01
   -1.4351935685e-01   -3.0115940094e+01
   -1.5212632716e-01   -3.1015724182e+01
   -1.6113755107e-01   -3.1932472229e+01
   -1.7041526735e-01   -3.2851577759e+01
   -1.8012613058e-01   -3.3789455414e+01
   -1.8997754157e-01   -3.4716377258e+01
   -2.0044158399e-01   -3.5676548004e+01
   -2.1131365001e-01   -3.6648929596e+01
   -2.2256779671e-01   -3.7632011414e+01
   -2.3426032066e-01   -3.8629219055e+01
   -2.4637775123e-01   -3.9639198303e+01
   -2.5893685222e-01   -4.0660514832e+01
   -2.7194416523e-01   -4.1695751190e+01
   -2.8538480401e-01   -4.2740802765e+01
   -2.9919895530e-01   -4.3790843964e+01
   -3.1315463781e-01   -4.4829925537e+01
   -3.2796871662e-01   -4.5910202026e+01
   -3.4324550629e-01   -4.6999588013e+01
   -3.5908767581e-01   -4.8107376099e+01
   -3.7531563640e-01   -4.9217720032e+01
   -3.9201104641e-01   -5.0338203430e+01
   -4.0916994214e-01   -5.1468063354e+01
   -4.2692813277e-01   -5.2613971710e+01
   -4.4518697262e-01   -5.3769309998e+01
   -4.6395853162e-01   -5.4935741425e+01
   -4.8325008154e-01   -5.6112918854e+01
   -5.0300711393e-01   -5.7297706604e+01
   -5.2347517014e-01   -5.8502925873e+01
   -5.4432332516e-01   -5.9709522247e+01
   -5.6585365534e-01   -6.0934879303e+01
   -5.8745211363e-01   -6.2144321442e+01
   -6.1002969742e-01   -6.3388454437e+01
   -6.3315272331e-01   -6.4642158508e+01
   -6.5692895651e-01   -6.5912696838e+01
   -6.8119078875e-01   -6.7190841675e+01
   -7.0593458414e-01   -6.8473754883e+01
   -7.3140656948e-01   -6.9777557373e+01
   -7.5750690699e-01   -7.1093627930e+01
   -7.8423345089e-01   -7.2424552917e+01
   -8.1131571531e-01   -7.3753715515e+01
   -8.3925843239e-01   -7.5109100342e+01
   -8.6755573750e-01   -7.6464706421e+01
   -8.9671486616e-01   -7.7843994141e+01
   -9.2647182941e-01   -7.9236289978e+01
   -9.5667517185e-01   -8.0633110046e+01
   -9.8739230633e-01   -8.2038352966e+01
   -1.0190994740e+00   -8.3471702576e+01
   -1.0514246225e+00   -8.4917640686e+01
   -1.0842800140e+00   -8.6372634888e+01
   -1.1177620888e+00   -8.7839744568e+01
   -1.1517707109e+00   -8.9316322327e+01
   -1.1856127977e+00   -9.0770736694e+01
   -1.2209339142e+00   -9.2273246765e+01
   -1.2569714785e+00   -9.3792724609e+01
   -1.2936780453e+00   -9.5325927734e+01
   -1.3309800625e+00   -9.6869522095e+01
   -1.3689501286e+00   -9.8428085327e+01
   -1.4074842930e+00   -9.9995635986e+01
   -1.4467028379e+00   -1.0157798767e+02
   -1.4866571426e+00   -1.0317563629e+02
   -1.5271060467e+00   -1.0478284454e+02
   -1.5682955980e+00   -1.0640460968e+02
   -1.6099014282e+00   -1.0803118896e+02
   -1.6523318291e+00   -1.0967885590e+02
   -1.6954729557e+00   -1.1134260559e+02
   -1.7390381098e+00   -1.1301100922e+02
   -1.7823921442e+00   -1.1466224670e+02
   -1.8274290562e+00   -1.1636813354e+02
   -1.8731348515e+00   -1.1808770752e+02
   -1.9193907976e+00   -1.1981820679e+02
   -1.9663838148e+00   -1.2156931305e+02
   -2.0139963627e+00   -1.2333347321e+02
   -2.0621581078e+00   -1.2511067200e+02
   -2.1110372543e+00   -1.2690731049e+02
   -2.1604380608e+00   -1.2871597290e+02
   -2.2105777264e+00   -1.3054510498e+02
   -2.2610902786e+00   -1.3238059998e+02
   -2.3111853600e+00   -1.3419461060e+02
   -2.3630683422e+00   -1.3606918335e+02
   -2.4156193733e+00   -1.3796212769e+02
   -2.4687876701e+00   -1.3987272644e+02
   -2.5225057602e+00   -1.4179672241e+02
   -2.5768401623e+00   -1.4373846436e+02
   -2.6318256855e+00   -1.4570172119e+02
   -2.6873772144e+00   -1.4767900085e+02
   -2.7434926033e+00   -1.4967417908e+02
   -2.7999517918e+00   -1.5167871094e+02
   -2.8558654785e+00   -1.5366006470e+02
   -2.9137241840e+00   -1.5570993042e+02
   -2.9721236229e+00   -1.5777635193e+02
   -3.0311026573e+00   -1.5986161804e+02
   -3.0906703472e+00   -1.6196752930e+02
   -3.1507909298e+00   -1.6409295654e+02
   -3.2111446857e+00   -1.6622863770e+02
   -3.2708723545e+00   -1.6834053040e+02
   -3.3326289654e+00   -1.7052590942e+02
   -3.3949229717e+00   -1.7273109436e+02
   -3.4577605724e+00   -1.7495655823e+02
   -3.5211305618e+00   -1.7720387268e+02
   -3.5846850872e+00   -1.7946003723e+02
   -3.6475577354e+00   -1.8169473267e+02
   -3.7124829292e+00   -1.8400268555e+02
   -3.7779128551e+00   -1.8633346558e+02
   -3.8434960842e+00   -1.8867396545e+02
   -3.9083414078e+00   -1.9098948669e+02
   -3.9752492905e+00   -1.9338568115e+02
   -4.0422730446e+00   -1.9578863525e+02
   -4.1085081100e+00   -1.9816874695e+02
   -4.1768221855e+00   -2.0062808228e+02
   -4.2452182770e+00   -2.0309638977e+02
   -4.3127827644e+00   -2.0554147339e+02
   -4.3824295998e+00   -2.0806854248e+02
   -4.4521260262e+00   -2.1060641479e+02
   -4.5209641457e+00   -2.1311936951e+02
   -4.5918850899e+00   -2.1571632385e+02
   -4.6628103256e+00   -2.1832374573e+02
   -4.7328763008e+00   -2.2090661621e+02
   -4.8046035767e+00   -2.2356031799e+02
   -4.8754315376e+00   -2.2619065857e+02
   -4.9479198456e+00   -2.2889334106e+02
   -5.0194792747e+00   -2.3157165527e+02
   -5.0926942825e+00   -2.3432200623e+02
   -5.1649498940e+00   -2.3705021667e+02
   -5.2388596535e+00   -2.3985275269e+02
   -5.3117942810e+00   -2.4262841797e+02
   -5.3863596916e+00   -2.4547962952e+02
   -5.4599380493e+00   -2.4830642700e+02
   -5.5351319313e+00   -2.5120956421e+02
   -5.6093354225e+00   -2.5408879089e+02
   -5.6851277351e+00   -2.5704495239e+02
   -5.7594928741e+00   -2.5996078491e+02
   -5.8345613480e+00   -2.6291806030e+02
   -5.9112124443e+00   -2.6595440674e+02
   -5.9863915443e+00   -2.6894879150e+02
   -6.0622601509e+00   -2.7198583984e+02
   -6.1396937370e+00   -2.7510531616e+02
   -6.2156252861e+00   -2.7817944336e+02
   -6.2922310829e+00   -2.8129864502e+02
   -6.3703718185e+00   -2.8449710083e+02
   -6.4469828606e+00   -2.8765338135e+02
   -6.5238075256e+00   -2.9083505249e+02
   -6.6012916565e+00   -2.9406097412e+02
   -6.6802816391e+00   -2.9736990356e+02
   -6.7577071190e+00   -3.0063394165e+02
   -6.8353142738e+00   -3.0392150879e+02
   -6.9130973816e+00   -3.0723770142e+02
   -6.9910554886e+00   -3.1058206177e+02
   -7.0696558952e+00   -3.1397232056e+02
   -7.1497087479e+00   -3.1744750977e+02
   -7.2281489372e+00   -3.2087341309e+02
   -7.3067417145e+00   -3.2432623291e+02
   -7.3854799271e+00   -3.2780795288e+02
   -7.4643626213e+00   -3.3131674194e+02
   -7.5433816910e+00   -3.3485461426e+02
   -7.6225266457e+00   -3.3841885376e+02
   -7.7017960548e+00   -3.4201031494e+02
   -7.7811832428e+00   -3.4563201904e+02
   -7.8606905937e+00   -3.4928335571e+02
   -7.9402995110e+00   -3.5296163940e+02
   -8.0200204849e+00   -3.5666809082e+02
   -8.0998363495e+00   -3.6040579224e+02
   -8.1797580719e+00   -3.6417422485e+02
   -8.2597694397e+00   -3.6797082520e+02
   -8.3393211365e+00   -3.7177020264e+02
   -8.4177808762e+00   -3.7554147339e+02
   -8.4980363846e+00   -3.7942736816e+02
   -8.5783643723e+00   -3.8334509277e+02
   -8.6587591171e+00   -3.8729278564e+02
   -8.7386627197e+00   -3.9124630737e+02
   -8.8174476624e+00   -3.9517047119e+02
   -8.8980093002e+00   -3.9921276855e+02
   -8.9786214828e+00   -4.0328475952e+02
   -9.0587196350e+00   -4.0735968018e+02
   -9.1376972198e+00   -4.1140747070e+02
   -9.2184410095e+00   -4.1557580566e+02
   -9.2986679077e+00   -4.1974490356e+02
   -9.3777704239e+00   -4.2388183594e+02
   -9.4586334229e+00   -4.2813958740e+02
   -9.5389604568e+00   -4.3239575195e+02
   -9.6181936264e+00   -4.3661892700e+02
   -9.6991825104e+00   -4.4095846558e+02
   -9.7796173096e+00   -4.4529373169e+02
   -9.8590021133e+00   -4.4959204102e+02
   -9.9395313263e+00   -4.5396875000e+02
   -1.0019010544e+01   -4.5830160522e+02
   -1.0099632263e+01   -4.6271203613e+02
   -1.0179207802e+01   -4.6707412720e+02
   -1.0259918213e+01   -4.7150939941e+02
   -1.0339593887e+01   -4.7589257812e+02
   -1.0420382500e+01   -4.8034402466e+02
   -1.0499562263e+01   -4.8470889282e+02
   -1.0579351425e+01   -4.8910919189e+02
   -1.0660257339e+01   -4.9357205200e+02
   -1.0739545822e+01   -4.9794552612e+02
   -1.0819434166e+01   -5.0234899902e+02
   -1.0900437355e+01   -5.0681567383e+02
   -1.0979810715e+01   -5.1118994141e+02
   -1.1059795380e+01   -5.1559155273e+02
   -1.1140871048e+01   -5.2005633545e+02
   -1.1220328331e+01   -5.2442706299e+02
   -1.1299806595e+01   -5.2879602051e+02
   -1.1379910469e+01   -5.3319732666e+02
   -1.1461062431e+01   -5.3765563965e+02
   -1.1540615082e+01   -5.4202581787e+02
   -1.1620179176e+01   -5.4639715576e+02
   -1.1699751854e+01   -5.5076678467e+02
   -1.1779328346e+01   -5.5513714600e+02
   -1.1858903885e+01   -5.5951135254e+02
   -1.1938463211e+01   -5.6388208008e+02
   -1.2017998695e+01   -5.6825585938e+02
   -1.2097507477e+01   -5.7263153076e+02
   -1.2176977158e+01   -5.7700695801e+02
   -1.2256398201e+01   -5.8138433838e+02
   -1.2335767746e+01   -5.8576147461e+02
   -1.2415081024e+01   -5.9014056396e+02
   -1.2494330406e+01   -5.9451977539e+02
   -1.2573514938e+01   -5.9890240479e+02
   -1.2652632713e+01   -6.0328619385e+02
   -1.2731678963e+01   -6.0766864014e+02
   -1.2810654640e+01   -6.1205688477e+02
   -1.2889548302e+01   -6.1644482422e+02
   -1.2968369484e+01   -6.2083374023e+02
   -1.3046465874e+01   -6.2519097900e+02
   -1.3123587608e+01   -6.2950024414e+02
   -1.3202143669e+01   -6.3389764404e+02
   -1.3280598640e+01   -6.3829162598e+02
   -1.3358296394e+01   -6.4265362549e+02
   -1.3435020447e+01   -6.4696752930e+02
   -1.3513126373e+01   -6.5136401367e+02
   -1.3590462685e+01   -6.5572467041e+02
   -1.3666804314e+01   -6.6003277588e+02
   -1.3744496346e+01   -6.6442852783e+02
   -1.3821387291e+01   -6.6878680420e+02
   -1.3897282600e+01   -6.7309283447e+02
   -1.3973843575e+01   -6.7744714355e+02
   -1.4049391747e+01   -6.8174792480e+02
   -1.4125580788e+01   -6.8609661865e+02
   -1.4200731277e+01   -6.9039099121e+02
   -1.4276498795e+01   -6.9473248291e+02
   -1.4351228714e+01   -6.9901940918e+02
   -1.4426546097e+01   -7.0335351562e+02
   -1.4500818253e+01   -7.0763531494e+02
   -1.4575645447e+01   -7.1195849609e+02
   -1.4649449348e+01   -7.1622888184e+02
   -1.4723753929e+01   -7.2054296875e+02
   -1.4796430588e+01   -7.2477172852e+02
   -1.4869451523e+01   -7.2903094482e+02
   -1.4942944527e+01   -7.3332824707e+02
   -1.5014798164e+01   -7.3754180908e+02
   -1.5086359024e+01   -7.4174755859e+02
   -1.5158223152e+01   -7.4598236084e+02
   -1.5230501175e+01   -7.5025787354e+02
   -1.5301134109e+01   -7.5444604492e+02
   -1.5371441841e+01   -7.5863018799e+02
   -1.5442013741e+01   -7.6284039307e+02
   -1.5512929916e+01   -7.6708837891e+02
   -1.5582204819e+01   -7.7124957275e+02
   -1.5651124001e+01   -7.7540667725e+02
   -1.5719674110e+01   -7.7955358887e+02
   -1.5787846565e+01   -7.8369110107e+02
   -1.5855636597e+01   -7.8781994629e+02
   -1.5923029900e+01   -7.9193811035e+02
   -1.5990011215e+01   -7.9604638672e+02
   -1.6056575775e+01   -8.0014263916e+02
   -1.6122711182e+01   -8.0422900391e+02
   -1.6188413620e+01   -8.0830261230e+02
   -1.6253667831e+01   -8.1236114502e+02
   -1.6318473816e+01   -8.1640997314e+02
   -1.6382818222e+01   -8.2044311523e+02
   -1.6446701050e+01   -8.2446160889e+02
   -1.6510118484e+01   -8.2846661377e+02
   -1.6573066711e+01   -8.3245648193e+02
   -1.6635534286e+01   -8.3643212891e+02
   -1.6696945190e+01   -8.4035552979e+02
   -1.6757358551e+01   -8.4422973633e+02
   -1.6818351746e+01   -8.4815728760e+02
   -1.6878839493e+01   -8.5206848145e+02
   -1.6938255310e+01   -8.5592602539e+02
   -1.6996660233e+01   -8.5973266602e+02
   -1.7055580139e+01   -8.6358813477e+02
   -1.7113960266e+01   -8.6742395020e+02
   -1.7171251297e+01   -8.7120703125e+02
   -1.7227540970e+01   -8.7493829346e+02
   -1.7284269333e+01   -8.7871502686e+02
   -1.7339908600e+01   -8.8243945312e+02
   -1.7394554138e+01   -8.8611102295e+02
   -1.7449583054e+01   -8.8982592773e+02
   -1.7503511429e+01   -8.9348406982e+02
   -1.7556467056e+01   -8.9709417725e+02
   -1.7609243393e+01   -9.0071289062e+02
   -1.7661037445e+01   -9.0427923584e+02
   -1.7712644577e+01   -9.0785235596e+02
   -1.7763267517e+01   -9.1137500000e+02
   -1.7813682556e+01   -9.1490319824e+02
   -1.7863122940e+01   -9.1838079834e+02
   -1.7912332535e+01   -9.2186132812e+02
   -1.7960578918e+01   -9.2529046631e+02
   -1.8008573532e+01   -9.2872308350e+02
   -1.8055618286e+01   -9.3210351562e+02
   -1.8102388382e+01   -9.3548437500e+02
   -1.8147779465e+01   -9.3878466797e+02
   -1.8193002701e+01   -9.4209039307e+02
   -1.8237928391e+01   -9.4539294434e+02
   -1.8281923294e+01   -9.4864483643e+02
   -1.8325592041e+01   -9.5189276123e+02
   -1.8367931366e+01   -9.5506042480e+02
   -1.8410068512e+01   -9.5823107910e+02
   -1.8451856613e+01   -9.6139337158e+02
   -1.8492340088e+01   -9.6447473145e+02
   -1.8532205582e+01   -9.6752606201e+02
   -1.8571838379e+01   -9.7057788086e+02
   -1.8611095428e+01   -9.7362231445e+02
   -1.8649085999e+01   -9.7658465576e+02
   -1.8686452866e+01   -9.7951739502e+02
   -1.8723558426e+01   -9.8244989014e+02
   -1.8760261536e+01   -9.8537127686e+02
   -1.8795736313e+01   -9.8821411133e+02
   -1.8830587387e+01   -9.9102807617e+02
   -1.8864812851e+01   -9.9381127930e+02
   -1.8898752213e+01   -9.9659136963e+02
   -1.8932256699e+01   -9.9935925293e+02
   -1.8964599609e+01   -1.0020515747e+03
   -1.8996328354e+01   -1.0047136230e+03
   -1.9027442932e+01   -1.0073447266e+03
   -1.9057945251e+01   -1.0099434204e+03
   -1.9087839127e+01   -1.0125118408e+03
   -1.9117126465e+01   -1.0150490112e+03
   -1.9146104813e+01   -1.0175802002e+03
   -1.9174631119e+01   -1.0200935059e+03
   -1.9202106476e+01   -1.0225344238e+03
   -1.9228986740e+01   -1.0249427490e+03
   -1.9255281448e+01   -1.0273192139e+03
   -1.9280988693e+01   -1.0296633301e+03
   -1.9306114197e+01   -1.0319741211e+03
   -1.9330663681e+01   -1.0342530518e+03
   -1.9354635239e+01   -1.0364992676e+03
   -1.9378040314e+01   -1.0387120361e+03
   -1.9400876999e+01   -1.0408903809e+03
   -1.9423151016e+01   -1.0430364990e+03
   -1.9444868088e+01   -1.0451497803e+03
   -1.9466033936e+01   -1.0472315674e+03
   -1.9486652374e+01   -1.0492835693e+03
   -1.9506732941e+01   -1.0513062744e+03
   -1.9526281357e+01   -1.0532993164e+03
   -1.9545305252e+01   -1.0552644043e+03
   -1.9563808441e+01   -1.0572000732e+03
   -1.9581798553e+01   -1.0591058350e+03
   -1.9599281311e+01   -1.0609815674e+03
   -1.9616266251e+01   -1.0628262939e+03
   -1.9632753372e+01   -1.0646389160e+03
   -1.9648750305e+01   -1.0664208984e+03
   -1.9664266586e+01   -1.0681704102e+03
   -1.9679141998e+01   -1.0698699951e+03
   -1.9693496704e+01   -1.0715321045e+03
   -1.9707612991e+01   -1.0731899414e+03
   -1.9721269608e+01   -1.0748175049e+03
   -1.9734474182e+01   -1.0764141846e+03
   -1.9747234344e+01   -1.0779820557e+03
   -1.9759557724e+01   -1.0795214844e+03
   -1.9771450043e+01   -1.0810317383e+03
   -1.9782920837e+01   -1.0825128174e+03
   -1.9793964386e+01   -1.0839638672e+03
   -1.9804601669e+01   -1.0853883057e+03
   -1.9814748764e+01   -1.0867735596e+03
   -1.9824480057e+01   -1.0881274414e+03
   -1.9833980560e+01   -1.0894764404e+03
   -1.9843111038e+01   -1.0907993164e+03
   -1.9851877213e+01   -1.0920955811e+03
   -1.9860288620e+01   -1.0933658447e+03
   -1.9868354797e+01   -1.0946099854e+03
   -1.9876043320e+01   -1.0958221436e+03
   -1.9883396149e+01   -1.0970076904e+03
   -1.9890483856e+01   -1.0981783447e+03
   -1.9897241592e+01   -1.0993211670e+03
   -1.9903692245e+01   -1.1004376221e+03
   -1.9909870148e+01   -1.1015319824e+03
   -1.9915733337e+01   -1.1025937500e+03
   -1.9921283722e+01   -1.1036218262e+03
   -1.9926570892e+01   -1.1046239014e+03
   -1.9931621552e+01   -1.1056027832e+03
   -1.9936418533e+01   -1.1065545654e+03
   -1.9940946579e+01   -1.1074748535e+03
   -1.9945234299e+01   -1.1083687744e+03
   -1.9949319839e+01   -1.1092431641e+03
   -1.9953159332e+01   -1.1100903320e+03
   -1.9956762314e+01   -1.1109121094e+03
   -1.9960163116e+01   -1.1117144775e+03
   -1.9963331223e+01   -1.1124882812e+03
   -1.9966342926e+01   -1.1132523193e+03
   -1.9969175339e+01   -1.1140007324e+03
   -1.9971807480e+01   -1.1147250977e+03
   -1.9974267960e+01   -1.1154300537e+03
   -1.9976560593e+01   -1.1161156006e+03
   -1.9978694916e+01   -1.1167814941e+03
   -1.9980690002e+01   -1.1174317627e+03
   -1.9982515335e+01   -1.1180531006e+03
   -1.9984210968e+01   -1.1186577148e+03
   -1.9985790253e+01   -1.1192508545e+03
   -1.9987253189e+01   -1.1198295898e+03
   -1.9988597870e+01   -1.1203916016e+03
   -1.9989824295e+01   -1.1209338379e+03
   -1.9990934372e+01   -1.1214547119e+03
   -1.9991950989e+01   -1.1219603271e+03
   -1.9992874146e+01   -1.1224503174e+03
   -1.9993696213e+01   -1.1229157715e+03
   -1.9994436264e+01   -1.1233646240e+03
   -1.9995100021e+01   -1.1237958984e+03
   -1.9995691299e+01   -1.1242087402e+03
   -1.9996219635e+01   -1.1246079102e+03
   -1.9996685028e+01   -1.1249904785e+03
   -1.9997095108e+01   -1.1253577881e+03
   -1.9997449875e+01   -1.1257039795e+03
   -1.9997760773e+01   -1.1260351562e+03
   -1.9998031616e+01   -1.1263520508e+03
   -1.9998260498e+01   -1.1266496582e+03
   -1.9998456955e+01   -1.1269340820e+03
   -1.9998624802e+01   -1.1272023926e+03
   -1.9998765945e+01   -1.1274539795e+03
   -1.9998884201e+01   -1.1276904297e+03
   -1.9998977661e+01   -1.1279108887e+03
   -1.9999053955e+01   -1.1281146240e+03
   -1.9999109268e+01   -1.1283002930e+03
   -1.9999149323e+01   -1.1284696045e+03
   -1.9999176025e+01   -1.1286243896e+03
   -1.9999189377e+01   -1.1287620850e+03
   -1.9999197006e+01   -1.1288812256e+03
   -1.9999195099e+01   -1.1289814453e+03
   -1.9999189377e+01   -1.1290659180e+03
   -1.9999179840e+01   -1.1291351318e+03
   -1.9999170303e+01   -1.1291892090e+03
   -1.9999158859e+01   -1.1292305908e+03
   -1.9999147415e+01   -1.1292602539e+03
   -1.9999135971e+01   -1.1292796631e+03
   -1.9999124527e+01   -1.1292890625e+03
   -1.9999113083e+01   -1.1292890625e+03
   -1.9999101639e+01   -1.1292796631e+03
   -1.9999090195e+01   -1.1292604980e+03
   -1.9999074936e+01   -1.1292309570e+03
   -1.9999053955e+01   -1.1291889648e+03
   -1.9999031067e+01   -1.1291339111e+03
   -1.9999000549e+01   -1.1290654297e+03
   -1.9998966217e+01   -1.1289820557e+03
   -1.9998920441e+01   -1.1288797607e+03
   -1.9998868942e+01   -1.1287600098e+03
   -1.9998806000e+01   -1.1286240234e+03
   -1.9998733521e+01   -1.1284696045e+03
   -1.9998653412e+01   -1.1282982178e+03
   -1.9998559952e+01   -1.1281112061e+03
   -1.9998455048e+01   -1.1279077148e+03
   -1.9998332977e+01   -1.1276875000e+03
   -1.9998189926e+01   -1.1274553223e+03
   -1.9998023987e+01   -1.1272065430e+03
   -1.9997825623e+01   -1.1269389648e+03
   -1.9997594833e+01   -1.1266571045e+03
   -1.9997327805e+01   -1.1263587646e+03
   -1.9997020721e+01   -1.1260471191e+03
   -1.9996673584e+01   -1.1257215576e+03
   -1.9996271133e+01   -1.1253773193e+03
   -1.9995817184e+01   -1.1250174561e+03
   -1.9995304108e+01   -1.1246431885e+03
   -1.9994731903e+01   -1.1242530518e+03
   -1.9994094849e+01   -1.1238468018e+03
   -1.9993391037e+01   -1.1234250488e+03
   -1.9992618561e+01   -1.1229868164e+03
   -1.9991767883e+01   -1.1225300293e+03
   -1.9990829468e+01   -1.1220502930e+03
   -1.9989803314e+01   -1.1215506592e+03
   -1.9988683701e+01   -1.1210310059e+03
   -1.9987457275e+01   -1.1204888916e+03
   -1.9986124039e+01   -1.1199294434e+03
   -1.9984663010e+01   -1.1193466797e+03
   -1.9983074188e+01   -1.1187442627e+03
   -1.9981367111e+01   -1.1181285400e+03
   -1.9979515076e+01   -1.1174927979e+03
   -1.9977495193e+01   -1.1168310547e+03
   -1.9975322723e+01   -1.1161522217e+03
   -1.9973003387e+01   -1.1154588623e+03
   -1.9970537186e+01   -1.1147536621e+03
   -1.9967872620e+01   -1.1140235596e+03
   -1.9965003967e+01   -1.1132694092e+03
   -1.9961990356e+01   -1.1125089111e+03
   -1.9958774567e+01   -1.1117282715e+03
   -1.9955343246e+01   -1.1109255371e+03
   -1.9951736450e+01   -1.1101107178e+03
   -1.9947879791e+01   -1.1092681885e+03
   -1.9943780899e+01   -1.1083996582e+03
   -1.9939453125e+01   -1.1075072021e+03
   -1.9934911728e+01   -1.1065950928e+03
   -1.9930170059e+01   -1.1056660156e+03
   -1.9925117493e+01   -1.1046973877e+03
   -1.9919820786e+01   -1.1037037354e+03
   -1.9914257050e+01   -1.1026829834e+03
   -1.9908390045e+01   -1.1016289062e+03
   -1.9902221680e+01   -1.1005450439e+03
   -1.9895763397e+01   -1.0994338379e+03
   -1.9889030457e+01   -1.0983007812e+03
   -1.9881917953e+01   -1.0971311035e+03
   -1.9874494553e+01   -1.0959372559e+03
   -1.9866788864e+01   -1.0947263184e+03
   -1.9858741760e+01   -1.0934903564e+03
   -1.9850347519e+01   -1.0922286377e+03
   -1.9841554642e+01   -1.0909337158e+03
   -1.9832389832e+01   -1.0896130371e+03
   -1.9822996140e+01   -1.0882857666e+03
   -1.9813062668e+01   -1.0869091797e+03
   -1.9802692413e+01   -1.0854969482e+03
   -1.9792053223e+01   -1.0840734863e+03
   -1.9781017303e+01   -1.0826210938e+03
   -1.9769578934e+01   -1.0811395264e+03
   -1.9757698059e+01   -1.0796246338e+03
   -1.9745407104e+01   -1.0780822754e+03
   -1.9732717514e+01   -1.0765141602e+03
   -1.9719600677e+01   -1.0749177246e+03
   -1.9706045151e+01   -1.0732923584e+03
   -1.9691814423e+01   -1.0716118164e+03
   -1.9677183151e+01   -1.0699077148e+03
   -1.9662258148e+01   -1.0681937256e+03
   -1.9646865845e+01   -1.0664498291e+03
   -1.9630998611e+01   -1.0646755371e+03
   -1.9614652634e+01   -1.0628717041e+03
   -1.9597818375e+01   -1.0610371094e+03
   -1.9580202103e+01   -1.0591423340e+03
   -1.9562156677e+01   -1.0572249756e+03
   -1.9543802261e+01   -1.0553009033e+03
   -1.9524934769e+01   -1.0533481445e+03
   -1.9505542755e+01   -1.0513679199e+03
   -1.9485290527e+01   -1.0493260498e+03
   -1.9464593887e+01   -1.0472631836e+03
   -1.9443586349e+01   -1.0451949463e+03
   -1.9422033310e+01   -1.0430955811e+03
   -1.9399930954e+01   -1.0409638672e+03
   -1.9376893997e+01   -1.0387636719e+03
   -1.9353406906e+01   -1.0365400391e+03
   -1.9329614639e+01   -1.0343093262e+03
   -1.9305253983e+01   -1.0320454102e+03
   -1.9279897690e+01   -1.0297110596e+03
   -1.9254093170e+01   -1.0273542480e+03
   -1.9227989197e+01   -1.0249934082e+03
   -1.9201299667e+01   -1.0226015015e+03
   -1.9173557281e+01   -1.0201378784e+03
   -1.9145366669e+01   -1.0176532593e+03
   -1.9116886139e+01   -1.0151669312e+03
   -1.9087306976e+01   -1.0126085815e+03
   -1.9057292938e+01   -1.0100309448e+03
   -1.9026998520e+01   -1.0074511108e+03
   -1.8995569229e+01   -1.0047968140e+03
   -1.8963714600e+01   -1.0021262817e+03
   -1.8931592941e+01   -9.9945593262e+02
   -1.8898298264e+01   -9.9671136475e+02
   -1.8864587784e+01   -9.9394934082e+02
   -1.8830621719e+01   -9.9118798828e+02
   -1.8795444489e+01   -9.8835083008e+02
   -1.8759855270e+01   -9.8549896240e+02
   -1.8723398209e+01   -9.8260180664e+02
   -1.8686546326e+01   -9.7968975830e+02
   -1.8648803711e+01   -9.7673010254e+02
   -1.8610683441e+01   -9.7375872803e+02
   -1.8571653366e+01   -9.7073986816e+02
   -1.8532268524e+01   -9.6770886230e+02
   -1.8492666245e+01   -9.6468255615e+02
   -1.8451744080e+01   -9.6157666016e+02
   -1.8410467148e+01   -9.5845800781e+02
   -1.8368284225e+01   -9.5529400635e+02
   -1.8325002670e+01   -9.5206524658e+02
   -1.8281867981e+01   -9.4886218262e+02
   -1.8237791061e+01   -9.4561132812e+02
   -1.8193422318e+01   -9.4235339355e+02
   -1.8148109436e+01   -9.3904608154e+02
   -1.8102521896e+01   -9.3573291016e+02
   -1.8055990219e+01   -9.3237243652e+02
   -1.8008342743e+01   -9.2894848633e+02
   -1.7960945129e+01   -9.2555725098e+02
   -1.7912576675e+01   -9.2211712646e+02
   -1.7863090515e+01   -9.1861474609e+02
   -1.7813894272e+01   -9.1514855957e+02
   -1.7763717651e+01   -9.1163415527e+02
   -1.7712421417e+01   -9.0805932617e+02
   -1.7661451340e+01   -9.0452386475e+02
   -1.7609498978e+01   -9.0094390869e+02
   -1.7556417465e+01   -8.9730364990e+02
   -1.7502750397e+01   -8.9364099121e+02
   -1.7449481964e+01   -8.9002490234e+02
   -1.7395221710e+01   -8.8636346436e+02
   -1.7339841843e+01   -8.8263995361e+02
   -1.7283887863e+01   -8.7889990234e+02
   -1.7227375031e+01   -8.7513916016e+02
   -1.7170312881e+01   -8.7135821533e+02
   -1.7113769531e+01   -8.6762683105e+02
   -1.7056221008e+01   -8.6385003662e+02
   -1.6997562408e+01   -8.6001318359e+02
   -1.6938386917e+01   -8.5615875244e+02
   -1.6878696442e+01   -8.5228613281e+02
   -1.6818502426e+01   -8.4839678955e+02
   -1.6757801056e+01   -8.4449023438e+02
   -1.6696607590e+01   -8.4056793213e+02
   -1.6634929657e+01   -8.3662945557e+02
   -1.6572769165e+01   -8.3267602539e+02
   -1.6510135651e+01   -8.2870703125e+02
   -1.6447029114e+01   -8.2472174072e+02
   -1.6383464813e+01   -8.2072277832e+02
   -1.6319450378e+01   -8.1671221924e+02
   -1.6254983902e+01   -8.1268774414e+02
   -1.6188825607e+01   -8.0857507324e+02
   -1.6122848511e+01   -8.0448333740e+02
   -1.6057056427e+01   -8.0041864014e+02
   -1.5990839005e+01   -7.9634271240e+02
   -1.5924210548e+01   -7.9225720215e+02
   -1.5857169151e+01   -7.8816027832e+02
   -1.5788425446e+01   -7.8397607422e+02
   -1.5719956398e+01   -7.7981695557e+02
   -1.5651739120e+01   -7.7569030762e+02
   -1.5583157539e+01   -7.7155395508e+02
   -1.5512873650e+01   -7.6733099365e+02
   -1.5442929268e+01   -7.6313568115e+02
   -1.5373288155e+01   -7.5897241211e+02
   -1.5301940918e+01   -7.5472576904e+02
   -1.5230988503e+01   -7.5051037598e+02
   -1.5158963203e+01   -7.4624719238e+02
   -1.5087392807e+01   -7.4201849365e+02
   -1.5016159058e+01   -7.3782379150e+02
   -1.4943215370e+01   -7.3354412842e+02
   -1.4870745659e+01   -7.2929791260e+02
   -1.4797218323e+01   -7.2500781250e+02
   -1.4724209785e+01   -7.2075579834e+02
   -1.4650137901e+01   -7.1645886230e+02
   -1.4576611519e+01   -7.1219641113e+02
   -1.4502030373e+01   -7.0789349365e+02
   -1.4428025246e+01   -7.0362579346e+02
   -1.4352991104e+01   -6.9931402588e+02
   -1.4277035713e+01   -6.9495861816e+02
   -1.4202393532e+01   -6.9068414307e+02
   -1.4126696587e+01   -6.8636566162e+02
   -1.4050112724e+01   -6.8200231934e+02
   -1.3974895477e+01   -6.7772210693e+02
   -1.3898626328e+01   -6.7339837646e+02
   -1.3821496010e+01   -6.6902728271e+02
   -1.3745765686e+01   -6.6474090576e+02
   -1.3669006348e+01   -6.6041033936e+02
   -1.3591409683e+01   -6.5603369141e+02
   -1.3513669968e+01   -6.5165618896e+02
   -1.3435791969e+01   -6.4727917480e+02
   -1.3359383583e+01   -6.4298583984e+02
   -1.3281946182e+01   -6.3864794922e+02
   -1.3203722000e+01   -6.3426751709e+02
   -1.3125384331e+01   -6.2988732910e+02
   -1.3046954155e+01   -6.2550640869e+02
   -1.2968425751e+01   -6.2112646484e+02
   -1.2889806747e+01   -6.1674603271e+02
   -1.2811094284e+01   -6.1236682129e+02
   -1.2732297897e+01   -6.0798730469e+02
   -1.2653438568e+01   -6.0360968018e+02
   -1.2574492455e+01   -5.9923193359e+02
   -1.2495480537e+01   -5.9485601807e+02
   -1.2416405678e+01   -5.9048370361e+02
   -1.2337272644e+01   -5.8611181641e+02
   -1.2258098602e+01   -5.8173907471e+02
   -1.2178881645e+01   -5.7737200928e+02
   -1.2099632263e+01   -5.7300421143e+02
   -1.2020362854e+01   -5.6863739014e+02
   -1.1939363480e+01   -5.6418249512e+02
   -1.1859432220e+01   -5.5978479004e+02
   -1.1780119896e+01   -5.5542303467e+02
   -1.1700797081e+01   -5.5106542969e+02
   -1.1621479034e+01   -5.4670654297e+02
   -1.1540439606e+01   -5.4225903320e+02
   -1.1460517883e+01   -5.3786676025e+02
   -1.1381226540e+01   -5.3351116943e+02
   -1.1301948547e+01   -5.2915679932e+02
   -1.1220970154e+01   -5.2471270752e+02
   -1.1141113281e+01   -5.2032153320e+02
   -1.1061898232e+01   -5.1596661377e+02
   -1.0980978966e+01   -5.1151983643e+02
   -1.0901202202e+01   -5.0712911987e+02
   -1.0820318222e+01   -5.0268209839e+02
   -1.0740621567e+01   -4.9829229736e+02
   -1.0661555290e+01   -4.9393914795e+02
   -1.0580789566e+01   -4.8949548340e+02
   -1.0501179695e+01   -4.8510787964e+02
   -1.0420480728e+01   -4.8066641235e+02
   -1.0340970993e+01   -4.7628887939e+02
   -1.0260360718e+01   -4.7185934448e+02
   -1.0180942535e+01   -4.6749322510e+02
   -1.0100421906e+01   -4.6308367920e+02
   -1.0019313812e+01   -4.5864663696e+02
   -9.9400501251e+00   -4.5432049561e+02
   -9.8596229553e+00   -4.4995181274e+02
   -9.7804336548e+00   -4.4566009521e+02
   -9.7000961304e+00   -4.4133212280e+02
   -9.6191883087e+00   -4.3699130249e+02
   -9.5401258469e+00   -4.3276782227e+02
   -9.4599065781e+00   -4.2851211548e+02
   -9.3791160583e+00   -4.2424975586e+02
   -9.3001842499e+00   -4.2010989380e+02
   -9.2200937271e+00   -4.1594351196e+02
   -9.1394357681e+00   -4.1177346802e+02
   -9.0588264465e+00   -4.0763433838e+02
   -8.9782648087e+00   -4.0352499390e+02
   -8.8995866776e+00   -3.9953793335e+02
   -8.8197154999e+00   -3.9552853394e+02
   -8.7393016815e+00   -3.9151791382e+02
   -8.6589021683e+00   -3.8753515625e+02
   -8.5785627365e+00   -3.8358764648e+02
   -8.5000429153e+00   -3.7975250244e+02
   -8.4202575684e+00   -3.7589123535e+02
   -8.3398685455e+00   -3.7202529907e+02
   -8.2594451904e+00   -3.6818551636e+02
   -8.1808862686e+00   -3.6445733643e+02
   -8.1011877060e+00   -3.6070761108e+02
   -8.0211353302e+00   -3.5696228027e+02
   -7.9412050247e+00   -3.5324984741e+02
   -7.8609919548e+00   -3.4954931641e+02
   -7.7828769684e+00   -3.4596514893e+02
   -7.7035055161e+00   -3.4235140991e+02
   -7.6234593391e+00   -3.3872720337e+02
   -7.5436053276e+00   -3.3513320923e+02
   -7.4656782150e+00   -3.3164648438e+02
   -7.3866419792e+00   -3.2813583374e+02
   -7.3068017960e+00   -3.2460891724e+02
   -7.2290430069e+00   -3.2119128418e+02
   -7.1504001617e+00   -3.1776144409e+02
   -7.0710606575e+00   -3.1431893921e+02
   -6.9920864105e+00   -3.1091253662e+02
   -6.9146208763e+00   -3.0759002686e+02
   -6.8364248276e+00   -3.0425689697e+02
   -6.7576613426e+00   -3.0091647339e+02
   -6.6809034348e+00   -2.9767889404e+02
   -6.6029610634e+00   -2.9441613770e+02
   -6.5245680809e+00   -2.9114837646e+02
   -6.4484753609e+00   -2.8798953247e+02
   -6.3710012436e+00   -2.8479873657e+02
   -6.2938680649e+00   -2.8163171387e+02
   -6.2163038254e+00   -2.7846728516e+02
   -6.1401662827e+00   -2.7537603760e+02
   -6.0629711151e+00   -2.7226306152e+02
   -5.9876317978e+00   -2.6923687744e+02
   -5.9111266136e+00   -2.6618481445e+02
   -5.8362941742e+00   -2.6320989990e+02
   -5.7605652809e+00   -2.6022338867e+02
   -5.6845335960e+00   -2.5723495483e+02
   -5.6100821495e+00   -2.5432667542e+02
   -5.5354452133e+00   -2.5142433167e+02
   -5.4605636597e+00   -2.4853034973e+02
   -5.3873858452e+00   -2.4571066284e+02
   -5.3130283356e+00   -2.4286584473e+02
   -5.2400565147e+00   -2.4008334351e+02
   -5.1667885780e+00   -2.3730630493e+02
   -5.0926518440e+00   -2.3451094055e+02
   -5.0207509995e+00   -2.3180688477e+02
   -4.9476723671e+00   -2.2907763672e+02
   -4.8763823509e+00   -2.2641882324e+02
   -4.8052301407e+00   -2.2378012085e+02
   -4.7340168953e+00   -2.2115248108e+02
   -4.6624884605e+00   -2.1851733398e+02
   -4.5921130180e+00   -2.1593402100e+02
   -4.5229234695e+00   -2.1340023804e+02
   -4.4533877373e+00   -2.1086553955e+02
   -4.3828129768e+00   -2.0830068970e+02
   -4.3141412735e+00   -2.0580563354e+02
   -4.2451362610e+00   -2.0331176758e+02
   -4.1769170761e+00   -2.0084986877e+02
   -4.1093454361e+00   -1.9841763306e+02
   -4.0422921181e+00   -1.9600914001e+02
   -3.9751536846e+00   -1.9360432434e+02
   -3.9087579250e+00   -1.9123127747e+02
   -3.8439087868e+00   -1.8891537476e+02
   -3.7778592110e+00   -1.8656530762e+02
   -3.7134923935e+00   -1.8427210999e+02
   -3.6486120224e+00   -1.8196343994e+02
   -3.5847933292e+00   -1.7969633484e+02
   -3.5216262341e+00   -1.7745571899e+02
   -3.4584093094e+00   -1.7521826172e+02
   -3.3953163624e+00   -1.7298367310e+02
   -3.3340284824e+00   -1.7081092834e+02
   -3.2720181942e+00   -1.6861502075e+02
   -3.2114675045e+00   -1.6647076416e+02
   -3.1501719952e+00   -1.6429998779e+02
   -3.0901741982e+00   -1.6217211914e+02
   -3.0320467949e+00   -1.6010978699e+02
   -2.9724307060e+00   -1.5799810791e+02
   -2.9141063690e+00   -1.5592622375e+02
   -2.8568024635e+00   -1.5389370728e+02
   -2.7989144325e+00   -1.5183744812e+02
   -2.7428185940e+00   -1.4983921814e+02
   -2.6874215603e+00   -1.4786357117e+02
   -2.6324822903e+00   -1.4590463257e+02
   -2.5764825344e+00   -1.4390670776e+02
   -2.5229873657e+00   -1.4199076843e+02
   -2.4690196514e+00   -1.4006117249e+02
   -2.4164657593e+00   -1.3817437744e+02
   -2.3638801575e+00   -1.3628862000e+02
   -2.3118946552e+00   -1.3441175842e+02
   -2.2602136135e+00   -1.3254840088e+02
   -2.2095830441e+00   -1.3071055603e+02
   -2.1600918770e+00   -1.2891047668e+02
   -2.1109652519e+00   -1.2711808777e+02
   -2.0622451305e+00   -1.2533406067e+02
   -2.0141851902e+00   -1.2356543732e+02
   -1.9660686255e+00   -1.2178938293e+02
   -1.9200233221e+00   -1.2007331085e+02
   -1.8729418516e+00   -1.1831794739e+02
   -1.8278688192e+00   -1.1661595917e+02
   -1.7825934887e+00   -1.1490198517e+02
   -1.7388975620e+00   -1.1323450470e+02
   -1.6951729059e+00   -1.1156034851e+02
   -1.6513859034e+00   -1.0986936188e+02
   -1.6089956760e+00   -1.0821785736e+02
   -1.5676702261e+00   -1.0659730530e+02
   -1.5267548561e+00   -1.0497878265e+02
   -1.4865515232e+00   -1.0337992859e+02
   -1.4463696480e+00   -1.0176714325e+02
   -1.4071850777e+00   -1.0018164825e+02
   -1.3686432838e+00   -9.8613441467e+01
   -1.3309680223e+00   -9.7062095642e+01
   -1.2937293053e+00   -9.5518226624e+01
   -1.2567344904e+00   -9.3970626831e+01
   -1.2212516069e+00   -9.2470077515e+01
   -1.1854600906e+00   -9.0946861267e+01
   -1.1511681080e+00   -8.9468658447e+01
   -1.1166499853e+00   -8.7969985962e+01
   -1.0836532116e+00   -8.6522407532e+01
   -1.0504633188e+00   -8.5051055908e+01
   -1.0184075832e+00   -8.3614799500e+01
   -9.8664075136e-01   -8.2177749634e+01
   -9.5585304499e-01   -8.0767234802e+01
   -9.2586612701e-01   -7.9376113892e+01
   -8.9631044865e-01   -7.7994979858e+01
   -8.6737746000e-01   -7.6626022339e+01
   -8.3822804689e-01   -7.5231407166e+01
   -8.1056815386e-01   -7.3885414124e+01
   -7.8364163637e-01   -7.2562271118e+01
   -7.5701153278e-01   -7.1238845825e+01
   -7.3059296608e-01   -6.9909851074e+01
   -7.0507490635e-01   -6.8605781555e+01
   -6.8066006899e-01   -6.7341629028e+01
   -6.5603262186e-01   -6.6050979614e+01
   -6.3270151615e-01   -6.4807365417e+01
   -6.0952931643e-01   -6.3553462982e+01
   -5.8653479815e-01   -6.2290637970e+01
   -5.6452268362e-01   -6.1062911987e+01
   -5.4348361492e-01   -5.9865459442e+01
   -5.2251613140e-01   -5.8655643463e+01
   -5.0219953060e-01   -5.7462013245e+01
   -4.8234307766e-01   -5.6275959015e+01
   -4.6278253198e-01   -5.5089038849e+01
   -4.4398626685e-01   -5.3924022675e+01
   -4.2576903105e-01   -5.2773910522e+01
   -4.0832349658e-01   -5.1648857117e+01
   -3.9109051228e-01   -5.0519088745e+01
   -3.7443432212e-01   -4.9404170990e+01
   -3.5829147696e-01   -4.8302764893e+01
   -3.4222570062e-01   -4.7183616638e+01
   -3.2715687156e-01   -4.6109416962e+01
   -3.1240490079e-01   -4.5036071777e+01
   -2.9787445068e-01   -4.3956142426e+01
   -2.8423959017e-01   -4.2915584564e+01
   -2.7063497901e-01   -4.1858573914e+01
   -2.5765490532e-01   -4.0821949005e+01
   -2.4509632587e-01   -3.9798870087e+01
   -2.3304419219e-01   -3.8788627625e+01
   -2.2156481445e-01   -3.7806289673e+01
   -2.1016128361e-01   -3.6805912018e+01
   -1.9950550795e-01   -3.5844860077e+01
   -1.8898530304e-01   -3.4875949860e+01
   -1.7873828113e-01   -3.3907131195e+01
   -1.6925826669e-01   -3.2984104156e+01
   -1.5971784294e-01   -3.2035823822e+01
   -1.5090119839e-01   -3.1132217407e+01
   -1.4228425920e-01   -3.0227399826e+01
   -1.3406212628e-01   -2.9341588974e+01
   -1.2614326179e-01   -2.8464847565e+01
   -1.1863849312e-01   -2.7609498978e+01
   -1.1138449609e-01   -2.6759132385e+01
   -1.0439755023e-01   -2.5916727066e+01
   -9.7789019346e-02   -2.5096481323e+01
   -9.1546334326e-02   -2.4297010422e+01
   -8.5439980030e-02   -2.3492275238e+01
   -7.9670682549e-02   -2.2707220078e+01
   -7.4344530702e-02   -2.1956697464e+01
   -6.9062434137e-02   -2.1189666748e+01
   -6.4154207706e-02   -2.0449489594e+01
   -5.9491936117e-02   -1.9720653534e+01
   -5.5120125413e-02   -1.9012378693e+01
   -5.0920635462e-02   -1.8308019638e+01
   -4.6859968454e-02   -1.7601108551e+01
   -4.3150305748e-02   -1.6925716400e+01
   -3.9617661387e-02   -1.6259065628e+01
   -3.6331325769e-02   -1.5610143661e+01
   -3.3177457750e-02   -1.4962824821e+01
   -3.0256642029e-02   -1.4334217072e+01
   -2.7508070692e-02   -1.3715690613e+01
   -2.4946028367e-02   -1.3113018036e+01
   -2.2563135251e-02   -1.2524983406e+01
   -2.0315943286e-02   -1.1942033768e+01
   -1.8250253052e-02   -1.1377964020e+01
   -1.6310548410e-02   -1.0821470261e+01
   -1.4503236860e-02   -1.0274455070e+01
   -1.2848989107e-02   -9.7457380295e+00
   -1.1322421953e-02   -9.2282238007e+00
   -9.9052377045e-03   -8.7204208374e+00
   -8.6222020909e-03   -8.2305374146e+00
   -7.4267871678e-03   -7.7464179993e+00
   -6.3374149613e-03   -7.2742228508e+00
   -5.3719505668e-03   -6.8265872002e+00
   -4.4776233844e-03   -6.3834638596e+00
   -3.6712212022e-03   -5.9544634819e+00
   -2.9511072207e-03   -5.5418229103e+00
   -2.3097645026e-03   -5.1454262733e+00
   -1.7344702501e-03   -4.7596888542e+00
   -1.2201138306e-03   -4.3863077164e+00
   -7.6695787720e-04   -4.0278501511e+00
   -3.6389721208e-04   -3.6786510944e+00
   -2.2473512217e-05   -3.3532316685e+00
    2.7512715315e-04   -3.0416030884e+00
    5.3368421504e-04   -2.7415843010e+00
    7.5254589319e-04   -2.4591212273e+00
    9.3496846966e-04   -2.1947054863e+00
    1.0917561594e-03   -1.9392930269e+00
    1.2146612862e-03   -1.7107635736e+00
    1.3180867536e-03   -1.4922714233e+00
    1.3990611769e-03   -1.2934565544e+00
    1.4604302123e-03   -1.1170160770e+00
    1.5095146373e-03   -9.5110100508e-01
    1.5443917364e-03   -8.0708026886e-01
    1.5690007713e-03   -6.8155479431e-01
    1.5855521196e-03   -5.7357454300e-01
    1.5959209995e-03   -4.8269316554e-01
    1.6016166192e-03   -4.0909034014e-01
    1.6042757779e-03   -3.4978899360e-01
    1.6048824182e-03   -3.0602127314e-01
    1.6044580843e-03   -2.7509251237e-01
    1.6037068563e-03   -2.5562837720e-01
    1.6030616825e-03   -2.4485564232e-01
    1.6027276870e-03   -2.4041712284e-01
    1.6026479425e-03   -2.3940934241e-01
endcurve
