Curveplot
LS-DYNA keyword deck by LS-PrePost
Time
Yrot-displ
Rigid Body Ids
300001 #pts=1800
* Minval=    -1.3216932678e+02 at time=       104.9981002808
* Maxval=     1.1784015805e-04 at time=         5.7972979546
    0.0000000000e+00   -9.4005102369e-08
    9.8131723702e-02   -1.0037640408e-07
    1.9777759910e-01   -1.0342903067e-07
    2.9714980721e-01   -1.0200475486e-07
    3.9712420106e-01   -9.4830255648e-08
    4.9946549535e-01   -8.0548907988e-08
    5.9952157736e-01   -5.7766474271e-08
    6.9985842705e-01   -2.5112505853e-08
    7.9722952843e-01    1.8680973213e-08
    8.9767682552e-01    7.4682802165e-08
    9.9792098999e-01    1.4364870538e-07
    1.0973709822e+00    2.2589216542e-07
    1.1972680092e+00    3.2113987913e-07
    1.2994970083e+00    4.2836725811e-07
    1.3997319937e+00    5.4561007801e-07
    1.4973330498e+00    6.6975769641e-07
    1.5999989510e+00    7.9634361327e-07
    1.6973439455e+00    9.1935277169e-07
    1.7996629477e+00    1.0310650396e-06
    1.8977860212e+00    1.1219551652e-06
    1.9977049828e+00    1.1806661178e-06
    2.0979049206e+00    1.1940704780e-06
    2.1989989281e+00    1.1474315897e-06
    2.2996149063e+00    1.0246795910e-06
    2.3976531029e+00    8.0882881548e-07
    2.4993429184e+00    4.8258027618e-07
    2.5995159149e+00    2.9161567383e-08
    2.6973249912e+00   -5.6654113223e-07
    2.7993741035e+00   -1.3165256405e-06
    2.8979868889e+00   -2.2278964025e-06
    2.9998979568e+00   -3.3008193441e-06
    3.0971369743e+00   -4.5263145694e-06
    3.1996030807e+00   -5.8840337260e-06
    3.2973039150e+00   -7.3402034104e-06
    3.3973619938e+00   -8.8459064500e-06
    3.4982099533e+00   -1.0335897059e-05
    3.5979719162e+00   -1.1728106074e-05
    3.6984260082e+00   -1.2923976101e-05
    3.7987799644e+00   -1.3809737538e-05
    3.8989360332e+00   -1.4258693227e-05
    3.9989879131e+00   -1.4134567209e-05
    4.0995130539e+00   -1.3295938516e-05
    4.1998658180e+00   -1.1601749975e-05
    4.2977957726e+00   -8.9178593043e-06
    4.3983960152e+00   -5.1245556278e-06
    4.4993729591e+00   -1.2492861856e-07
    4.5997672081e+00    6.1460577854e-06
    4.6976699829e+00    1.3711956854e-05
    4.7979531288e+00    2.2544854801e-05
    4.8985161781e+00    3.2555210055e-05
    4.9988789558e+00    4.3581716454e-05
    5.0992350578e+00    5.5381402490e-05
    5.1987199783e+00    6.7619999754e-05
    5.2987718582e+00    7.9862780694e-05
    5.3996767998e+00    9.1565809271e-05
    5.4999051094e+00    1.0206781008e-04
    5.5970678329e+00    1.1058256496e-04
    5.6994810104e+00    1.1619203724e-04
    5.7972979546e+00    1.1784015805e-04
    5.8981661797e+00    1.1432734755e-04
    5.9990282059e+00    1.0430590191e-04
    6.0998868942e+00    8.6275962531e-05
    6.1976847649e+00    5.8582154452e-05
    6.2985367775e+00    1.9411449102e-05
    6.3988189697e+00   -3.3207863453e-05
    6.4996647835e+00   -1.0140672384e-04
    6.5974521637e+00   -1.8747536524e-04
    6.6982932091e+00   -2.9386187089e-04
    6.7991309166e+00   -4.2316957843e-04
    6.8999671936e+00   -5.7815498440e-04
    6.9977440834e+00   -7.6172628906e-04
    7.0981087685e+00   -9.7694003489e-04
    7.1987500191e+00   -1.2269946747e-03
    7.2993869781e+00   -1.5152269043e-03
    7.3971500397e+00   -1.8451081123e-03
    7.4977788925e+00   -2.2202397231e-03
    7.5985870361e+00   -2.6443463285e-03
    7.6993899345e+00   -3.1212719623e-03
    7.7971320152e+00   -3.6549819633e-03
    7.8979239464e+00   -4.2495606467e-03
    7.9981718063e+00   -4.9092052504e-03
    8.0989513397e+00   -5.6382231414e-03
    8.1997241974e+00   -6.4410408959e-03
    8.2991724014e+00   -7.3222089559e-03
    8.3994083405e+00   -8.2864109427e-03
    8.4995565414e+00   -9.3384673819e-03
    8.5969944000e+00   -1.0483325459e-02
    8.6976537704e+00   -1.1726048775e-02
    8.7983942032e+00   -1.3071794063e-02
    8.8991308212e+00   -1.4525800012e-02
    8.9998617172e+00   -1.6093395650e-02
    9.0975370407e+00   -1.7780011520e-02
    9.1980934143e+00   -1.9591165707e-02
    9.2986459732e+00   -2.1532431245e-02
    9.3986206055e+00   -2.3609429598e-02
    9.4993324280e+00   -2.5827810168e-02
    9.5969905853e+00   -2.8193261474e-02
    9.6976966858e+00   -3.0711473897e-02
    9.7983989716e+00   -3.3388100564e-02
    9.8990983963e+00   -3.6228742450e-02
    9.9997940063e+00   -3.9238970727e-02
    1.0097430229e+01   -4.2424332350e-02
    1.0198120117e+01   -4.5790337026e-02
    1.0298800468e+01   -4.9342423677e-02
    1.0399470329e+01   -5.3085941821e-02
    1.0497090340e+01   -5.7026162744e-02
    1.0597749710e+01   -6.1168272048e-02
    1.0698410034e+01   -6.5517313778e-02
    1.0799050331e+01   -7.0078179240e-02
    1.0899680138e+01   -7.4855647981e-02
    1.0997260094e+01   -7.9854436219e-02
    1.1097869873e+01   -8.5079170763e-02
    1.1198459625e+01   -9.0534321964e-02
    1.1299039841e+01   -9.6224196255e-02
    1.1399600029e+01   -1.0215298086e-01
    1.1497099876e+01   -1.0832481086e-01
    1.1597629547e+01   -1.1474371701e-01
    1.1698129654e+01   -1.2141355127e-01
    1.1798620224e+01   -1.2833796442e-01
    1.1899089813e+01   -1.3552045822e-01
    1.1999529839e+01   -1.4296443760e-01
    1.2099960327e+01   -1.5067332983e-01
    1.2197319984e+01   -1.5865062177e-01
    1.2297699928e+01   -1.6689977050e-01
    1.2398059845e+01   -1.7542415857e-01
    1.2498410225e+01   -1.8422695994e-01
    1.2598730087e+01   -1.9331124425e-01
    1.2699029922e+01   -2.0268003643e-01
    1.2799309731e+01   -2.1233636141e-01
    1.2899570465e+01   -2.2228337824e-01
    1.2999810219e+01   -2.3252440989e-01
    1.3097000122e+01   -2.4306301773e-01
    1.3197199821e+01   -2.5390288234e-01
    1.3297380447e+01   -2.6504758000e-01
    1.3397540092e+01   -2.7650055289e-01
    1.3497670174e+01   -2.8826498985e-01
    1.3597789764e+01   -3.0034404993e-01
    1.3697879791e+01   -3.1274068356e-01
    1.3797940254e+01   -3.2545787096e-01
    1.3897979736e+01   -3.3849856257e-01
    1.3998000145e+01   -3.5186570883e-01
    1.4097979546e+01   -3.6556226015e-01
    1.4197939873e+01   -3.7959128618e-01
    1.4297869682e+01   -3.9395591617e-01
    1.4397769928e+01   -4.0865918994e-01
    1.4497639656e+01   -4.2370420694e-01
    1.4597479820e+01   -4.3909409642e-01
    1.4697290421e+01   -4.5483186841e-01
    1.4797069550e+01   -4.7092029452e-01
    1.4899849892e+01   -4.8736217618e-01
    1.4999569893e+01   -5.0416022539e-01
    1.5099260330e+01   -5.2131748199e-01
    1.5198920250e+01   -5.3883761168e-01
    1.5298560143e+01   -5.5672478676e-01
    1.5398170471e+01   -5.7498341799e-01
    1.5497750282e+01   -5.9361815453e-01
    1.5597310066e+01   -6.1263364553e-01
    1.5699850082e+01   -6.3203465939e-01
    1.5799349785e+01   -6.5182584524e-01
    1.5898830414e+01   -6.7201226950e-01
    1.5998279572e+01   -6.9259935617e-01
    1.6097709656e+01   -7.1359294653e-01
    1.6197109222e+01   -7.3499870300e-01
    1.6299499512e+01   -7.5682204962e-01
    1.6398860931e+01   -7.7906847000e-01
    1.6498189926e+01   -8.0174344778e-01
    1.6597490311e+01   -8.2485264540e-01
    1.6699789047e+01   -8.4840178490e-01
    1.6799049377e+01   -8.7239664793e-01
    1.6898279190e+01   -8.9684337378e-01
    1.6997499466e+01   -9.2174816132e-01
    1.7099689484e+01   -9.4711744785e-01
    1.7198860168e+01   -9.7295767069e-01
    1.7298000336e+01   -9.9927544594e-01
    1.7397109985e+01   -1.0260776281e+00
    1.7499200821e+01   -1.0533709526e+00
    1.7598260880e+01   -1.0811617374e+00
    1.7697299957e+01   -1.1094563007e+00
    1.7799310684e+01   -1.1382607222e+00
    1.7898290634e+01   -1.1675813198e+00
    1.7997240067e+01   -1.1974238157e+00
    1.8099149704e+01   -1.2277942896e+00
    1.8198040009e+01   -1.2586983442e+00
    1.8299900055e+01   -1.2901414633e+00
    1.8398719788e+01   -1.3221293688e+00
    1.8497520447e+01   -1.3546679020e+00
    1.8599279404e+01   -1.3877630234e+00
    1.8698020935e+01   -1.4214204550e+00
    1.8799720764e+01   -1.4556460381e+00
    1.8898389816e+01   -1.4904456139e+00
    1.9000030518e+01   -1.5258252621e+00
    1.9098640442e+01   -1.5617914200e+00
    1.9197229385e+01   -1.5983508825e+00
    1.9298770905e+01   -1.6355102062e+00
    1.9397300720e+01   -1.6732758284e+00
    1.9498779297e+01   -1.7116531134e+00
    1.9597240448e+01   -1.7506475449e+00
    1.9698650360e+01   -1.7902634144e+00
    1.9800029755e+01   -1.8305046558e+00
    1.9898399353e+01   -1.8713755608e+00
    1.9999700546e+01   -1.9128799438e+00
    2.0097999573e+01   -1.9550226927e+00
    2.0199230194e+01   -1.9978083372e+00
    2.0297439575e+01   -2.0412418842e+00
    2.0398590088e+01   -2.0853276253e+00
    2.0499689102e+01   -2.1300699711e+00
    2.0597780228e+01   -2.1754724979e+00
    2.0698799133e+01   -2.2215394974e+00
    2.0799770355e+01   -2.2682747841e+00
    2.0897720337e+01   -2.3156824112e+00
    2.0998590469e+01   -2.3637664318e+00
    2.1099409103e+01   -2.4125311375e+00
    2.1197210312e+01   -2.4619803429e+00
    2.1297939301e+01   -2.5121176243e+00
    2.1398599625e+01   -2.5629460812e+00
    2.1499219894e+01   -2.6144683361e+00
    2.1599790573e+01   -2.6666860580e+00
    2.1697340012e+01   -2.7196023464e+00
    2.1797809601e+01   -2.7732193470e+00
    2.1898220062e+01   -2.8275389671e+00
    2.1998580933e+01   -2.8825621605e+00
    2.2098880768e+01   -2.9382889271e+00
    2.2199140549e+01   -2.9947187901e+00
    2.2299339294e+01   -3.0518515110e+00
    2.2399490356e+01   -3.1096868515e+00
    2.2499580383e+01   -3.1682250500e+00
    2.2599630356e+01   -3.2274668217e+00
    2.2699619293e+01   -3.2874138355e+00
    2.2799549103e+01   -3.3480684757e+00
    2.2899440765e+01   -3.4094340801e+00
    2.2999269485e+01   -3.4715144634e+00
    2.3099050522e+01   -3.5343148708e+00
    2.3198770523e+01   -3.5978403091e+00
    2.3298450470e+01   -3.6620965004e+00
    2.3398069382e+01   -3.7270882130e+00
    2.3497640610e+01   -3.7928211689e+00
    2.3597160339e+01   -3.8592989445e+00
    2.3699550629e+01   -3.9265241623e+00
    2.3798959732e+01   -3.9944984913e+00
    2.3898319244e+01   -4.0632243156e+00
    2.3997629166e+01   -4.1327028275e+00
    2.4099800110e+01   -4.2029361725e+00
    2.4198999405e+01   -4.2739262581e+00
    2.4298139572e+01   -4.3456754684e+00
    2.4397230148e+01   -4.4181857109e+00
    2.4499179840e+01   -4.4914598465e+00
    2.4598169327e+01   -4.5654983521e+00
    2.4700000763e+01   -4.6403031349e+00
    2.4798879623e+01   -4.7158751488e+00
    2.4897699356e+01   -4.7922167778e+00
    2.4999380112e+01   -4.8693308830e+00
    2.5098089218e+01   -4.9472198486e+00
    2.5199659348e+01   -5.0258855820e+00
    2.5298269272e+01   -5.1053318977e+00
    2.5399730682e+01   -5.1855616570e+00
    2.5498249054e+01   -5.2665781975e+00
    2.5599599838e+01   -5.3483853340e+00
    2.5698020935e+01   -5.4309883118e+00
    2.5799280167e+01   -5.5143918991e+00
    2.5897600174e+01   -5.5985999107e+00
    2.5998769760e+01   -5.6836171150e+00
    2.6099889755e+01   -5.7694468498e+00
    2.6198070526e+01   -5.8560934067e+00
    2.6299100876e+01   -5.9435601234e+00
    2.6397190094e+01   -6.0318517685e+00
    2.6498119354e+01   -6.1209716797e+00
    2.6599000931e+01   -6.2109222412e+00
    2.6699840546e+01   -6.3017058372e+00
    2.6797750473e+01   -6.3933243752e+00
    2.6898490906e+01   -6.4857811928e+00
    2.6999179840e+01   -6.5790786743e+00
    2.7099830627e+01   -6.6732192039e+00
    2.7197549820e+01   -6.7682056427e+00
    2.7298099518e+01   -6.8640413284e+00
    2.7398590088e+01   -6.9607300758e+00
    2.7499040604e+01   -7.0582737923e+00
    2.7599439621e+01   -7.1566748619e+00
    2.7699789047e+01   -7.2559375763e+00
    2.7797220230e+01   -7.3560676575e+00
    2.7897470474e+01   -7.4570722580e+00
    2.7997669220e+01   -7.5589580536e+00
    2.8097810745e+01   -7.6617298126e+00
    2.8197900772e+01   -7.7653932571e+00
    2.8297939301e+01   -7.8699498177e+00
    2.8397920609e+01   -7.9754023552e+00
    2.8497850418e+01   -8.0817527771e+00
    2.8597730637e+01   -8.1890020370e+00
    2.8697549820e+01   -8.2971477509e+00
    2.8797309875e+01   -8.4061880112e+00
    2.8899869919e+01   -8.5161199570e+00
    2.8999519348e+01   -8.6269378662e+00
    2.9099119186e+01   -8.7386398315e+00
    2.9198659897e+01   -8.8512248993e+00
    2.9298139572e+01   -8.9646940231e+00
    2.9397569656e+01   -9.0790481567e+00
    2.9499769211e+01   -9.1942882538e+00
    2.9599079132e+01   -9.3104152679e+00
    2.9698329926e+01   -9.4274311066e+00
    2.9797519684e+01   -9.5453367233e+00
    2.9899480820e+01   -9.6641359329e+00
    2.9998550415e+01   -9.7838277817e+00
    3.0097560883e+01   -9.9044151306e+00
    3.0199340820e+01   -1.0025897026e+01
    3.0298229218e+01   -1.0148272514e+01
    3.0399879456e+01   -1.0271539688e+01
    3.0498649597e+01   -1.0395697594e+01
    3.0597349167e+01   -1.0520747185e+01
    3.0698810577e+01   -1.0646686554e+01
    3.0797380447e+01   -1.0773516655e+01
    3.0898710251e+01   -1.0901234627e+01
    3.0999969482e+01   -1.1029836655e+01
    3.1098350525e+01   -1.1159317970e+01
    3.1199480057e+01   -1.1289676666e+01
    3.1297740936e+01   -1.1420910835e+01
    3.1398729324e+01   -1.1553019524e+01
    3.1499660492e+01   -1.1685998917e+01
    3.1597719193e+01   -1.1819849968e+01
    3.1698520660e+01   -1.1954569817e+01
    3.1799249649e+01   -1.2090155602e+01
    3.1899919510e+01   -1.2226603508e+01
    3.1997730255e+01   -1.2363912582e+01
    3.2098270416e+01   -1.2502079010e+01
    3.2198749542e+01   -1.2641100883e+01
    3.2299160004e+01   -1.2780975342e+01
    3.2399520874e+01   -1.2921699524e+01
    3.2499809265e+01   -1.3063270569e+01
    3.2600040436e+01   -1.3205689430e+01
    3.2697429657e+01   -1.3348960876e+01
    3.2797550201e+01   -1.3493089676e+01
    3.2897609711e+01   -1.3638079643e+01
    3.2997608185e+01   -1.3783930779e+01
    3.3097549438e+01   -1.3930642128e+01
    3.3197441101e+01   -1.4078207016e+01
    3.3300041199e+01   -1.4226618767e+01
    3.3399810791e+01   -1.4375867844e+01
    3.3499530792e+01   -1.4525948524e+01
    3.3599201202e+01   -1.4676856041e+01
    3.3698799133e+01   -1.4828590393e+01
    3.3798358917e+01   -1.4981153488e+01
    3.3897861481e+01   -1.5134549141e+01
    3.3997310638e+01   -1.5288777351e+01
    3.4099468231e+01   -1.5443840027e+01
    3.4198341370e+01   -1.5599734306e+01
    3.4297641754e+01   -1.5756461143e+01
    3.4399650574e+01   -1.5914017677e+01
    3.4498050690e+01   -1.6072402954e+01
    3.4598999023e+01   -1.6231615067e+01
    3.4698940277e+01   -1.6391654968e+01
    3.4798679352e+01   -1.6552518845e+01
    3.4898540497e+01   -1.6714208603e+01
    3.4998031616e+01   -1.6876728058e+01
    3.5097480774e+01   -1.7040071487e+01
    3.5199001312e+01   -1.7204242706e+01
    3.5298370361e+01   -1.7369235992e+01
    3.5398841858e+01   -1.7535047531e+01
    3.5498130798e+01   -1.7701675415e+01
    3.5599788666e+01   -1.7869115829e+01
    3.5697719574e+01   -1.8037363052e+01
    3.5799148560e+01   -1.8206417084e+01
    3.5899261475e+01   -1.8376276016e+01
    3.5997699738e+01   -1.8546932220e+01
    3.6098499298e+01   -1.8718385696e+01
    3.6199920654e+01   -1.8890628815e+01
    3.6299198151e+01   -1.9063659668e+01
    3.6399749756e+01   -1.9237474442e+01
    3.6498958588e+01   -1.9412071228e+01
    3.6599910736e+01   -1.9587450027e+01
    3.6697769165e+01   -1.9763612747e+01
    3.6798801422e+01   -1.9940559387e+01
    3.6898021698e+01   -2.0118293762e+01
    3.6998950958e+01   -2.0296810150e+01
    3.7099090576e+01   -2.0476108551e+01
    3.7198200226e+01   -2.0656181335e+01
    3.7299678802e+01   -2.0837026596e+01
    3.7399028778e+01   -2.1018636703e+01
    3.7499488831e+01   -2.1201009750e+01
    3.7599720001e+01   -2.1384141922e+01
    3.7699779510e+01   -2.1568031311e+01
    3.7798500061e+01   -2.1752681732e+01
    3.7898639679e+01   -2.1938091278e+01
    3.7997291565e+01   -2.2124269485e+01
    3.8098140717e+01   -2.2311216354e+01
    3.8198150635e+01   -2.2498928070e+01
    3.8297470093e+01   -2.2687400818e+01
    3.8399139404e+01   -2.2876621246e+01
    3.8499481201e+01   -2.3066579819e+01
    3.8599300385e+01   -2.3257261276e+01
    3.8699558258e+01   -2.3448652267e+01
    3.8799781799e+01   -2.3640741348e+01
    3.8899169922e+01   -2.3833518982e+01
    3.8999309540e+01   -2.4026977539e+01
    3.9099411011e+01   -2.4221111298e+01
    3.9199470520e+01   -2.4415916443e+01
    3.9299480438e+01   -2.4611391068e+01
    3.9399448395e+01   -2.4807533264e+01
    3.9499069214e+01   -2.5004346848e+01
    3.9598480225e+01   -2.5201831818e+01
    3.9698329926e+01   -2.5399993896e+01
    3.9798130035e+01   -2.5598829269e+01
    3.9897880554e+01   -2.5798343658e+01
    3.9997589111e+01   -2.5998529434e+01
    4.0099948883e+01   -2.6199377060e+01
    4.0199558258e+01   -2.6400878906e+01
    4.0299129486e+01   -2.6603025436e+01
    4.0398658752e+01   -2.6805810928e+01
    4.0498138428e+01   -2.7009231567e+01
    4.0597568512e+01   -2.7213283539e+01
    4.0699649811e+01   -2.7417963028e+01
    4.0798999786e+01   -2.7623258591e+01
    4.0898300171e+01   -2.7829168320e+01
    4.0997558594e+01   -2.8035686493e+01
    4.1098991394e+01   -2.8242807388e+01
    4.1197700500e+01   -2.8450523376e+01
    4.1299049377e+01   -2.8658824921e+01
    4.1398139954e+01   -2.8867702484e+01
    4.1499870300e+01   -2.9077148438e+01
    4.1598800659e+01   -2.9287149429e+01
    4.1697639465e+01   -2.9497701645e+01
    4.1799060822e+01   -2.9708795547e+01
    4.1899799347e+01   -2.9920427322e+01
    4.1998348236e+01   -3.0132589340e+01
    4.2099201202e+01   -3.0345275879e+01
    4.2199039459e+01   -3.0558488846e+01
    4.2297290802e+01   -3.0772224426e+01
    4.2398208618e+01   -3.0986484528e+01
    4.2498970032e+01   -3.1201265335e+01
    4.2599670410e+01   -3.1416566849e+01
    4.2697750092e+01   -3.1632383347e+01
    4.2798240662e+01   -3.1848712921e+01
    4.2898658752e+01   -3.2065555573e+01
    4.2997470856e+01   -3.2282905579e+01
    4.3097579956e+01   -3.2500759125e+01
    4.3198970795e+01   -3.2719104767e+01
    4.3298458099e+01   -3.2937934875e+01
    4.3399719238e+01   -3.3157230377e+01
    4.3499561310e+01   -3.3376976013e+01
    4.3598400116e+01   -3.3597160339e+01
    4.3699859619e+01   -3.3817783356e+01
    4.3799240112e+01   -3.4038829803e+01
    4.3898399353e+01   -3.4260299683e+01
    4.3999591827e+01   -3.4482185364e+01
    4.4098560333e+01   -3.4704486847e+01
    4.4198829651e+01   -3.4927204132e+01
    4.4298889160e+01   -3.5150333405e+01
    4.4398700714e+01   -3.5373870850e+01
    4.4498718262e+01   -3.5597820282e+01
    4.4598720551e+01   -3.5822174072e+01
    4.4698699951e+01   -3.6046924591e+01
    4.4799030304e+01   -3.6272068024e+01
    4.4898990631e+01   -3.6497604370e+01
    4.4998931885e+01   -3.6723522186e+01
    4.5098861694e+01   -3.6949813843e+01
    4.5198780060e+01   -3.7176479340e+01
    4.5298690796e+01   -3.7403514862e+01
    4.5398590088e+01   -3.7630912781e+01
    4.5498481750e+01   -3.7858673096e+01
    4.5598999023e+01   -3.8086784363e+01
    4.5699069977e+01   -3.8315238953e+01
    4.5799480438e+01   -3.8544033051e+01
    4.5897491455e+01   -3.8773162842e+01
    4.5998249054e+01   -3.9002620697e+01
    4.6098850250e+01   -3.9232398987e+01
    4.6199031830e+01   -3.9462486267e+01
    4.6299510956e+01   -3.9692874908e+01
    4.6399860382e+01   -3.9923564911e+01
    4.6497940063e+01   -4.0154541016e+01
    4.6599109650e+01   -4.0385810852e+01
    4.6697448730e+01   -4.0617366791e+01
    4.6797901154e+01   -4.0849216461e+01
    4.6898170471e+01   -4.1081352234e+01
    4.6998760223e+01   -4.1313766479e+01
    4.7099048615e+01   -4.1546459198e+01
    4.7199790955e+01   -4.1779411316e+01
    4.7297618866e+01   -4.2012634277e+01
    4.7398868561e+01   -4.2246124268e+01
    4.7497409821e+01   -4.2479881287e+01
    4.7597599030e+01   -4.2713901520e+01
    4.7697841644e+01   -4.2948184967e+01
    4.7798110962e+01   -4.3182723999e+01
    4.7899570465e+01   -4.3417507172e+01
    4.7998279572e+01   -4.3652526855e+01
    4.8099380493e+01   -4.3887771606e+01
    4.8197719574e+01   -4.4123241425e+01
    4.8298358917e+01   -4.4358924866e+01
    4.8397758484e+01   -4.4594821930e+01
    4.8498550415e+01   -4.4830924988e+01
    4.8598899841e+01   -4.5067226410e+01
    4.8698181152e+01   -4.5303718567e+01
    4.8799030304e+01   -4.5540397644e+01
    4.8897418976e+01   -4.5777252197e+01
    4.8998680115e+01   -4.6014270782e+01
    4.9099491119e+01   -4.6251453400e+01
    4.9197910309e+01   -4.6488788605e+01
    4.9298931122e+01   -4.6726257324e+01
    4.9399650574e+01   -4.6963851929e+01
    4.9498119354e+01   -4.7201564789e+01
    4.9599349976e+01   -4.7439384460e+01
    4.9699428558e+01   -4.7677299500e+01
    4.9799770355e+01   -4.7915309906e+01
    4.9897579193e+01   -4.8153408051e+01
    4.9998149872e+01   -4.8391590118e+01
    5.0099411011e+01   -4.8629852295e+01
    5.0198020935e+01   -4.8868186951e+01
    5.0299098969e+01   -4.9106586456e+01
    5.0399578094e+01   -4.9345039368e+01
    5.0499759674e+01   -4.9583541870e+01
    5.0597839355e+01   -4.9822086334e+01
    5.0699699402e+01   -5.0060676575e+01
    5.0797451019e+01   -5.0299312592e+01
    5.0898540497e+01   -5.0537986755e+01
    5.0999458313e+01   -5.0776699066e+01
    5.1097579956e+01   -5.1015449524e+01
    5.1198738098e+01   -5.1254238129e+01
    5.1297969818e+01   -5.1493061066e+01
    5.1399181366e+01   -5.1731918335e+01
    5.1497299194e+01   -5.1970809937e+01
    5.1597240448e+01   -5.2209735870e+01
    5.1697460175e+01   -5.2448688507e+01
    5.1797988892e+01   -5.2687664032e+01
    5.1898639679e+01   -5.2926654816e+01
    5.1998680115e+01   -5.3165641785e+01
    5.2098411560e+01   -5.3404624939e+01
    5.2198108673e+01   -5.3643592834e+01
    5.2297790527e+01   -5.3882537842e+01
    5.2397289276e+01   -5.4121456146e+01
    5.2499111176e+01   -5.4360336304e+01
    5.2598281860e+01   -5.4599174500e+01
    5.2697418213e+01   -5.4837959290e+01
    5.2799320221e+01   -5.5076683044e+01
    5.2898719788e+01   -5.5315345764e+01
    5.2997779846e+01   -5.5553936005e+01
    5.3097579956e+01   -5.5792449951e+01
    5.3199069977e+01   -5.6030883789e+01
    5.3298049927e+01   -5.6269229889e+01
    5.3399478912e+01   -5.6507476807e+01
    5.3498710632e+01   -5.6745624542e+01
    5.3597610474e+01   -5.6983661652e+01
    5.3698940277e+01   -5.7221584320e+01
    5.3797790527e+01   -5.7459396362e+01
    5.3899059296e+01   -5.7697090149e+01
    5.3997848511e+01   -5.7934661865e+01
    5.4099159241e+01   -5.8172111511e+01
    5.4197898865e+01   -5.8409431458e+01
    5.4299011230e+01   -5.8646617889e+01
    5.4397750854e+01   -5.8883686066e+01
    5.4498939514e+01   -5.9120628357e+01
    5.4597518921e+01   -5.9357456207e+01
    5.4698650360e+01   -5.9594161987e+01
    5.4797359467e+01   -5.9830741882e+01
    5.4898509979e+01   -6.0067192078e+01
    5.4999450684e+01   -6.0303508759e+01
    5.5097801208e+01   -6.0539672852e+01
    5.5198688507e+01   -6.0775676727e+01
    5.5299629211e+01   -6.1011520386e+01
    5.5397880554e+01   -6.1247188568e+01
    5.5498561859e+01   -6.1482666016e+01
    5.5599208832e+01   -6.1717964172e+01
    5.5697448730e+01   -6.1953067780e+01
    5.5798358917e+01   -6.2187976837e+01
    5.5899250031e+01   -6.2422676086e+01
    5.5997589111e+01   -6.2657173157e+01
    5.6098400116e+01   -6.2891460419e+01
    5.6199501038e+01   -6.3125526428e+01
    5.6297580719e+01   -6.3359359741e+01
    5.6398200989e+01   -6.3592952728e+01
    5.6498661041e+01   -6.3826301575e+01
    5.6599319458e+01   -6.4059402466e+01
    5.6697719574e+01   -6.4292259216e+01
    5.6798339844e+01   -6.4524856567e+01
    5.6898788452e+01   -6.4757217407e+01
    5.6997261047e+01   -6.4989334106e+01
    5.7097389221e+01   -6.5221229553e+01
    5.7198009491e+01   -6.5452896118e+01
    5.7298629761e+01   -6.5684341431e+01
    5.7398380280e+01   -6.5915557861e+01
    5.7497478485e+01   -6.6146537781e+01
    5.7598579407e+01   -6.6377288818e+01
    5.7698459625e+01   -6.6607788086e+01
    5.7798351288e+01   -6.6838027954e+01
    5.7897289276e+01   -6.7068016052e+01
    5.7998588562e+01   -6.7297737122e+01
    5.8099460602e+01   -6.7527183533e+01
    5.8198238373e+01   -6.7756347656e+01
    5.8297641754e+01   -6.7985214233e+01
    5.8399311066e+01   -6.8213798523e+01
    5.8498249054e+01   -6.8442077637e+01
    5.8597499847e+01   -6.8670051575e+01
    5.8699440002e+01   -6.8897720337e+01
    5.8798271179e+01   -6.9125076294e+01
    5.8897750854e+01   -6.9352119446e+01
    5.8998489380e+01   -6.9578842163e+01
    5.9097179413e+01   -6.9805252075e+01
    5.9199638367e+01   -7.0031326294e+01
    5.9298309326e+01   -7.0257072449e+01
    5.9397918701e+01   -7.0482475281e+01
    5.9499420166e+01   -7.0707534790e+01
    5.9598480225e+01   -7.0932250977e+01
    5.9698341370e+01   -7.1156623840e+01
    5.9798080444e+01   -7.1380653381e+01
    5.9897701263e+01   -7.1604331970e+01
    5.9999050140e+01   -7.1827659607e+01
    6.0098281860e+01   -7.2050613403e+01
    6.0199390411e+01   -7.2273200989e+01
    6.0299289703e+01   -7.2495407104e+01
    6.0398300171e+01   -7.2717231750e+01
    6.0497489929e+01   -7.2938682556e+01
    6.0599060059e+01   -7.3159744263e+01
    6.0698150635e+01   -7.3380424500e+01
    6.0797569275e+01   -7.3600746155e+01
    6.0899288177e+01   -7.3820701599e+01
    6.0998180389e+01   -7.4040290833e+01
    6.1097190857e+01   -7.4259521484e+01
    6.1198680878e+01   -7.4478385925e+01
    6.1297611237e+01   -7.4696876526e+01
    6.1399230957e+01   -7.4914993286e+01
    6.1498401642e+01   -7.5132736206e+01
    6.1597530365e+01   -7.5350090027e+01
    6.1699020386e+01   -7.5567070007e+01
    6.1798038483e+01   -7.5783660889e+01
    6.1897300720e+01   -7.5999862671e+01
    6.1999191284e+01   -7.6215667725e+01
    6.2098331451e+01   -7.6431076050e+01
    6.2197521210e+01   -7.6646072388e+01
    6.2299350739e+01   -7.6860664368e+01
    6.2398300171e+01   -7.7074829102e+01
    6.2497520447e+01   -7.7288574219e+01
    6.2599170685e+01   -7.7501892090e+01
    6.2698459625e+01   -7.7714790344e+01
    6.2798080444e+01   -7.7927268982e+01
    6.2899578094e+01   -7.8139328003e+01
    6.2998950958e+01   -7.8350982666e+01
    6.3098060608e+01   -7.8562225342e+01
    6.3197338104e+01   -7.8773063660e+01
    6.3299049377e+01   -7.8983505249e+01
    6.3398418427e+01   -7.9193550110e+01
    6.3497619629e+01   -7.9403198242e+01
    6.3599300385e+01   -7.9612449646e+01
    6.3698581696e+01   -7.9821304321e+01
    6.3797870636e+01   -8.0029739380e+01
    6.3897308350e+01   -8.0237747192e+01
    6.3999179840e+01   -8.0445327759e+01
    6.4098449707e+01   -8.0652465820e+01
    6.4197738647e+01   -8.0859169006e+01
    6.4299522400e+01   -8.1065429688e+01
    6.4399429321e+01   -8.1271247864e+01
    6.4498908997e+01   -8.1476615906e+01
    6.4598991394e+01   -8.1681549072e+01
    6.4698806763e+01   -8.1886032104e+01
    6.4798797607e+01   -8.2090072632e+01
    6.4898666382e+01   -8.2293663025e+01
    6.4998863220e+01   -8.2496818542e+01
    6.5098930359e+01   -8.2699531555e+01
    6.5197319031e+01   -8.2901802063e+01
    6.5297538757e+01   -8.3103660583e+01
    6.5397941589e+01   -8.3305091858e+01
    6.5498916626e+01   -8.3506118774e+01
    6.5597908020e+01   -8.3706748962e+01
    6.5696937561e+01   -8.3906982422e+01
    6.5798027039e+01   -8.4106826782e+01
    6.5897132874e+01   -8.4306274414e+01
    6.5998229980e+01   -8.4505340576e+01
    6.6097801208e+01   -8.4704010010e+01
    6.6198822021e+01   -8.4902282715e+01
    6.6297546387e+01   -8.5100151062e+01
    6.6398971558e+01   -8.5297615051e+01
    6.6497550964e+01   -8.5494674683e+01
    6.6598426819e+01   -8.5691329956e+01
    6.6698593140e+01   -8.5887573242e+01
    6.6798789978e+01   -8.6083404541e+01
    6.6897163391e+01   -8.6278823853e+01
    6.6998527527e+01   -8.6473846436e+01
    6.7097442627e+01   -8.6668449402e+01
    6.7199211121e+01   -8.6862655640e+01
    6.7299301147e+01   -8.7056449890e+01
    6.7397323608e+01   -8.7249847412e+01
    6.7497337341e+01   -8.7442855835e+01
    6.7597892761e+01   -8.7635482788e+01
    6.7697700500e+01   -8.7827735901e+01
    6.7798629761e+01   -8.8019607544e+01
    6.7897018433e+01   -8.8211112976e+01
    6.7998283386e+01   -8.8402229309e+01
    6.8097930908e+01   -8.8592987061e+01
    6.8198791504e+01   -8.8783370972e+01
    6.8297981262e+01   -8.8973388672e+01
    6.8397506714e+01   -8.9163047791e+01
    6.8497161865e+01   -8.9352333069e+01
    6.8599288940e+01   -8.9541267395e+01
    6.8697433472e+01   -8.9729827881e+01
    6.8797126770e+01   -8.9918022156e+01
    6.8898696899e+01   -9.0105842590e+01
    6.8998390198e+01   -9.0293296814e+01
    6.9098518372e+01   -9.0480384827e+01
    6.9198692322e+01   -9.0667098999e+01
    6.9298683167e+01   -9.0853454590e+01
    6.9399192810e+01   -9.1039451599e+01
    6.9497528076e+01   -9.1225097656e+01
    6.9598052979e+01   -9.1410408020e+01
    6.9699043274e+01   -9.1595382690e+01
    6.9797462463e+01   -9.1780029297e+01
    6.9898483276e+01   -9.1964347839e+01
    6.9997100830e+01   -9.2148361206e+01
    7.0098556519e+01   -9.2332061768e+01
    7.0199150085e+01   -9.2515457153e+01
    7.0297866821e+01   -9.2698547363e+01
    7.0398742676e+01   -9.2881347656e+01
    7.0497482300e+01   -9.3063865662e+01
    7.0598907471e+01   -9.3246093750e+01
    7.0698333740e+01   -9.3428039551e+01
    7.0797523499e+01   -9.3609718323e+01
    7.0897071838e+01   -9.3791137695e+01
    7.0996871948e+01   -9.3972305298e+01
    7.1099281311e+01   -9.4153221130e+01
    7.1199310303e+01   -9.4333900452e+01
    7.1299423218e+01   -9.4514320374e+01
    7.1397048950e+01   -9.4694488525e+01
    7.1497390747e+01   -9.4874397278e+01
    7.1597602844e+01   -9.5054046631e+01
    7.1697776794e+01   -9.5233413696e+01
    7.1798316956e+01   -9.5412498474e+01
    7.1898742676e+01   -9.5591308594e+01
    7.1999107361e+01   -9.5769805908e+01
    7.2097106934e+01   -9.5948005676e+01
    7.2197616577e+01   -9.6125892639e+01
    7.2298492432e+01   -9.6303459167e+01
    7.2399223328e+01   -9.6480705261e+01
    7.2497467041e+01   -9.6657623291e+01
    7.2598342896e+01   -9.6834205627e+01
    7.2699157715e+01   -9.7010444641e+01
    7.2797477722e+01   -9.7186347961e+01
    7.2898117065e+01   -9.7361923218e+01
    7.2999320984e+01   -9.7537178040e+01
    7.3097717285e+01   -9.7712127686e+01
    7.3198440552e+01   -9.7886787415e+01
    7.3299453735e+01   -9.8061149597e+01
    7.3398017883e+01   -9.8235244751e+01
    7.3499298096e+01   -9.8409080505e+01
    7.3598129272e+01   -9.8582664490e+01
    7.3696769714e+01   -9.8756011963e+01
    7.3799018860e+01   -9.8929138184e+01
    7.3897758484e+01   -9.9102073669e+01
    7.3997131348e+01   -9.9274818420e+01
    7.4098960876e+01   -9.9447395325e+01
    7.4198150635e+01   -9.9619812012e+01
    7.4297546387e+01   -9.9792068481e+01
    7.4397247314e+01   -9.9964172363e+01
    7.4499099731e+01   -1.0013613892e+02
    7.4598106384e+01   -1.0030796051e+02
    7.4697647095e+01   -1.0047966003e+02
    7.4797248840e+01   -1.0065125275e+02
    7.4896896362e+01   -1.0082273102e+02
    7.4999191284e+01   -1.0099411774e+02
    7.5098937988e+01   -1.0116542053e+02
    7.5198638916e+01   -1.0133664703e+02
    7.5298393250e+01   -1.0150780487e+02
    7.5398277283e+01   -1.0167892456e+02
    7.5498031616e+01   -1.0184999847e+02
    7.5597930908e+01   -1.0202106476e+02
    7.5697967529e+01   -1.0219210815e+02
    7.5797866821e+01   -1.0236315155e+02
    7.5897842407e+01   -1.0253421021e+02
    7.5997863770e+01   -1.0270528412e+02
    7.6097427368e+01   -1.0287639618e+02
    7.6197387695e+01   -1.0304756927e+02
    7.6297561646e+01   -1.0321880341e+02
    7.6397010803e+01   -1.0339011383e+02
    7.6499313354e+01   -1.0356150818e+02
    7.6596862793e+01   -1.0373299408e+02
    7.6699172974e+01   -1.0390457153e+02
    7.6798988342e+01   -1.0407624817e+02
    7.6898811340e+01   -1.0424802399e+02
    7.6998283386e+01   -1.0441991425e+02
    7.7096969604e+01   -1.0459191895e+02
    7.7198776245e+01   -1.0476404572e+02
    7.7298393250e+01   -1.0493630219e+02
    7.7397293091e+01   -1.0510871124e+02
    7.7496917725e+01   -1.0528127289e+02
    7.7599113464e+01   -1.0545400238e+02
    7.7698486328e+01   -1.0562690735e+02
    7.7798057556e+01   -1.0579999542e+02
    7.7897842407e+01   -1.0597327423e+02
    7.7997779846e+01   -1.0614673615e+02
    7.8097908020e+01   -1.0632039642e+02
    7.8198226929e+01   -1.0649423218e+02
    7.8298736572e+01   -1.0666825867e+02
    7.8396713257e+01   -1.0684246826e+02
    7.8497596741e+01   -1.0701686859e+02
    7.8598670959e+01   -1.0719143677e+02
    7.8697181702e+01   -1.0736618805e+02
    7.8798599243e+01   -1.0754110718e+02
    7.8897407532e+01   -1.0771619415e+02
    7.8999099731e+01   -1.0789144135e+02
    7.9098182678e+01   -1.0806684875e+02
    7.9197410583e+01   -1.0824242401e+02
    7.9296768188e+01   -1.0841815186e+02
    7.9398941040e+01   -1.0859405518e+02
    7.9498413086e+01   -1.0877011108e+02
    7.9597908020e+01   -1.0894631958e+02
    7.9697456360e+01   -1.0912268066e+02
    7.9797073364e+01   -1.0929919434e+02
    7.9896697998e+01   -1.0947585297e+02
    7.9999153137e+01   -1.0965264893e+02
    8.0098861694e+01   -1.0982956696e+02
    8.0198623657e+01   -1.1000661469e+02
    8.0298393250e+01   -1.1018378448e+02
    8.0398208618e+01   -1.1036106873e+02
    8.0498062134e+01   -1.1053847504e+02
    8.0597938538e+01   -1.1071598053e+02
    8.0697937012e+01   -1.1089360046e+02
    8.0797882080e+01   -1.1107131195e+02
    8.0897842407e+01   -1.1124912262e+02
    8.0997833252e+01   -1.1142702484e+02
    8.1097846985e+01   -1.1160501862e+02
    8.1197883606e+01   -1.1178308868e+02
    8.1297950745e+01   -1.1196123505e+02
    8.1398033142e+01   -1.1213945770e+02
    8.1498153687e+01   -1.1231774139e+02
    8.1598266602e+01   -1.1249609375e+02
    8.1698432922e+01   -1.1267449188e+02
    8.1798599243e+01   -1.1285292053e+02
    8.1898788452e+01   -1.1303135681e+02
    8.1999000549e+01   -1.1320978546e+02
    8.2099243164e+01   -1.1338819122e+02
    8.2196693420e+01   -1.1356655884e+02
    8.2296958923e+01   -1.1374488831e+02
    8.2397232056e+01   -1.1392315674e+02
    8.2497528076e+01   -1.1410135651e+02
    8.2597831726e+01   -1.1427947235e+02
    8.2698150635e+01   -1.1445749664e+02
    8.2798492432e+01   -1.1463540649e+02
    8.2898841858e+01   -1.1481318665e+02
    8.2999206543e+01   -1.1499081421e+02
    8.3096801758e+01   -1.1516830444e+02
    8.3197196960e+01   -1.1534563446e+02
    8.3297630310e+01   -1.1552281952e+02
    8.3398071289e+01   -1.1569985199e+02
    8.3498542786e+01   -1.1587673187e+02
    8.3599029541e+01   -1.1605346680e+02
    8.3696746826e+01   -1.1623004913e+02
    8.3797302246e+01   -1.1640649414e+02
    8.3897880554e+01   -1.1658278656e+02
    8.3998481750e+01   -1.1675891876e+02
    8.4099121094e+01   -1.1693486786e+02
    8.4196983337e+01   -1.1711060333e+02
    8.4297683716e+01   -1.1728609467e+02
    8.4398406982e+01   -1.1746128082e+02
    8.4499168396e+01   -1.1763612366e+02
    8.4597160339e+01   -1.1781056213e+02
    8.4697990417e+01   -1.1798452759e+02
    8.4798851013e+01   -1.1815796661e+02
    8.4896949768e+01   -1.1833079529e+02
    8.4997886658e+01   -1.1850292206e+02
    8.5098861694e+01   -1.1867425537e+02
    8.5197059631e+01   -1.1884469604e+02
    8.5298103333e+01   -1.1901414490e+02
    8.5399177551e+01   -1.1918248749e+02
    8.5497482300e+01   -1.1934959412e+02
    8.5598617554e+01   -1.1951535034e+02
    8.5696983337e+01   -1.1967963409e+02
    8.5798171997e+01   -1.1984231567e+02
    8.5899047852e+01   -1.2000325775e+02
    8.5997467041e+01   -1.2016233826e+02
    8.6098739624e+01   -1.2031941223e+02
    8.6197196960e+01   -1.2047435760e+02
    8.6298492432e+01   -1.2062703705e+02
    8.6396972656e+01   -1.2077730560e+02
    8.6497840881e+01   -1.2092504120e+02
    8.6598327637e+01   -1.2107011414e+02
    8.6698226929e+01   -1.2121241760e+02
    8.6798606873e+01   -1.2135184479e+02
    8.6899032593e+01   -1.2148829651e+02
    8.6997886658e+01   -1.2162170410e+02
    8.7097602844e+01   -1.2175199127e+02
    8.7198951721e+01   -1.2187912750e+02
    8.7298950195e+01   -1.2200305939e+02
    8.7397720337e+01   -1.2212378693e+02
    8.7496788025e+01   -1.2224127960e+02
    8.7596893311e+01   -1.2235553741e+02
    8.7697113037e+01   -1.2246657562e+02
    8.7797523499e+01   -1.2257439423e+02
    8.7896530151e+01   -1.2267901611e+02
    8.7998916626e+01   -1.2278045654e+02
    8.8097068787e+01   -1.2287875366e+02
    8.8198181152e+01   -1.2297394562e+02
    8.8296432495e+01   -1.2306610107e+02
    8.8397956848e+01   -1.2315529633e+02
    8.8496406555e+01   -1.2324162292e+02
    8.8596496582e+01   -1.2332518005e+02
    8.8697662354e+01   -1.2340608978e+02
    8.8798866272e+01   -1.2348450470e+02
    8.8897300720e+01   -1.2356054688e+02
    8.8998611450e+01   -1.2363439178e+02
    8.9097167969e+01   -1.2370621490e+02
    8.9198623657e+01   -1.2377619934e+02
    8.9297340393e+01   -1.2384456635e+02
    8.9398956299e+01   -1.2391150665e+02
    8.9497863770e+01   -1.2397724915e+02
    8.9596847534e+01   -1.2404199219e+02
    8.9698776245e+01   -1.2410594177e+02
    8.9797988892e+01   -1.2416928864e+02
    8.9897323608e+01   -1.2423222351e+02
    8.9996772766e+01   -1.2429492950e+02
    9.0099197388e+01   -1.2435756683e+02
    9.0198890686e+01   -1.2442027283e+02
    9.0298698425e+01   -1.2448318481e+02
    9.0398628235e+01   -1.2454639435e+02
    9.0498672485e+01   -1.2461000824e+02
    9.0598831177e+01   -1.2467408752e+02
    9.0699096680e+01   -1.2473870850e+02
    9.0796600342e+01   -1.2480390167e+02
    9.0897071838e+01   -1.2486969757e+02
    9.0997657776e+01   -1.2493610382e+02
    9.1098342896e+01   -1.2500314331e+02
    9.1199127197e+01   -1.2507080078e+02
    9.1297126770e+01   -1.2513906860e+02
    9.1398117065e+01   -1.2520793915e+02
    9.1496307373e+01   -1.2527738190e+02
    9.1597473145e+01   -1.2534736633e+02
    9.1698753357e+01   -1.2541787720e+02
    9.1797233582e+01   -1.2548886871e+02
    9.1898216248e+01   -1.2556027985e+02
    9.1998619080e+01   -1.2563207245e+02
    9.2097480774e+01   -1.2570419312e+02
    9.2198501587e+01   -1.2577658844e+02
    9.2297737122e+01   -1.2584922028e+02
    9.2398643494e+01   -1.2592205048e+02
    9.2496726990e+01   -1.2599504852e+02
    9.2597503662e+01   -1.2606818390e+02
    9.2698196411e+01   -1.2614141083e+02
    9.2797630310e+01   -1.2621471405e+02
    9.2898216248e+01   -1.2628806305e+02
    9.2998352051e+01   -1.2636144257e+02
    9.3096382141e+01   -1.2643483734e+02
    9.3196899414e+01   -1.2650823212e+02
    9.3297180176e+01   -1.2658161926e+02
    9.3397460938e+01   -1.2665499878e+02
    9.3497680664e+01   -1.2672835541e+02
    9.3597846985e+01   -1.2680166626e+02
    9.3697967529e+01   -1.2687492371e+02
    9.3798042297e+01   -1.2694812775e+02
    9.3896553040e+01   -1.2702125549e+02
    9.3999031067e+01   -1.2709432220e+02
    9.4096572876e+01   -1.2716730499e+02
    9.4196952820e+01   -1.2724019623e+02
    9.4297286987e+01   -1.2731297302e+02
    9.4397613525e+01   -1.2738562775e+02
    9.4497871399e+01   -1.2745814514e+02
    9.4598098755e+01   -1.2753051758e+02
    9.4698303223e+01   -1.2760272217e+02
    9.4798446655e+01   -1.2767475128e+02
    9.4898559570e+01   -1.2774656677e+02
    9.4998626709e+01   -1.2781816864e+02
    9.5098670959e+01   -1.2788954163e+02
    9.5198669434e+01   -1.2796067047e+02
    9.5298652649e+01   -1.2803152466e+02
    9.5398590088e+01   -1.2810209656e+02
    9.5498497009e+01   -1.2817237854e+02
    9.5598396301e+01   -1.2824235535e+02
    9.5698272705e+01   -1.2831199646e+02
    9.5798110962e+01   -1.2838130188e+02
    9.5897918701e+01   -1.2845025635e+02
    9.5997688293e+01   -1.2851885986e+02
    9.6096450806e+01   -1.2858708191e+02
    9.6198371887e+01   -1.2865493774e+02
    9.6299041748e+01   -1.2872242737e+02
    9.6398139954e+01   -1.2878955078e+02
    9.6497222900e+01   -1.2885629272e+02
    9.6598373413e+01   -1.2892266846e+02
    9.6697746277e+01   -1.2898864746e+02
    9.6797042847e+01   -1.2905424500e+02
    9.6896270752e+01   -1.2911943054e+02
    9.6998252869e+01   -1.2918417358e+02
    9.7097312927e+01   -1.2924850464e+02
    9.7196289062e+01   -1.2931237793e+02
    9.7298011780e+01   -1.2937580872e+02
    9.7396812439e+01   -1.2943878174e+02
    9.7498359680e+01   -1.2950129700e+02
    9.7596977234e+01   -1.2956333923e+02
    9.7698333740e+01   -1.2962489319e+02
    9.7796760559e+01   -1.2968595886e+02
    9.7897903442e+01   -1.2974652100e+02
    9.7998931885e+01   -1.2980657959e+02
    9.8097053528e+01   -1.2986610413e+02
    9.8197883606e+01   -1.2992510986e+02
    9.8298606873e+01   -1.2998356628e+02
    9.8396461487e+01   -1.3004145813e+02
    9.8497016907e+01   -1.3009880066e+02
    9.8597488403e+01   -1.3015554810e+02
    9.8697868347e+01   -1.3021173096e+02
    9.8798171997e+01   -1.3026731873e+02
    9.8898391724e+01   -1.3032229614e+02
    9.8998542786e+01   -1.3037667847e+02
    9.9098632812e+01   -1.3043045044e+02
    9.9198631287e+01   -1.3048359680e+02
    9.9298576355e+01   -1.3053611755e+02
    9.9398483276e+01   -1.3058799744e+02
    9.9498329163e+01   -1.3063923645e+02
    9.9598136902e+01   -1.3068981934e+02
    9.9698432922e+01   -1.3073973083e+02
    9.9796913147e+01   -1.3078897095e+02
    9.9897789001e+01   -1.3083749390e+02
    9.9997489929e+01   -1.3088533020e+02
    1.0009670258e+02   -1.3093246460e+02
    1.0019770050e+02   -1.3097886658e+02
    1.0029720306e+02   -1.3102456665e+02
    1.0039900208e+02   -1.3106951904e+02
    1.0049839783e+02   -1.3111370850e+02
    1.0059799957e+02   -1.3115715027e+02
    1.0069750214e+02   -1.3119981384e+02
    1.0079699707e+02   -1.3124171448e+02
    1.0089669800e+02   -1.3128280640e+02
    1.0099819946e+02   -1.3132310486e+02
    1.0109700012e+02   -1.3136260986e+02
    1.0119850159e+02   -1.3140130615e+02
    1.0129730225e+02   -1.3143917847e+02
    1.0139869690e+02   -1.3147621155e+02
    1.0149749756e+02   -1.3151240540e+02
    1.0159889984e+02   -1.3154772949e+02
    1.0169770050e+02   -1.3158218384e+02
    1.0179640198e+02   -1.3161576843e+02
    1.0189779663e+02   -1.3164846802e+02
    1.0199649811e+02   -1.3168025208e+02
    1.0209790039e+02   -1.3171112061e+02
    1.0219660187e+02   -1.3174107361e+02
    1.0229789734e+02   -1.3177008057e+02
    1.0239640045e+02   -1.3179812622e+02
    1.0249759674e+02   -1.3182524109e+02
    1.0259829712e+02   -1.3185137939e+02
    1.0269899750e+02   -1.3187655640e+02
    1.0279759979e+02   -1.3190075684e+02
    1.0289790344e+02   -1.3192398071e+02
    1.0299700165e+02   -1.3194619751e+02
    1.0309889984e+02   -1.3196743774e+02
    1.0319799805e+02   -1.3198764038e+02
    1.0329709625e+02   -1.3200685120e+02
    1.0339890289e+02   -1.3202502441e+02
    1.0349790192e+02   -1.3204216003e+02
    1.0359700012e+02   -1.3205825806e+02
    1.0369869995e+02   -1.3207330322e+02
    1.0379759979e+02   -1.3208729553e+02
    1.0389659882e+02   -1.3210020447e+02
    1.0399819946e+02   -1.3211204529e+02
    1.0409700012e+02   -1.3212280273e+02
    1.0419860077e+02   -1.3213246155e+02
    1.0429730225e+02   -1.3214102173e+02
    1.0439869690e+02   -1.3214845276e+02
    1.0449770355e+02   -1.3215476990e+02
    1.0459870148e+02   -1.3215994263e+02
    1.0469670105e+02   -1.3216398621e+02
    1.0479720306e+02   -1.3216690063e+02
    1.0489769745e+02   -1.3216868591e+02
    1.0499810028e+02   -1.3216932678e+02
    1.0509850311e+02   -1.3216883850e+02
    1.0519879913e+02   -1.3216720581e+02
    1.0529650116e+02   -1.3216444397e+02
    1.0539669800e+02   -1.3216055298e+02
    1.0549680328e+02   -1.3215551758e+02
    1.0559690094e+02   -1.3214935303e+02
    1.0569740295e+02   -1.3214205933e+02
    1.0579759979e+02   -1.3213363647e+02
    1.0589659882e+02   -1.3212409973e+02
    1.0599690247e+02   -1.3211343384e+02
    1.0609690094e+02   -1.3210165405e+02
    1.0619680023e+02   -1.3208874512e+02
    1.0629879761e+02   -1.3207469177e+02
    1.0639820099e+02   -1.3205949402e+02
    1.0649639893e+02   -1.3204315186e+02
    1.0659889984e+02   -1.3202563477e+02
    1.0669889832e+02   -1.3200697327e+02
    1.0679699707e+02   -1.3198712158e+02
    1.0689849854e+02   -1.3196609497e+02
    1.0699659729e+02   -1.3194386292e+02
    1.0709709930e+02   -1.3192045593e+02
    1.0719850159e+02   -1.3189584351e+02
    1.0729750061e+02   -1.3187004089e+02
    1.0739749908e+02   -1.3184304810e+02
    1.0749780273e+02   -1.3181486511e+02
    1.0759709930e+02   -1.3178549194e+02
    1.0769660187e+02   -1.3175492859e+02
    1.0779879761e+02   -1.3172317505e+02
    1.0789720154e+02   -1.3169023132e+02
    1.0799669647e+02   -1.3165608215e+02
    1.0809850311e+02   -1.3162071228e+02
    1.0819779968e+02   -1.3158413696e+02
    1.0829660034e+02   -1.3154635620e+02
    1.0839739990e+02   -1.3150733948e+02
    1.0849759674e+02   -1.3146708679e+02
    1.0859850311e+02   -1.3142559814e+02
    1.0869840240e+02   -1.3138288879e+02
    1.0879779816e+02   -1.3133894348e+02
    1.0889779663e+02   -1.3129374695e+02
    1.0899810028e+02   -1.3124729919e+02
    1.0909729767e+02   -1.3119961548e+02
    1.0919819641e+02   -1.3115068054e+02
    1.0929669952e+02   -1.3110049438e+02
    1.0939689636e+02   -1.3104905701e+02
    1.0949729919e+02   -1.3099635315e+02
    1.0959889984e+02   -1.3094239807e+02
    1.0969789886e+02   -1.3088717651e+02
    1.0979820251e+02   -1.3083071899e+02
    1.0989749908e+02   -1.3077301025e+02
    1.0999870300e+02   -1.3071403503e+02
    1.1009750366e+02   -1.3065379333e+02
    1.1019850159e+02   -1.3059230042e+02
    1.1029699707e+02   -1.3052951050e+02
    1.1039689636e+02   -1.3046543884e+02
    1.1049870300e+02   -1.3040007019e+02
    1.1059819794e+02   -1.3033343506e+02
    1.1069760132e+02   -1.3026550293e+02
    1.1079689789e+02   -1.3019630432e+02
    1.1089880371e+02   -1.3012583923e+02
    1.1099839783e+02   -1.3005412292e+02
    1.1109780121e+02   -1.2998114014e+02
    1.1119879913e+02   -1.2990689087e+02
    1.1129660034e+02   -1.2983139038e+02
    1.1139739990e+02   -1.2975463867e+02
    1.1149669647e+02   -1.2967662048e+02
    1.1159770203e+02   -1.2959735107e+02
    1.1169850159e+02   -1.2951683044e+02
    1.1179869843e+02   -1.2943504333e+02
    1.1189759827e+02   -1.2935198975e+02
    1.1199659729e+02   -1.2926765442e+02
    1.1209790039e+02   -1.2918205261e+02
    1.1219680023e+02   -1.2909515381e+02
    1.1229799652e+02   -1.2900695801e+02
    1.1239640045e+02   -1.2891746521e+02
    1.1249720001e+02   -1.2882667542e+02
    1.1259770203e+02   -1.2873457336e+02
    1.1269799805e+02   -1.2864120483e+02
    1.1279820251e+02   -1.2854655457e+02
    1.1289830017e+02   -1.2845063782e+02
    1.1299829865e+02   -1.2835346985e+02
    1.1309839630e+02   -1.2825505066e+02
    1.1319640350e+02   -1.2815539551e+02
    1.1329840088e+02   -1.2805451965e+02
    1.1339859772e+02   -1.2795242310e+02
    1.1349819946e+02   -1.2784911346e+02
    1.1359819794e+02   -1.2774459839e+02
    1.1369840240e+02   -1.2763887024e+02
    1.1379840088e+02   -1.2753192139e+02
    1.1389880371e+02   -1.2742375946e+02
    1.1399790192e+02   -1.2731438446e+02
    1.1409729767e+02   -1.2720378876e+02
    1.1419689941e+02   -1.2709195709e+02
    1.1429650116e+02   -1.2697891998e+02
    1.1439869690e+02   -1.2686466217e+02
    1.1449829865e+02   -1.2674918365e+02
    1.1459760284e+02   -1.2663250732e+02
    1.1469670105e+02   -1.2651461029e+02
    1.1479750061e+02   -1.2639550018e+02
    1.1489649963e+02   -1.2627517700e+02
    1.1499669647e+02   -1.2615363312e+02
    1.1509700012e+02   -1.2603086853e+02
    1.1519740295e+02   -1.2590690613e+02
    1.1529789734e+02   -1.2578175354e+02
    1.1539669800e+02   -1.2565543365e+02
    1.1549780273e+02   -1.2552793121e+02
    1.1559660339e+02   -1.2539926147e+02
    1.1569680023e+02   -1.2526945496e+02
    1.1579709625e+02   -1.2513850403e+02
    1.1589730072e+02   -1.2500642395e+02
    1.1599759674e+02   -1.2487322235e+02
    1.1609790039e+02   -1.2473891449e+02
    1.1619819641e+02   -1.2460351562e+02
    1.1629859924e+02   -1.2446703339e+02
    1.1639649963e+02   -1.2432948303e+02
    1.1649690247e+02   -1.2419087219e+02
    1.1659729767e+02   -1.2405118561e+02
    1.1669860077e+02   -1.2391045380e+02
    1.1679830170e+02   -1.2376866913e+02
    1.1689849854e+02   -1.2362583160e+02
    1.1699749756e+02   -1.2348194885e+02
    1.1709829712e+02   -1.2333700562e+02
    1.1719670105e+02   -1.2319102478e+02
    1.1729640198e+02   -1.2304400635e+02
    1.1739849854e+02   -1.2289594269e+02
    1.1749800110e+02   -1.2274683380e+02
    1.1759639740e+02   -1.2259667206e+02
    1.1769830322e+02   -1.2244544220e+02
    1.1779669952e+02   -1.2229315186e+02
    1.1789720154e+02   -1.2213978577e+02
    1.1799829865e+02   -1.2198535919e+02
    1.1809750366e+02   -1.2182987213e+02
    1.1819840240e+02   -1.2167332458e+02
    1.1829669952e+02   -1.2151573944e+02
    1.1839739990e+02   -1.2135711670e+02
    1.1849810028e+02   -1.2119747162e+02
    1.1859629822e+02   -1.2103681183e+02
    1.1869699860e+02   -1.2087513733e+02
    1.1879759979e+02   -1.2071245575e+02
    1.1889830017e+02   -1.2054877472e+02
    1.1899649811e+02   -1.2038410187e+02
    1.1909709930e+02   -1.2021843719e+02
    1.1919819641e+02   -1.2005180359e+02
    1.1929779816e+02   -1.1988421631e+02
    1.1939759827e+02   -1.1971567535e+02
    1.1949680328e+02   -1.1954618835e+02
    1.1959850311e+02   -1.1937575531e+02
    1.1969770050e+02   -1.1920437622e+02
    1.1979750061e+02   -1.1903205872e+02
    1.1989659882e+02   -1.1885880280e+02
    1.1999790192e+02   -1.1868460083e+02
    1.2009719849e+02   -1.1850946808e+02
    1.2019640350e+02   -1.1833341980e+02
    1.2029720306e+02   -1.1815645599e+02
    1.2039839935e+02   -1.1797858429e+02
    1.2049710083e+02   -1.1779982758e+02
    1.2059770203e+02   -1.1762018585e+02
    1.2069869995e+02   -1.1743966675e+02
    1.2079840088e+02   -1.1725829315e+02
    1.2089810181e+02   -1.1707606506e+02
    1.2099770355e+02   -1.1689299011e+02
    1.2109739685e+02   -1.1670908356e+02
    1.2119750214e+02   -1.1652436066e+02
    1.2129740143e+02   -1.1633882141e+02
    1.2139710236e+02   -1.1615249634e+02
    1.2149780273e+02   -1.1596539307e+02
    1.2159860229e+02   -1.1577753448e+02
    1.2169850159e+02   -1.1558892822e+02
    1.2179840088e+02   -1.1539958191e+02
    1.2189720154e+02   -1.1520951080e+02
    1.2199639893e+02   -1.1501871490e+02
    1.2209829712e+02   -1.1482720947e+02
    1.2219719696e+02   -1.1463498688e+02
    1.2229769897e+02   -1.1444207001e+02
    1.2239749908e+02   -1.1424845123e+02
    1.2249739838e+02   -1.1405413818e+02
    1.2259739685e+02   -1.1385914612e+02
    1.2269740295e+02   -1.1366345978e+02
    1.2279850006e+02   -1.1346710205e+02
    1.2289610291e+02   -1.1327007294e+02
    1.2299669647e+02   -1.1307238770e+02
    1.2309649658e+02   -1.1287404633e+02
    1.2319830322e+02   -1.1267507172e+02
    1.2329779816e+02   -1.1247547150e+02
    1.2339769745e+02   -1.1227526855e+02
    1.2349729919e+02   -1.1207446289e+02
    1.2359660339e+02   -1.1187306213e+02
    1.2369740295e+02   -1.1167107391e+02
    1.2379620361e+02   -1.1146852875e+02
    1.2389730072e+02   -1.1126542664e+02
    1.2399839783e+02   -1.1106177521e+02
    1.2409709930e+02   -1.1085758972e+02
    1.2419840240e+02   -1.1065289307e+02
    1.2429730225e+02   -1.1044770050e+02
    1.2439849854e+02   -1.1024202728e+02
    1.2449729919e+02   -1.1003588867e+02
    1.2459850311e+02   -1.0982930756e+02
    1.2469740295e+02   -1.0962227631e+02
    1.2479630280e+02   -1.0941482544e+02
    1.2489800262e+02   -1.0920693970e+02
    1.2499790192e+02   -1.0899864960e+02
    1.2509799957e+02   -1.0878997040e+02
    1.2519809723e+02   -1.0858089447e+02
    1.2529740143e+02   -1.0837145233e+02
    1.2539659882e+02   -1.0816163635e+02
    1.2549829865e+02   -1.0795145416e+02
    1.2559760284e+02   -1.0774091339e+02
    1.2569850159e+02   -1.0753001404e+02
    1.2579650116e+02   -1.0731876373e+02
    1.2589600372e+02   -1.0710717010e+02
    1.2599849701e+02   -1.0689524078e+02
    1.2609670258e+02   -1.0668298340e+02
    1.2619730377e+02   -1.0647039032e+02
    1.2629759979e+02   -1.0625748444e+02
    1.2639830017e+02   -1.0604426575e+02
    1.2649810028e+02   -1.0583074188e+02
    1.2659609985e+02   -1.0561692047e+02
    1.2669629669e+02   -1.0540280151e+02
    1.2679660034e+02   -1.0518839264e+02
    1.2689730072e+02   -1.0497370911e+02
    1.2699759674e+02   -1.0475875092e+02
    1.2709799957e+02   -1.0454354858e+02
    1.2719830322e+02   -1.0432810211e+02
    1.2729609680e+02   -1.0411242676e+02
    1.2739659882e+02   -1.0389653015e+02
    1.2749759674e+02   -1.0368041992e+02
    1.2759680176e+02   -1.0346412659e+02
    1.2769619751e+02   -1.0324765015e+02
    1.2779820251e+02   -1.0303099823e+02
    1.2789759827e+02   -1.0281419373e+02
    1.2799700165e+02   -1.0259724426e+02
    1.2809649658e+02   -1.0238013458e+02
    1.2819590759e+02   -1.0216287994e+02
    1.2829699707e+02   -1.0194548798e+02
    1.2839689636e+02   -1.0172796631e+02
    1.2849609375e+02   -1.0151033783e+02
    1.2859829712e+02   -1.0129261780e+02
    1.2869779968e+02   -1.0107482910e+02
    1.2879710388e+02   -1.0085698700e+02
    1.2889639282e+02   -1.0063912201e+02
    1.2899620056e+02   -1.0042123413e+02
    1.2909680176e+02   -1.0020335388e+02
    1.2919650269e+02   -9.9985488892e+01
    1.2929820251e+02   -9.9767662048e+01
    1.2939739990e+02   -9.9549903870e+01
    1.2949650574e+02   -9.9332221985e+01
    1.2959739685e+02   -9.9114646912e+01
    1.2969850159e+02   -9.8897186279e+01
    1.2979809570e+02   -9.8679855347e+01
    1.2989680481e+02   -9.8462669373e+01
    1.2999620056e+02   -9.8245635986e+01
    1.3009710693e+02   -9.8028762817e+01
    1.3019790649e+02   -9.7812065125e+01
    1.3029769897e+02   -9.7595558167e+01
    1.3039639282e+02   -9.7379264832e+01
    1.3049749756e+02   -9.7163185120e+01
    1.3059710693e+02   -9.6947334290e+01
    1.3069709778e+02   -9.6731735229e+01
    1.3079829407e+02   -9.6516387939e+01
    1.3089790344e+02   -9.6301315308e+01
    1.3099740601e+02   -9.6086517334e+01
    1.3109719849e+02   -9.5872001648e+01
    1.3119670105e+02   -9.5657768250e+01
    1.3129679871e+02   -9.5443817139e+01
    1.3139689636e+02   -9.5230163574e+01
    1.3149690247e+02   -9.5016792297e+01
    1.3159700012e+02   -9.4803726196e+01
    1.3169709778e+02   -9.4590972900e+01
    1.3179719543e+02   -9.4378547668e+01
    1.3189830017e+02   -9.4166465759e+01
    1.3199650574e+02   -9.3954750061e+01
    1.3209809875e+02   -9.3743392944e+01
    1.3219709778e+02   -9.3532424927e+01
    1.3229879761e+02   -9.3321846008e+01
    1.3239790344e+02   -9.3111671448e+01
    1.3249710083e+02   -9.2901901245e+01
    1.3259640503e+02   -9.2692535400e+01
    1.3269859314e+02   -9.2483581543e+01
    1.3279719543e+02   -9.2275039673e+01
    1.3289639282e+02   -9.2066917419e+01
    1.3299749756e+02   -9.1859222412e+01
    1.3309649658e+02   -9.1651969910e+01
    1.3319880676e+02   -9.1445182800e+01
    1.3329789734e+02   -9.1238876343e+01
    1.3339720154e+02   -9.1033050537e+01
    1.3349650574e+02   -9.0827720642e+01
    1.3359809875e+02   -9.0622886658e+01
    1.3369670105e+02   -9.0418563843e+01
    1.3379640198e+02   -9.0214752197e+01
    1.3389770508e+02   -9.0011459351e+01
    1.3399670410e+02   -8.9808692932e+01
    1.3409840393e+02   -8.9606483459e+01
    1.3419740295e+02   -8.9404823303e+01
    1.3429640198e+02   -8.9203742981e+01
    1.3439669800e+02   -8.9003257751e+01
    1.3449740601e+02   -8.8803382874e+01
    1.3459750366e+02   -8.8604133606e+01
    1.3469689941e+02   -8.8405532837e+01
    1.3479890442e+02   -8.8207595825e+01
    1.3489849854e+02   -8.8010337830e+01
    1.3499800110e+02   -8.7813766479e+01
    1.3509779358e+02   -8.7617897034e+01
    1.3519869995e+02   -8.7422744751e+01
    1.3529780579e+02   -8.7228317261e+01
    1.3539680481e+02   -8.7034614563e+01
    1.3549850464e+02   -8.6841651917e+01
    1.3559689331e+02   -8.6649436951e+01
    1.3569749451e+02   -8.6457969666e+01
    1.3579849243e+02   -8.6267265320e+01
    1.3589660645e+02   -8.6077316284e+01
    1.3599740601e+02   -8.5888130188e+01
    1.3609739685e+02   -8.5699729919e+01
    1.3619740295e+02   -8.5512100220e+01
    1.3629719543e+02   -8.5325263977e+01
    1.3639739990e+02   -8.5139221191e+01
    1.3649800110e+02   -8.4953979492e+01
    1.3659840393e+02   -8.4769554138e+01
    1.3669830322e+02   -8.4585952759e+01
    1.3679780579e+02   -8.4403190613e+01
    1.3689700317e+02   -8.4221290588e+01
    1.3699899292e+02   -8.4040245056e+01
    1.3709820557e+02   -8.3860076904e+01
    1.3719749451e+02   -8.3680793762e+01
    1.3729670715e+02   -8.3502410889e+01
    1.3739860535e+02   -8.3324935913e+01
    1.3749789429e+02   -8.3148368835e+01
    1.3759730530e+02   -8.2972709656e+01
    1.3769679260e+02   -8.2797958374e+01
    1.3779899597e+02   -8.2624122620e+01
    1.3789880371e+02   -8.2451210022e+01
    1.3799769592e+02   -8.2279220581e+01
    1.3809880066e+02   -8.2108161926e+01
    1.3819880676e+02   -8.1938064575e+01
    1.3829849243e+02   -8.1768920898e+01
    1.3839830017e+02   -8.1600753784e+01
    1.3849809265e+02   -8.1433563232e+01
    1.3859790039e+02   -8.1267341614e+01
    1.3869769287e+02   -8.1102104187e+01
    1.3879760742e+02   -8.0937843323e+01
    1.3889739990e+02   -8.0774566650e+01
    1.3899710083e+02   -8.0612258911e+01
    1.3909689331e+02   -8.0450927734e+01
    1.3919659424e+02   -8.0290580750e+01
    1.3929910278e+02   -8.0131233215e+01
    1.3939739990e+02   -7.9972869873e+01
    1.3949809265e+02   -7.9815498352e+01
    1.3959730530e+02   -7.9659141541e+01
    1.3969650269e+02   -7.9503791809e+01
    1.3979719543e+02   -7.9349456787e+01
    1.3989689636e+02   -7.9196136475e+01
    1.3999870300e+02   -7.9043846130e+01
    1.4009790039e+02   -7.8892585754e+01
    1.4019700623e+02   -7.8742370605e+01
    1.4029879761e+02   -7.8593185425e+01
    1.4039779663e+02   -7.8445030212e+01
    1.4049690247e+02   -7.8297904968e+01
    1.4059869385e+02   -7.8151802063e+01
    1.4069779968e+02   -7.8006713867e+01
    1.4079690552e+02   -7.7862655640e+01
    1.4089869690e+02   -7.7719627380e+01
    1.4099780273e+02   -7.7577629089e+01
    1.4109700012e+02   -7.7436676025e+01
    1.4119889832e+02   -7.7296760559e+01
    1.4129809570e+02   -7.7157890320e+01
    1.4139739990e+02   -7.7020072937e+01
    1.4149929810e+02   -7.6883300781e+01
    1.4159869385e+02   -7.6747596741e+01
    1.4169799805e+02   -7.6612953186e+01
    1.4179739380e+02   -7.6479370117e+01
    1.4189689636e+02   -7.6346862793e+01
    1.4199899292e+02   -7.6215415955e+01
    1.4209849548e+02   -7.6085037231e+01
    1.4219810486e+02   -7.5955718994e+01
    1.4229769897e+02   -7.5827445984e+01
    1.4239720154e+02   -7.5700218201e+01
    1.4249690247e+02   -7.5574028015e+01
    1.4259919739e+02   -7.5448875427e+01
    1.4269880676e+02   -7.5324775696e+01
    1.4279849243e+02   -7.5201721191e+01
    1.4289810181e+02   -7.5079719543e+01
    1.4299780273e+02   -7.4958778381e+01
    1.4309739685e+02   -7.4838890076e+01
    1.4319700623e+02   -7.4720069885e+01
    1.4329919434e+02   -7.4602302551e+01
    1.4339880371e+02   -7.4485603333e+01
    1.4349830627e+02   -7.4369956970e+01
    1.4359790039e+02   -7.4255371094e+01
    1.4369740295e+02   -7.4141838074e+01
    1.4379699707e+02   -7.4029365540e+01
    1.4389869690e+02   -7.3917938232e+01
    1.4399809265e+02   -7.3807540894e+01
    1.4409770203e+02   -7.3698188782e+01
    1.4419740295e+02   -7.3589866638e+01
    1.4429780579e+02   -7.3482559204e+01
    1.4439739990e+02   -7.3376258850e+01
    1.4449699402e+02   -7.3270965576e+01
    1.4459939575e+02   -7.3166671753e+01
    1.4469909668e+02   -7.3063369751e+01
    1.4479890442e+02   -7.2961067200e+01
    1.4489869690e+02   -7.2859748840e+01
    1.4499859619e+02   -7.2759422302e+01
    1.4509849548e+02   -7.2660057068e+01
    1.4519850159e+02   -7.2561660767e+01
    1.4529859924e+02   -7.2464218140e+01
    1.4539880371e+02   -7.2367729187e+01
    1.4549909973e+02   -7.2272178650e+01
    1.4559939575e+02   -7.2177574158e+01
    1.4569720459e+02   -7.2083908081e+01
    1.4579780579e+02   -7.1991165161e+01
    1.4589849854e+02   -7.1899345398e+01
    1.4599940491e+02   -7.1808418274e+01
    1.4609759521e+02   -7.1718383789e+01
    1.4619880676e+02   -7.1629211426e+01
    1.4629730225e+02   -7.1540893555e+01
    1.4639880371e+02   -7.1453422546e+01
    1.4649760437e+02   -7.1366790771e+01
    1.4659930420e+02   -7.1280990601e+01
    1.4669839478e+02   -7.1196022034e+01
    1.4679760742e+02   -7.1111877441e+01
    1.4689970398e+02   -7.1028549194e+01
    1.4699909973e+02   -7.0946037292e+01
    1.4709860229e+02   -7.0864326477e+01
    1.4719819641e+02   -7.0783416748e+01
    1.4729780579e+02   -7.0703292847e+01
    1.4739759827e+02   -7.0623939514e+01
    1.4749749756e+02   -7.0545333862e+01
    1.4759739685e+02   -7.0467468262e+01
    1.4769749451e+02   -7.0390312195e+01
    1.4779769897e+02   -7.0313865662e+01
    1.4789790344e+02   -7.0238105774e+01
    1.4799830627e+02   -7.0163032532e+01
    1.4809869385e+02   -7.0088630676e+01
    1.4819920349e+02   -7.0014884949e+01
    1.4829710388e+02   -6.9941810608e+01
    1.4839779663e+02   -6.9869384766e+01
    1.4849870300e+02   -6.9797615051e+01
    1.4859970093e+02   -6.9726478577e+01
    1.4869799805e+02   -6.9655975342e+01
    1.4879919434e+02   -6.9586090088e+01
    1.4889779663e+02   -6.9516792297e+01
    1.4899929810e+02   -6.9448081970e+01
    1.4909809875e+02   -6.9379936218e+01
    1.4919990540e+02   -6.9312339783e+01
    1.4929899597e+02   -6.9245277405e+01
    1.4939819336e+02   -6.9178718567e+01
    1.4949760437e+02   -6.9112670898e+01
    1.4959719849e+02   -6.9047088623e+01
    1.4969979858e+02   -6.8981979370e+01
    1.4979960632e+02   -6.8917312622e+01
    1.4989970398e+02   -6.8853080750e+01
    1.4999710083e+02   -6.8789253235e+01
    1.5009750366e+02   -6.8725822449e+01
    1.5019819641e+02   -6.8662773132e+01
    1.5029879761e+02   -6.8600105286e+01
    1.5039930725e+02   -6.8537796021e+01
    1.5049980164e+02   -6.8475830078e+01
    1.5059730530e+02   -6.8414199829e+01
    1.5069760132e+02   -6.8352890015e+01
    1.5079789734e+02   -6.8291885376e+01
    1.5089819336e+02   -6.8231170654e+01
    1.5099890137e+02   -6.8170722961e+01
    1.5109899902e+02   -6.8110542297e+01
    1.5119909668e+02   -6.8050598145e+01
    1.5129910278e+02   -6.7990867615e+01
    1.5139900208e+02   -6.7931343079e+01
    1.5149890137e+02   -6.7871994019e+01
    1.5159880066e+02   -6.7812797546e+01
    1.5169850159e+02   -6.7753738403e+01
    1.5179820251e+02   -6.7694808960e+01
    1.5189790344e+02   -6.7635978699e+01
    1.5199740601e+02   -6.7577239990e+01
    1.5209979248e+02   -6.7518585205e+01
    1.5219920349e+02   -6.7460006714e+01
    1.5229849243e+02   -6.7401473999e+01
    1.5239779663e+02   -6.7342987061e+01
    1.5249980164e+02   -6.7284538269e+01
    1.5259890747e+02   -6.7226112366e+01
    1.5269799805e+02   -6.7167694092e+01
    1.5279969788e+02   -6.7109268188e+01
    1.5289860535e+02   -6.7050819397e+01
    1.5299740601e+02   -6.6992324829e+01
    1.5309899902e+02   -6.6933784485e+01
    1.5319769287e+02   -6.6875175476e+01
    1.5329910278e+02   -6.6816490173e+01
    1.5339770508e+02   -6.6757713318e+01
    1.5349899292e+02   -6.6698837280e+01
    1.5359739685e+02   -6.6639839172e+01
    1.5369859314e+02   -6.6580726624e+01
    1.5379980469e+02   -6.6521469116e+01
    1.5389799500e+02   -6.6462066650e+01
    1.5399909973e+02   -6.6402496338e+01
    1.5410000610e+02   -6.6342750549e+01
    1.5419810486e+02   -6.6282814026e+01
    1.5429899597e+02   -6.6222663879e+01
    1.5439979553e+02   -6.6162307739e+01
    1.5449769592e+02   -6.6101715088e+01
    1.5459840393e+02   -6.6040893555e+01
    1.5469909668e+02   -6.5979812622e+01
    1.5479960632e+02   -6.5918464661e+01
    1.5490010071e+02   -6.5856842041e+01
    1.5499780273e+02   -6.5794929504e+01
    1.5509820557e+02   -6.5732711792e+01
    1.5519839478e+02   -6.5670196533e+01
    1.5529820251e+02   -6.5607353210e+01
    1.5539830017e+02   -6.5544181824e+01
    1.5549760437e+02   -6.5480659485e+01
    1.5560000610e+02   -6.5416778564e+01
    1.5569949341e+02   -6.5352516174e+01
    1.5579859924e+02   -6.5287849426e+01
    1.5589759827e+02   -6.5222770691e+01
    1.5599819946e+02   -6.5157249451e+01
    1.5609770203e+02   -6.5091285706e+01
    1.5619990540e+02   -6.5024856567e+01
    1.5629919434e+02   -6.4957946777e+01
    1.5639849854e+02   -6.4890548706e+01
    1.5649769592e+02   -6.4822639465e+01
    1.5659959412e+02   -6.4754219055e+01
    1.5669869995e+02   -6.4685264587e+01
    1.5679780579e+02   -6.4615776062e+01
    1.5689950562e+02   -6.4545730591e+01
    1.5699839783e+02   -6.4475128174e+01
    1.5710000610e+02   -6.4403945923e+01
    1.5719869995e+02   -6.4332183838e+01
    1.5730020142e+02   -6.4259834290e+01
    1.5739889526e+02   -6.4186889648e+01
    1.5750030518e+02   -6.4113327026e+01
    1.5759880066e+02   -6.4039161682e+01
    1.5770010376e+02   -6.3964355469e+01
    1.5779859924e+02   -6.3888919830e+01
    1.5789990234e+02   -6.3812835693e+01
    1.5799830627e+02   -6.3736083984e+01
    1.5809939575e+02   -6.3658668518e+01
    1.5819779968e+02   -6.3580570221e+01
    1.5829879761e+02   -6.3501792908e+01
    1.5839990234e+02   -6.3422325134e+01
    1.5849809265e+02   -6.3342159271e+01
    1.5859899902e+02   -6.3261283875e+01
    1.5869990540e+02   -6.3179687500e+01
    1.5879789734e+02   -6.3097362518e+01
    1.5889869690e+02   -6.3014301300e+01
    1.5899929810e+02   -6.2930484772e+01
    1.5909989929e+02   -6.2845912933e+01
    1.5920039368e+02   -6.2760566711e+01
    1.5929820251e+02   -6.2674434662e+01
    1.5939849854e+02   -6.2587512970e+01
    1.5949890137e+02   -6.2499790192e+01
    1.5959910583e+02   -6.2411266327e+01
    1.5969929504e+02   -6.2321937561e+01
    1.5979939270e+02   -6.2231792450e+01
    1.5989939880e+02   -6.2140830994e+01
    1.5999940491e+02   -6.2049041748e+01
    1.6009930420e+02   -6.1956417084e+01
    1.6019920349e+02   -6.1862953186e+01
    1.6029899597e+02   -6.1768642426e+01
    1.6039880371e+02   -6.1673477173e+01
    1.6049850464e+02   -6.1577449799e+01
    1.6059820557e+02   -6.1480556488e+01
    1.6070050049e+02   -6.1382785797e+01
    1.6080009460e+02   -6.1284137726e+01
    1.6089959717e+02   -6.1184597015e+01
    1.6099899292e+02   -6.1084171295e+01
    1.6109840393e+02   -6.0982849121e+01
    1.6120039368e+02   -6.0880630493e+01
    1.6129969788e+02   -6.0777511597e+01
    1.6139889526e+02   -6.0673488617e+01
    1.6149809265e+02   -6.0568565369e+01
    1.6159989929e+02   -6.0462730408e+01
    1.6169900513e+02   -6.0355995178e+01
    1.6179800415e+02   -6.0248359680e+01
    1.6189970398e+02   -6.0139820099e+01
    1.6199870300e+02   -6.0030387878e+01
    1.6210029602e+02   -5.9920063019e+01
    1.6219920349e+02   -5.9808853149e+01
    1.6229800415e+02   -5.9696754456e+01
    1.6239959717e+02   -5.9583759308e+01
    1.6249839783e+02   -5.9469871521e+01
    1.6259979248e+02   -5.9355079651e+01
    1.6269859314e+02   -5.9239376068e+01
    1.6279989624e+02   -5.9122760773e+01
    1.6289860535e+02   -5.9005222321e+01
    1.6299980164e+02   -5.8886745453e+01
    1.6309840393e+02   -5.8767330170e+01
    1.6319949341e+02   -5.8646968842e+01
    1.6330059814e+02   -5.8525665283e+01
    1.6339880371e+02   -5.8403415680e+01
    1.6350050354e+02   -5.8280227661e+01
    1.6359869385e+02   -5.8156101227e+01
    1.6369960022e+02   -5.8031044006e+01
    1.6380039978e+02   -5.7905067444e+01
    1.6389920044e+02   -5.7778163910e+01
    1.6400059509e+02   -5.7650325775e+01
    1.6409899902e+02   -5.7521545410e+01
    1.6420030212e+02   -5.7391811371e+01
    1.6429870605e+02   -5.7261104584e+01
    1.6439990234e+02   -5.7129428864e+01
    1.6449830627e+02   -5.6996768951e+01
    1.6459939575e+02   -5.6863128662e+01
    1.6470050049e+02   -5.6728496552e+01
    1.6479879761e+02   -5.6592868805e+01
    1.6489979553e+02   -5.6456241608e+01
    1.6500079346e+02   -5.6318614960e+01
    1.6509899902e+02   -5.6179985046e+01
    1.6519889832e+02   -5.6040344238e+01
    1.6529989624e+02   -5.5899684906e+01
    1.6540069580e+02   -5.5758010864e+01
    1.6549879456e+02   -5.5615310669e+01
    1.6559959412e+02   -5.5471580505e+01
    1.6570030212e+02   -5.5326820374e+01
    1.6579829407e+02   -5.5181022644e+01
    1.6589959717e+02   -5.5034179688e+01
    1.6599969482e+02   -5.4886291504e+01
    1.6609970093e+02   -5.4737358093e+01
    1.6619960022e+02   -5.4587371826e+01
    1.6629960632e+02   -5.4436332703e+01
    1.6639950562e+02   -5.4284240723e+01
    1.6649940491e+02   -5.4131092072e+01
    1.6659930420e+02   -5.3976882935e+01
    1.6669920349e+02   -5.3821617126e+01
    1.6679899597e+02   -5.3665290833e+01
    1.6689880371e+02   -5.3507904053e+01
    1.6699870300e+02   -5.3349460602e+01
    1.6709849548e+02   -5.3189975739e+01
    1.6720089722e+02   -5.3029449463e+01
    1.6730070496e+02   -5.2867893219e+01
    1.6740049744e+02   -5.2705322266e+01
    1.6750030518e+02   -5.2541736603e+01
    1.6760009766e+02   -5.2377143860e+01
    1.6769979858e+02   -5.2211547852e+01
    1.6779960632e+02   -5.2044948578e+01
    1.6789930725e+02   -5.1877342224e+01
    1.6799899292e+02   -5.1708728790e+01
    1.6809880066e+02   -5.1539104462e+01
    1.6819839478e+02   -5.1368469238e+01
    1.6830070496e+02   -5.1196834564e+01
    1.6839869690e+02   -5.1024192810e+01
    1.6849899292e+02   -5.0850547791e+01
    1.6859919739e+02   -5.0675907135e+01
    1.6869940186e+02   -5.0500274658e+01
    1.6879879761e+02   -5.0323661804e+01
    1.6890100098e+02   -5.0146068573e+01
    1.6900050354e+02   -4.9967506409e+01
    1.6910000610e+02   -4.9787982941e+01
    1.6919949341e+02   -4.9607498169e+01
    1.6929890442e+02   -4.9426055908e+01
    1.6940080261e+02   -4.9243656158e+01
    1.6949870300e+02   -4.9060302734e+01
    1.6959849548e+02   -4.8875999451e+01
    1.6970109558e+02   -4.8690750122e+01
    1.6980079651e+02   -4.8504562378e+01
    1.6990049744e+02   -4.8317447662e+01
    1.7000019836e+02   -4.8129405975e+01
    1.7009979248e+02   -4.7940441132e+01
    1.7020089722e+02   -4.7750553131e+01
    1.7029989624e+02   -4.7559745789e+01
    1.7039880371e+02   -4.7368011475e+01
    1.7050039673e+02   -4.7175357819e+01
    1.7059930420e+02   -4.6981781006e+01
    1.7070089722e+02   -4.6787284851e+01
    1.7079980469e+02   -4.6591873169e+01
    1.7089869690e+02   -4.6395545959e+01
    1.7100019836e+02   -4.6198307037e+01
    1.7109919739e+02   -4.6000156403e+01
    1.7120080566e+02   -4.5801105499e+01
    1.7129969788e+02   -4.5601150513e+01
    1.7139869690e+02   -4.5400302887e+01
    1.7150030518e+02   -4.5198566437e+01
    1.7159880066e+02   -4.4995948792e+01
    1.7170120239e+02   -4.4792461395e+01
    1.7180079651e+02   -4.4588108063e+01
    1.7190040588e+02   -4.4382900238e+01
    1.7200000000e+02   -4.4176841736e+01
    1.7209959412e+02   -4.3969928741e+01
    1.7219880676e+02   -4.3762165070e+01
    1.7230050659e+02   -4.3553550720e+01
    1.7239950562e+02   -4.3344085693e+01
    1.7250120544e+02   -4.3133781433e+01
    1.7260020447e+02   -4.2922634125e+01
    1.7269979858e+02   -4.2710647583e+01
    1.7279910278e+02   -4.2497821808e+01
    1.7289869690e+02   -4.2284152985e+01
    1.7299969482e+02   -4.2069648743e+01
    1.7310130310e+02   -4.1854312897e+01
    1.7320100403e+02   -4.1638153076e+01
    1.7330059814e+02   -4.1421176910e+01
    1.7340029907e+02   -4.1203376770e+01
    1.7349989319e+02   -4.0984756470e+01
    1.7359950256e+02   -4.0765304565e+01
    1.7369909668e+02   -4.0545028687e+01
    1.7380140686e+02   -4.0323928833e+01
    1.7390089417e+02   -4.0102012634e+01
    1.7400039673e+02   -3.9879272461e+01
    1.7409989929e+02   -3.9655712128e+01
    1.7419940186e+02   -3.9431331635e+01
    1.7429879761e+02   -3.9206134796e+01
    1.7440100098e+02   -3.8980129242e+01
    1.7450050354e+02   -3.8753322601e+01
    1.7459989929e+02   -3.8525722504e+01
    1.7469929504e+02   -3.8297344208e+01
    1.7479879761e+02   -3.8068206787e+01
    1.7490100098e+02   -3.7838321686e+01
    1.7500050354e+02   -3.7607715607e+01
    1.7509989929e+02   -3.7376415253e+01
    1.7519940186e+02   -3.7144439697e+01
    1.7529879761e+02   -3.6911811829e+01
    1.7539900208e+02   -3.6678558350e+01
    1.7550050354e+02   -3.6444705963e+01
    1.7559930420e+02   -3.6210277557e+01
    1.7570080566e+02   -3.5975292206e+01
    1.7579969788e+02   -3.5739772797e+01
    1.7590109253e+02   -3.5503715515e+01
    1.7600000000e+02   -3.5267105103e+01
    1.7610150146e+02   -3.5029914856e+01
    1.7620030212e+02   -3.4792098999e+01
    1.7629919434e+02   -3.4553573608e+01
    1.7640060425e+02   -3.4314243317e+01
    1.7649949646e+02   -3.4073986053e+01
    1.7660099792e+02   -3.3832653046e+01
    1.7669979858e+02   -3.3590072632e+01
    1.7680130005e+02   -3.3346046448e+01
    1.7690020752e+02   -3.3100357056e+01
    1.7699909973e+02   -3.2852779388e+01
    1.7710060120e+02   -3.2603069305e+01
    1.7719960022e+02   -3.2351001740e+01
    1.7730110168e+02   -3.2096363068e+01
    1.7740010071e+02   -3.1838979721e+01
    1.7749909973e+02   -3.1578737259e+01
    1.7760069275e+02   -3.1315599442e+01
    1.7769970703e+02   -3.1049644470e+01
    1.7780130005e+02   -3.0781082153e+01
    1.7790049744e+02   -3.0510292053e+01
    1.7800010681e+02   -3.0237850189e+01
    1.7809979248e+02   -2.9964563370e+01
    1.7819960022e+02   -2.9691486359e+01
    1.7829930115e+02   -2.9419967651e+01
    1.7839909363e+02   -2.9151645660e+01
    1.7850079346e+02   -2.8888456345e+01
    1.7859970093e+02   -2.8632633209e+01
    1.7869960022e+02   -2.8386665344e+01
    1.7879899597e+02   -2.8153245926e+01
    1.7889900208e+02   -2.7935207367e+01
    1.7899909973e+02   -2.7735397339e+01
    1.7909919739e+02   -2.7556556702e+01
    1.7919929504e+02   -2.7401121140e+01
    1.7929949951e+02   -2.7271020889e+01
    1.7939970398e+02   -2.7167421341e+01
    1.7949989319e+02   -2.7090423584e+01
    1.7960020447e+02   -2.7038745880e+01
    1.7970039368e+02   -2.7009370804e+01
    1.7980070496e+02   -2.6997184753e+01
    1.7990089417e+02   -2.6994607925e+01
endcurve
