Curveplot
LS-DYNA keyword deck by LS-PrePost
Yrot-displ
phi moment-stiffness
Joint Stiff
300001 #pts=1000
* Minval= -1.763326953125e+004 at time=       0.456987559795
* Maxval=  2.076880859375e+004 at time=       1.633362770081
 2.372462670763e-009  2.332272753119e-002
 2.634418017067e-009 -1.815493591130e-002
 2.553364852886e-009 -8.093413710594e-002
 1.953700978774e-009 -1.652811169624e-001
 6.380597161737e-010 -2.698767185211e-001
-1.575581998203e-009 -3.876477777958e-001
-4.940121645092e-009 -5.053428411484e-001
-9.345169971198e-009 -5.936845541000e-001
-1.462535870189e-008 -6.160103678703e-001
-2.043305258326e-008 -5.235487818718e-001
-2.589826664234e-008 -2.691867053509e-001
-2.984674196682e-008  2.107217907906e-001
-3.061884257249e-008  9.453269243240e-001
-2.632634910071e-008  1.931169629097e+000
-1.464179621991e-008  3.181328535080e+000
 6.342141922744e-009  4.603284358978e+000
 3.949460136710e-008  6.077597618103e+000
 8.430860987119e-008  7.315478801727e+000
 1.392228625718e-007  7.974327564240e+000
 1.992153926267e-007  7.624374866486e+000
 2.567368255768e-007  5.789164066315e+000
 2.971746368985e-007  1.966662168503e+000
 3.055393449358e-007 -4.313762664795e+000
 2.627467381444e-007 -1.335490608215e+001
 1.501558415384e-007 -2.549836730957e+001
-4.433323397279e-008 -4.080177307129e+001
-3.432460005115e-007 -6.033626556396e+001
-7.397669037346e-007 -8.412212371826e+001
-1.217818976329e-006 -1.125024414063e+002
-1.737435013638e-006 -1.454145355225e+002
-2.255693516418e-006 -1.839517974854e+002
-2.678646524146e-006 -2.287435760498e+002
-2.887128630391e-006 -2.800189208984e+002
-2.734831014095e-006 -3.382343139648e+002
-2.041329025815e-006 -4.039118347168e+002
-6.250461410673e-007 -4.763124389648e+002
 1.878372358988e-006 -5.585888671875e+002
 5.726215022150e-006 -6.497614746094e+002
 1.123924812418e-005 -7.499595947266e+002
 1.878337207017e-005 -8.592987670898e+002
 2.875781137845e-005 -9.777564086914e+002
 4.170798638370e-005 -1.105252807617e+003
 5.787749978481e-005 -1.239934570313e+003
 7.811000250513e-005 -1.384675292969e+003
 1.027396574500e-004 -1.537230224609e+003
 1.323179312749e-004 -1.696958984375e+003
 1.676134415902e-004 -1.862884277344e+003
 2.091561764246e-004 -2.033921875000e+003
 2.575165126473e-004 -2.209027099609e+003
 3.133578284178e-004 -2.387147949219e+003
 3.773671924137e-004 -2.567350585938e+003
 4.508959536906e-004 -2.749302246094e+003
 5.343974335119e-004 -2.931924316406e+003
 6.284269038588e-004 -3.114384033203e+003
 7.337328279391e-004 -3.296064208984e+003
 8.491397020407e-004 -3.473708496094e+003
 9.795262012631e-004 -3.652156738281e+003
 1.123739522882e-003 -3.828553222656e+003
 1.282237819396e-003 -4.002697021484e+003
 1.455712132156e-003 -4.174175292969e+003
 1.644838135689e-003 -4.342479980469e+003
 1.850516535342e-003 -4.506793945313e+003
 2.073208801448e-003 -4.666764648438e+003
 2.313348697498e-003 -4.822176269531e+003
 2.570288488641e-003 -4.972257324219e+003
 2.847659867257e-003 -5.118337402344e+003
 3.144204150885e-003 -5.258633789063e+003
 3.460206324235e-003 -5.393579101563e+003
 3.796012606472e-003 -5.523574218750e+003
 4.152035806328e-003 -5.649130859375e+003
 4.528655670583e-003 -5.770893066406e+003
 4.928200971335e-003 -5.889561523438e+003
 5.350125022233e-003 -6.005836425781e+003
 5.794099997729e-003 -6.120245117188e+003
 6.262670736760e-003 -6.234022460938e+003
 6.750557571650e-003 -6.346682617188e+003
 7.263662759215e-003 -6.460199707031e+003
 7.801741361618e-003 -6.575505859375e+003
 8.364018984139e-003 -6.693033203125e+003
 8.950890041888e-003 -6.813424316406e+003
 9.562683291733e-003 -6.937272949219e+003
 1.019951794297e-002 -7.064907714844e+003
 1.086169853806e-002 -7.196991210938e+003
 1.154985371977e-002 -7.334004882813e+003
 1.226442027837e-002 -7.476247558594e+003
 1.300587505102e-002 -7.623833496094e+003
 1.377746462822e-002 -7.777177734375e+003
 1.457882579416e-002 -7.935992187500e+003
 1.540905609727e-002 -8.099939941406e+003
 1.626875624061e-002 -8.269012695313e+003
 1.715863682330e-002 -8.443110351563e+003
 1.807880401611e-002 -8.621775390625e+003
 1.903002709150e-002 -8.804550781250e+003
 2.001347579062e-002 -8.991109375000e+003
 2.102996222675e-002 -9.181050781250e+003
 2.208027988672e-002 -9.373726562500e+003
 2.316869795322e-002 -9.569042968750e+003
 2.429516054690e-002 -9.765966796875e+003
 2.545838057995e-002 -9.963094726563e+003
 2.665920183063e-002 -1.015960742188e+004
 2.789841778576e-002 -1.035470214844e+004
 2.917600423098e-002 -1.054740820313e+004
 3.047762252390e-002 -1.073508886719e+004
 3.183853253722e-002 -1.092242480469e+004
 3.324091061950e-002 -1.110609375000e+004
 3.468563035131e-002 -1.128588183594e+004
 3.617249801755e-002 -1.146088769531e+004
 3.768475726247e-002 -1.162905175781e+004
 3.926339745522e-002 -1.179491113281e+004
 4.088773205876e-002 -1.195550781250e+004
 4.255848377943e-002 -1.211043945313e+004
 4.425030574203e-002 -1.225643261719e+004
 4.601817950606e-002 -1.239791113281e+004
 4.783446341753e-002 -1.253227636719e+004
 4.967873916030e-002 -1.265836523438e+004
 5.158328637481e-002 -1.277858398438e+004
 5.354502797127e-002 -1.289265332031e+004
 5.553165823221e-002 -1.299911718750e+004
 5.759716778994e-002 -1.310172265625e+004
 5.971356108785e-002 -1.319961230469e+004
 6.185024231672e-002 -1.329227734375e+004
 6.406687200069e-002 -1.338302050781e+004
 6.633093953133e-002 -1.347125195313e+004
 6.863118708134e-002 -1.355728613281e+004
 7.101057469845e-002 -1.364316796875e+004
 7.340458035469e-002 -1.372701660156e+004
 7.588851451874e-002 -1.381196679688e+004
 7.839437574148e-002 -1.389620703125e+004
 8.099120110273e-002 -1.398258398438e+004
 8.360093832016e-002 -1.406875390625e+004
 8.630754053593e-002 -1.415768359375e+004
 8.902706205845e-002 -1.424685058594e+004
 9.180300682783e-002 -1.433774511719e+004
 9.467883408070e-002 -1.443192773438e+004
 9.756464511156e-002 -1.452645117188e+004
 1.005105972290e-001 -1.462291601563e+004
 1.035510301590e-001 -1.472240136719e+004
 1.066072061658e-001 -1.482222070313e+004
 1.097196042538e-001 -1.492384570313e+004
 1.129396855831e-001 -1.502915625000e+004
 1.161671578884e-001 -1.513507031250e+004
 1.194539219141e-001 -1.524337792969e+004
 1.228016242385e-001 -1.535403613281e+004
 1.262373924255e-001 -1.546761328125e+004
 1.297310888767e-001 -1.558269824219e+004
 1.332600563765e-001 -1.569805957031e+004
 1.368521004915e-001 -1.581379296875e+004
 1.405085325241e-001 -1.592902539063e+004
 1.442272961140e-001 -1.604280273438e+004
 1.480081528425e-001 -1.615414062500e+004
 1.518515199423e-001 -1.626225195313e+004
 1.557588428259e-001 -1.636650195313e+004
 1.597314774990e-001 -1.646645117188e+004
 1.637677550316e-001 -1.656204882813e+004
 1.678681373596e-001 -1.665316406250e+004
 1.720333844423e-001 -1.673970117188e+004
 1.762656420469e-001 -1.682140429688e+004
 1.805675476789e-001 -1.689806250000e+004
 1.849367469549e-001 -1.696982031250e+004
 1.893492788076e-001 -1.703634960938e+004
 1.938067078590e-001 -1.709773632813e+004
 1.983798146248e-001 -1.715469140625e+004
 2.030241191387e-001 -1.720627734375e+004
 2.077377587557e-001 -1.725261328125e+004
 2.124450504780e-001 -1.729313476563e+004
 2.172969877720e-001 -1.732927929688e+004
 2.222201228142e-001 -1.736051757813e+004
 2.271373122931e-001 -1.738658984375e+004
 2.322027087212e-001 -1.740880859375e+004
 2.372565865517e-001 -1.742668554688e+004
 2.424483150244e-001 -1.744103125000e+004
 2.476520091295e-001 -1.745175585938e+004
 2.529984414577e-001 -1.745947070313e+004
 2.583290934563e-001 -1.746454101563e+004
 2.637825310230e-001 -1.746757617188e+004
 2.692665457726e-001 -1.746894531250e+004
 2.748149037361e-001 -1.746908203125e+004
 2.804423272610e-001 -1.746842773438e+004
 2.861333191395e-001 -1.746746289063e+004
 2.919244468212e-001 -1.746654687500e+004
 2.977336347103e-001 -1.746596875000e+004
 3.036167919636e-001 -1.746589843750e+004
 3.095863759518e-001 -1.746643554688e+004
 3.156251609325e-001 -1.746758398438e+004
 3.217328786850e-001 -1.746936718750e+004
 3.278272747993e-001 -1.747179492188e+004
 3.340559899807e-001 -1.747500976563e+004
 3.403691053391e-001 -1.747912109375e+004
 3.467056453228e-001 -1.748416601563e+004
 3.531318008900e-001 -1.749032617188e+004
 3.596067130566e-001 -1.749771484375e+004
 3.661825954914e-001 -1.750653320313e+004
 3.727312386036e-001 -1.751669726563e+004
 3.794193565845e-001 -1.752829687500e+004
 3.861739337444e-001 -1.754100781250e+004
 3.929202258587e-001 -1.755436132813e+004
 3.998333215714e-001 -1.756828710938e+004
 4.067554473877e-001 -1.758195703125e+004
 4.137504696846e-001 -1.759498242188e+004
 4.207722544670e-001 -1.760676367188e+004
 4.278564453125e-001 -1.761688867188e+004
 4.350959658623e-001 -1.762498828125e+004
 4.422825276852e-001 -1.763038085938e+004
 4.495947957039e-001 -1.763318164063e+004
 4.569875597954e-001 -1.763326953125e+004
 4.643551409245e-001 -1.763074414063e+004
 4.718603193760e-001 -1.762565429688e+004
 4.794781804085e-001 -1.761806640625e+004
 4.870488643646e-001 -1.760847656250e+004
 4.947574734688e-001 -1.759685156250e+004
 5.024031996727e-001 -1.758363085938e+004
 5.102537274361e-001 -1.756837695313e+004
 5.180722475052e-001 -1.755140234375e+004
 5.259821414948e-001 -1.753244335938e+004
 5.339714288712e-001 -1.751130859375e+004
 5.420179367065e-001 -1.748787500000e+004
 5.500339865685e-001 -1.746224804688e+004
 5.582765936852e-001 -1.743334375000e+004
 5.664891004562e-001 -1.740208593750e+004
 5.747612714767e-001 -1.736821484375e+004
 5.830670595169e-001 -1.733200585938e+004
 5.913364291191e-001 -1.729397265625e+004
 5.997895002365e-001 -1.725329882813e+004
 6.082922220230e-001 -1.721093750000e+004
 6.168566346169e-001 -1.716707617188e+004
 6.254757046700e-001 -1.712198632813e+004
 6.341474056244e-001 -1.707586328125e+004
 6.427442431450e-001 -1.702966015625e+004
 6.515277624130e-001 -1.698221679688e+004
 6.603583693504e-001 -1.693441796875e+004
 6.692079305649e-001 -1.688657617188e+004
 6.780290007591e-001 -1.683902734375e+004
 6.870281100273e-001 -1.679074414063e+004
 6.959952712059e-001 -1.674291015625e+004
 7.050407528877e-001 -1.669503906250e+004
 7.141621708870e-001 -1.664721289063e+004
 7.232494950294e-001 -1.660011523438e+004
 7.323850393295e-001 -1.655351367188e+004
 7.416491508484e-001 -1.650713867188e+004
 7.509281635284e-001 -1.646184960938e+004
 7.602198123932e-001 -1.641796484375e+004
 7.695869803429e-001 -1.637548046875e+004
 7.789119482040e-001 -1.633535351563e+004
 7.884089946747e-001 -1.629678515625e+004
 7.978041768074e-001 -1.626091894531e+004
 8.073769211769e-001 -1.622667578125e+004
 8.169298171997e-001 -1.619459667969e+004
 8.265237212181e-001 -1.616423046875e+004
 8.360397219658e-001 -1.613537304688e+004
 8.458017110825e-001 -1.610655468750e+004
 8.554016947746e-001 -1.607847558594e+004
 8.651043176651e-001 -1.604988769531e+004
 8.749612569809e-001 -1.602020019531e+004
 8.847611546516e-001 -1.598976562500e+004
 8.945699930191e-001 -1.595815917969e+004
 9.044644236565e-001 -1.592499121094e+004
 9.143169522285e-001 -1.589056445313e+004
 9.242013096809e-001 -1.585457617188e+004
 9.341834187508e-001 -1.581683300781e+004
 9.441395998001e-001 -1.577787207031e+004
 9.542615413666e-001 -1.573691894531e+004
 9.643229842186e-001 -1.569478222656e+004
 9.743188023567e-001 -1.565111621094e+004
 9.843795299530e-001 -1.560503808594e+004
 9.945819973946e-001 -1.555560742188e+004
 1.004692077637e+000 -1.550329589844e+004
 1.014925956726e+000 -1.544628320313e+004
 1.025076627731e+000 -1.538473339844e+004
 1.035317540169e+000 -1.531705468750e+004
 1.045500993729e+000 -1.524370605469e+004
 1.055809736252e+000 -1.516295996094e+004
 1.066003561020e+000 -1.507651171875e+004
 1.076355576515e+000 -1.498170898438e+004
 1.086738586426e+000 -1.488011035156e+004
 1.097005367279e+000 -1.477365625000e+004
 1.107445359230e+000 -1.465960937500e+004
 1.117738485336e+000 -1.454185156250e+004
 1.128205299377e+000 -1.441673242188e+004
 1.138508915901e+000 -1.428893652344e+004
 1.148990273476e+000 -1.415449511719e+004
 1.159450769424e+000 -1.401613867188e+004
 1.169840455055e+000 -1.387467675781e+004
 1.180328726768e+000 -1.372758593750e+004
 1.190699577332e+000 -1.357817871094e+004
 1.201240539551e+000 -1.342229589844e+004
 1.211626768112e+000 -1.326487988281e+004
 1.222181200981e+000 -1.310112402344e+004
 1.232604026794e+000 -1.293606542969e+004
 1.243139624596e+000 -1.276643261719e+004
 1.253628373146e+000 -1.259557910156e+004
 1.264099836349e+000 -1.242370312500e+004
 1.274649858475e+000 -1.225029785156e+004
 1.285053372383e+000 -1.207999609375e+004
 1.295599818230e+000 -1.190899511719e+004
 1.306124687195e+000 -1.174073437500e+004
 1.316648364067e+000 -1.157531054688e+004
 1.327081203461e+000 -1.141416308594e+004
 1.337565541267e+000 -1.125507031250e+004
 1.348093748093e+000 -1.109746777344e+004
 1.358524918556e+000 -1.094251367188e+004
 1.368956685066e+000 -1.078781445313e+004
 1.379418373108e+000 -1.063176367188e+004
 1.389857769012e+000 -1.047386718750e+004
 1.400395631790e+000 -1.031135058594e+004
 1.410864710808e+000 -1.014610449219e+004
 1.421264648438e+000 -9.977749023438e+003
 1.431650996208e+000 -9.805079101563e+003
 1.442020773888e+000 -9.628021484375e+003
 1.452375054359e+000 -9.446600585938e+003
 1.462723851204e+000 -9.260930664063e+003
 1.473083257675e+000 -9.070689453125e+003
 1.483385920525e+000 -8.876842773438e+003
 1.493816971779e+000 -8.675275390625e+003
 1.504082322121e+000 -8.471196289063e+003
 1.514388918877e+000 -8.259713867188e+003
 1.524674654007e+000 -8.040778808594e+003
 1.534795641899e+000 -7.816550292969e+003
 1.545153617859e+000 -7.575998535156e+003
 1.555282831192e+000 -7.328883300781e+003
 1.565494894981e+000 -7.066916015625e+003
 1.575609803200e+000 -6.793828613281e+003
 1.585779547691e+000 -6.504836425781e+003
 1.595939755440e+000 -6.201357421875e+003
 1.606010437012e+000 -5.886440429688e+003
 1.616001486778e+000 -5.561491699219e+003
 1.626085877419e+000 -5.222156250000e+003
 1.636007308960e+000 -4.878713378906e+003
 1.646047234535e+000 -4.522800781250e+003
 1.655954718590e+000 -4.165175781250e+003
 1.665827512741e+000 -3.804097412109e+003
 1.675679445267e+000 -3.440333496094e+003
 1.685508966446e+000 -3.074901123047e+003
 1.695312738419e+000 -2.708771728516e+003
 1.705090165138e+000 -2.342927246094e+003
 1.714841485023e+000 -1.978231811523e+003
 1.724566578865e+000 -1.615448852539e+003
 1.734121084213e+000 -1.260537475586e+003
 1.743791699409e+000 -9.041552734375e+002
 1.753335356712e+000 -5.560543823242e+002
 1.762902021408e+000 -2.117754516602e+002
 1.772339344025e+000  1.220891189575e+002
 1.781870365143e+000  4.523718261719e+002
 1.791252136230e+000  7.691645507813e+002
 1.800583004951e+000  1.075551513672e+003
 1.809877514839e+000  1.371615478516e+003
 1.819235563278e+000  1.660687988281e+003
 1.828380346298e+000  1.935085083008e+003
 1.837617039680e+000  2.204545898438e+003
 1.846711993217e+000  2.464127441406e+003
 1.855787873268e+000  2.719184570313e+003
 1.864843726158e+000  2.971716796875e+003
 1.873878955841e+000  3.223524658203e+003
 1.882775425911e+000  3.473284179688e+003
 1.891660571098e+000  3.726382080078e+003
 1.900520563126e+000  3.983771240234e+003
 1.909354448318e+000  4.246558105469e+003
 1.918037295341e+000  4.511269531250e+003
 1.926806569099e+000  4.785636718750e+003
 1.935446977615e+000  5.062912597656e+003
 1.943988680840e+000  5.343566894531e+003
 1.952503681183e+000  5.629291992188e+003
 1.961036324501e+000  5.921464843750e+003
 1.969443321228e+000  6.214650878906e+003
 1.977841019630e+000  6.512428710938e+003
 1.986194610596e+000  6.812856445313e+003
 1.994434118271e+000  7.113246093750e+003
 2.002681970596e+000  7.417577636719e+003
 2.010811328888e+000  7.721040527344e+003
 2.018900394440e+000  8.025827636719e+003
 2.026948928833e+000  8.331509765625e+003
 2.034956455231e+000  8.636740234375e+003
 2.042922973633e+000  8.940664062500e+003
 2.050748825073e+000  9.238157226563e+003
 2.058621168137e+000  9.534974609375e+003
 2.066352367401e+000  9.822688476563e+003
 2.074039697647e+000  1.010347656250e+004
 2.081681489944e+000  1.037597753906e+004
 2.089283704758e+000  1.063860546875e+004
 2.096847534180e+000  1.089027832031e+004
 2.104314327240e+000  1.112835449219e+004
 2.111729383469e+000  1.135399902344e+004
 2.119147062302e+000  1.156872363281e+004
 2.126415252686e+000  1.176792382813e+004
 2.133632421494e+000  1.195489843750e+004
 2.140897989273e+000  1.213281152344e+004
 2.148018598557e+000  1.229762988281e+004
 2.155092239380e+000  1.245252539063e+004
 2.162117958069e+000  1.259801562500e+004
 2.169095993042e+000  1.273462500000e+004
 2.176027774811e+000  1.286295507813e+004
 2.182882308960e+000  1.298257910156e+004
 2.189659118652e+000  1.309380859375e+004
 2.196448802948e+000  1.319783203125e+004
 2.203190088272e+000  1.329359082031e+004
 2.209793329239e+000  1.338003417969e+004
 2.216410160065e+000  1.345893554688e+004
 2.222949981689e+000  1.352874414063e+004
 2.229419231415e+000  1.358917089844e+004
 2.235914468765e+000  1.364069433594e+004
 2.242283105850e+000  1.368236425781e+004
 2.248605966568e+000  1.371483105469e+004
 2.254882812500e+000  1.373795605469e+004
 2.261117458344e+000  1.375144140625e+004
 2.267313480377e+000  1.375536328125e+004
 2.273461341858e+000  1.375083300781e+004
 2.279560565948e+000  1.373920800781e+004
 2.285610437393e+000  1.372237304688e+004
 2.291607379913e+000  1.370249023438e+004
 2.297479629517e+000  1.368171875000e+004
 2.303375482559e+000  1.366026562500e+004
 2.309218645096e+000  1.363784570313e+004
 2.315020322800e+000  1.361335644531e+004
 2.320746898651e+000  1.358628906250e+004
 2.326431751251e+000  1.355676464844e+004
 2.332108497620e+000  1.352550585938e+004
 2.337679386139e+000  1.349346191406e+004
 2.343276500702e+000  1.345939160156e+004
 2.348822116852e+000  1.342241699219e+004
 2.354266166687e+000  1.338136230469e+004
 2.359708786011e+000  1.333501074219e+004
 2.365123987198e+000  1.328339648438e+004
 2.370434522629e+000  1.322724804688e+004
 2.375746726990e+000  1.316438378906e+004
 2.381064891815e+000  1.309154492188e+004
 2.386272907257e+000  1.300661816406e+004
 2.391460418701e+000  1.290429101563e+004
 2.396576642990e+000  1.278317089844e+004
 2.401685714722e+000  1.264221386719e+004
 2.406736373901e+000  1.248895117188e+004
 2.411771774292e+000  1.233363671875e+004
 2.416731595993e+000  1.218916308594e+004
 2.421614170074e+000  1.206239257813e+004
 2.426479816437e+000  1.195261523438e+004
 2.431272029877e+000  1.185611425781e+004
 2.436037063599e+000  1.176719726563e+004
 2.440714597702e+000  1.168948632813e+004
 2.445348262787e+000  1.163117187500e+004
 2.449959516525e+000  1.160315429688e+004
 2.454431056976e+000  1.161148144531e+004
 2.458872795105e+000  1.164819531250e+004
 2.463293552399e+000  1.170306250000e+004
 2.467603206635e+000  1.176417675781e+004
 2.471869230270e+000  1.182503710938e+004
 2.476058244705e+000  1.188168554688e+004
 2.480200767517e+000  1.193402832031e+004
 2.484258174896e+000  1.198241015625e+004
 2.488245248795e+000  1.202966210938e+004
 2.492181062698e+000  1.208142285156e+004
 2.496066808701e+000  1.214669531250e+004
 2.499870061874e+000  1.223058398438e+004
 2.503591299057e+000  1.233293847656e+004
 2.507279396057e+000  1.244943847656e+004
 2.510889053345e+000  1.256991406250e+004
 2.514503240585e+000  1.268859863281e+004
 2.518049716949e+000  1.279832421875e+004
 2.521550178528e+000  1.290009960938e+004
 2.524994134903e+000  1.299832714844e+004
 2.528442144394e+000  1.310264160156e+004
 2.531820297241e+000  1.322171972656e+004
 2.535174369812e+000  1.336608984375e+004
 2.538498163223e+000  1.354438281250e+004
 2.541768789291e+000  1.376277636719e+004
 2.544953823090e+000  1.402351660156e+004
 2.548131942749e+000  1.433579980469e+004
 2.551254987717e+000  1.468485839844e+004
 2.554321527481e+000  1.505538476563e+004
 2.557336330414e+000  1.542933300781e+004
 2.560308933258e+000  1.579267285156e+004
 2.563195705414e+000  1.613133886719e+004
 2.566037178040e+000  1.645085546875e+004
 2.568842411041e+000  1.675203320313e+004
 2.571603059769e+000  1.702910546875e+004
 2.574291706085e+000  1.726939648438e+004
 2.576933622360e+000  1.746143554688e+004
 2.579535961151e+000  1.760105273438e+004
 2.582093715668e+000  1.768910742188e+004
 2.584590435028e+000  1.773291015625e+004
 2.587044000626e+000  1.774345117188e+004
 2.589412927628e+000  1.773008203125e+004
 2.591750144958e+000  1.770169335938e+004
 2.594032526016e+000  1.766310351563e+004
 2.596247911453e+000  1.761869726563e+004
 2.598431587219e+000  1.757254296875e+004
 2.600517988205e+000  1.753275000000e+004
 2.602555990219e+000  1.750513476563e+004
 2.604541778564e+000  1.749584960938e+004
 2.606446981430e+000  1.750847265625e+004
 2.608300447464e+000  1.754384765625e+004
 2.610065937042e+000  1.760019140625e+004
 2.611768484116e+000  1.767286523438e+004
 2.613408088684e+000  1.775764648438e+004
 2.614980459213e+000  1.784934765625e+004
 2.616477489471e+000  1.794178906250e+004
 2.617901325226e+000  1.802964843750e+004
 2.619239807129e+000  1.810927734375e+004
 2.620514392853e+000  1.818192578125e+004
 2.621703624725e+000  1.824707031250e+004
 2.622824192047e+000  1.830477539063e+004
 2.623857736588e+000  1.835063281250e+004
 2.624810695648e+000  1.838340234375e+004
 2.625685214996e+000  1.840597265625e+004
 2.626483201981e+000  1.842661718750e+004
 2.627197265625e+000  1.845611328125e+004
 2.627838850021e+000  1.850593750000e+004
 2.628393888474e+000  1.857609960938e+004
 2.628875494003e+000  1.866349804688e+004
 2.629276752472e+000  1.876033398438e+004
 2.629597187042e+000  1.886143554688e+004
 2.629834413528e+000  1.896717968750e+004
 2.629992008209e+000  1.908108593750e+004
 2.630073785782e+000  1.920975976563e+004
 2.630078077316e+000  1.935457031250e+004
 2.630006074905e+000  1.951448632813e+004
 2.629852533340e+000  1.968698437500e+004
 2.629622697830e+000  1.986567382813e+004
 2.629317045212e+000  2.004449218750e+004
 2.628935813904e+000  2.021598242188e+004
 2.628479242325e+000  2.037073828125e+004
 2.627939701080e+000  2.049772851563e+004
 2.627325534821e+000  2.059012890625e+004
 2.626631736755e+000  2.064630859375e+004
 2.625866413116e+000  2.066542773438e+004
 2.625012874603e+000  2.064680273438e+004
 2.624085187912e+000  2.058596875000e+004
 2.623074769974e+000  2.047948046875e+004
 2.621981859207e+000  2.032382421875e+004
 2.620814085007e+000  2.011922265625e+004
 2.619565963745e+000  1.986809179688e+004
 2.618237495422e+000  1.957587695313e+004
 2.616825342178e+000  1.925207617188e+004
 2.615333557129e+000  1.890648437500e+004
 2.613761425018e+000  1.854760742188e+004
 2.612107992172e+000  1.818474609375e+004
 2.610388517380e+000  1.783372656250e+004
 2.608568191528e+000  1.749935546875e+004
 2.606681823730e+000  1.719802929688e+004
 2.604720830917e+000  1.693380664063e+004
 2.602659940720e+000  1.670580664063e+004
 2.600545644760e+000  1.651781445313e+004
 2.598326206207e+000  1.635720312500e+004
 2.596022605896e+000  1.621829687500e+004
 2.593667745590e+000  1.609546386719e+004
 2.591190099716e+000  1.597852441406e+004
 2.588657379150e+000  1.586529199219e+004
 2.586048364639e+000  1.574967968750e+004
 2.583343029022e+000  1.562631250000e+004
 2.580565929413e+000  1.549214550781e+004
 2.577715635300e+000  1.534407324219e+004
 2.574771642685e+000  1.517969140625e+004
 2.571733236313e+000  1.500163281250e+004
 2.568620681763e+000  1.481484375000e+004
 2.565434217453e+000  1.462245996094e+004
 2.562162160873e+000  1.442536425781e+004
 2.558823823929e+000  1.422537988281e+004
 2.555398702621e+000  1.402283398438e+004
 2.551888465881e+000  1.382155273438e+004
 2.548309087753e+000  1.362795312500e+004
 2.544687032700e+000  1.345089062500e+004
 2.540934324265e+000  1.329114941406e+004
 2.537154912949e+000  1.315670996094e+004
 2.533291578293e+000  1.304401367188e+004
 2.529385328293e+000  1.295173242188e+004
 2.525392770767e+000  1.287536914063e+004
 2.521300315857e+000  1.281188476563e+004
 2.517174005508e+000  1.275794921875e+004
 2.513002157211e+000  1.270738085938e+004
 2.508771181107e+000  1.265387109375e+004
 2.504466295242e+000  1.259070312500e+004
 2.500054121017e+000  1.251061328125e+004
 2.495634794235e+000  1.241216796875e+004
 2.491152286530e+000  1.229175292969e+004
 2.486547470093e+000  1.214613476563e+004
 2.481965541840e+000  1.197894824219e+004
 2.477280616760e+000  1.178754492188e+004
 2.472542285919e+000  1.157439062500e+004
 2.467730760574e+000  1.133591503906e+004
 2.462857484818e+000  1.106868847656e+004
 2.457938432693e+000  1.076290332031e+004
 2.452977180481e+000  1.041247753906e+004
 2.447980165482e+000  1.001227832031e+004
 2.442848920822e+000  9.561531250000e+003
 2.437720298767e+000  9.082357421875e+003
 2.432544946671e+000  8.588705078125e+003
 2.427270650864e+000  8.084788574219e+003
 2.421975374222e+000  7.577302734375e+003
 2.416601896286e+000  7.062190917969e+003
 2.411208391190e+000  6.551249023438e+003
 2.405748605728e+000  6.047061035156e+003
 2.400212287903e+000  5.565325195313e+003
 2.394661188126e+000  5.120952636719e+003
 2.389084577560e+000  4.717137695313e+003
 2.383434295654e+000  4.350701171875e+003
 2.377756834030e+000  4.021431640625e+003
 2.371986389160e+000  3.728078369141e+003
 2.366250753403e+000  3.475744140625e+003
 2.360409259796e+000  3.258847412109e+003
 2.354535579681e+000  3.075825927734e+003
 2.348673582077e+000  2.925337890625e+003
 2.342716455460e+000  2.804601562500e+003
 2.336742162704e+000  2.717538818359e+003
 2.330699682236e+000  2.664422607422e+003
 2.324655294418e+000  2.644472656250e+003
 2.318576574326e+000  2.652068847656e+003
 2.312420129776e+000  2.679152099609e+003
 2.306291103363e+000  2.715458007813e+003
 2.300083398819e+000  2.756006835938e+003
 2.293799161911e+000  2.799179687500e+003
 2.287589788437e+000  2.845413085938e+003
 2.281311035156e+000  2.896914306641e+003
 2.274973630905e+000  2.952391113281e+003
 2.268645524979e+000  3.004967041016e+003
 2.262224674225e+000  3.045219970703e+003
 2.255872964859e+000  3.059354248047e+003
 2.249482393265e+000  3.034739257813e+003
 2.243021965027e+000  2.964679199219e+003
 2.236564159393e+000  2.853919433594e+003
 2.230063915253e+000  2.709174804688e+003
 2.223588943481e+000  2.540120605469e+003
 2.217067241669e+000  2.349251464844e+003
 2.210595846176e+000  2.139016845703e+003
 2.204062461853e+000  1.909654663086e+003
 2.197494506836e+000  1.666088745117e+003
 2.190980911255e+000  1.417404052734e+003
 2.184408426285e+000  1.164802856445e+003
 2.177814483643e+000  9.127938842773e+002
 2.171237945557e+000  6.608606567383e+002
 2.164666652679e+000  4.037650451660e+002
 2.158079147339e+000  1.405557250977e+002
 2.151465415955e+000 -1.263001785278e+002
 2.144924879074e+000 -3.887914123535e+002
 2.138304710388e+000 -6.459546508789e+002
 2.131693363190e+000 -8.913837890625e+002
 2.125159263611e+000 -1.124561889648e+003
 2.118533849716e+000 -1.353446289063e+003
 2.111999273300e+000 -1.577390625000e+003
 2.105396032333e+000 -1.804090942383e+003
 2.098869800568e+000 -2.020736816406e+003
 2.092437028885e+000 -2.223426513672e+003
 2.085949182510e+000 -2.408631347656e+003
 2.079454421997e+000 -2.574162109375e+003
 2.073066711426e+000 -2.720729248047e+003
 2.066617965698e+000 -2.857779541016e+003
 2.060280561447e+000 -2.982489257813e+003
 2.054028034210e+000 -3.086810791016e+003
 2.047730207443e+000 -3.161504882813e+003
 2.041583776474e+000 -3.196652099609e+003
 2.035398483276e+000 -3.193774658203e+003
 2.029318332672e+000 -3.158458007813e+003
 2.023258209229e+000 -3.096274902344e+003
 2.017304658890e+000 -3.008204101563e+003
 2.011430025101e+000 -2.888177734375e+003
 2.005624532700e+000 -2.729087890625e+003
 1.999853849411e+000 -2.529289306641e+003
 1.994188666344e+000 -2.298252685547e+003
 1.988562345505e+000 -2.051102539063e+003
 1.983053207397e+000 -1.804916748047e+003
 1.977615714073e+000 -1.561187744141e+003
 1.972261309624e+000 -1.319084960938e+003
 1.967033505440e+000 -1.080443603516e+003
 1.961877465248e+000 -8.535884399414e+002
 1.956788301468e+000 -6.583714599609e+002
 1.951792955399e+000 -5.122341918945e+002
 1.946895360947e+000 -4.251536254883e+002
 1.942133426666e+000 -3.954498901367e+002
 1.937428474426e+000 -4.151292419434e+002
 1.932812929153e+000 -4.789096679688e+002
 1.928313612938e+000 -5.887074584961e+002
 1.923869729042e+000 -7.515186767578e+002
 1.919576048851e+000 -9.654680786133e+002
 1.915354490280e+000 -1.221381958008e+003
 1.911211490631e+000 -1.499402221680e+003
 1.907178401947e+000 -1.782463500977e+003
 1.903217315674e+000 -2.065503417969e+003
 1.899363160133e+000 -2.351513671875e+003
 1.895622849464e+000 -2.648067871094e+003
 1.891941905022e+000 -2.956756835938e+003
 1.888373970985e+000 -3.263478027344e+003
 1.884893178940e+000 -3.552047363281e+003
 1.881482601166e+000 -3.810931396484e+003
 1.878189206123e+000 -4.028467529297e+003
 1.874966621399e+000 -4.210682128906e+003
 1.871805548668e+000 -4.354131835938e+003
 1.868735432625e+000 -4.448861328125e+003
 1.865724444389e+000 -4.480368652344e+003
 1.862798571587e+000 -4.434004394531e+003
 1.859920501709e+000 -4.311793945313e+003
 1.857130646706e+000 -4.124484375000e+003
 1.854366660118e+000 -3.875403320313e+003
 1.851674795151e+000 -3.572342773438e+003
 1.849048614502e+000 -3.209780273438e+003
 1.846462965012e+000 -2.788990234375e+003
 1.843912243843e+000 -2.313789550781e+003
 1.841423869133e+000 -1.813658081055e+003
 1.838977932930e+000 -1.304714477539e+003
 1.836572527885e+000 -8.027610473633e+002
 1.834217548370e+000 -3.155735473633e+002
 1.831906080246e+000  1.622662048340e+002
 1.829635620117e+000  6.231650390625e+002
 1.827410578728e+000  1.048820068359e+003
 1.825233697891e+000  1.410039794922e+003
 1.823095321655e+000  1.692814086914e+003
 1.820998549461e+000  1.893902832031e+003
 1.818943262100e+000  2.018824584961e+003
 1.816899061203e+000  2.076201660156e+003
 1.814913868904e+000  2.064096435547e+003
 1.812950253487e+000  1.983301757813e+003
 1.811022996902e+000  1.833804565430e+003
 1.809126257896e+000  1.624002685547e+003
 1.807251811028e+000  1.371421630859e+003
 1.805422425270e+000  1.099231933594e+003
 1.803605198860e+000  8.224530029297e+002
 1.801821470261e+000  5.541813964844e+002
 1.800072789192e+000  3.006972045898e+002
 1.798344612122e+000  7.087183380127e+001
 1.796657562256e+000 -1.182337036133e+002
 1.794996857643e+000 -2.516168212891e+002
 1.793364048004e+000 -3.190335693359e+002
 1.791756868362e+000 -3.153056030273e+002
 1.790178179741e+000 -2.381240386963e+002
 1.788643956184e+000 -7.994052124023e+001
 1.787116050720e+000  1.650040283203e+002
 1.785628914833e+000  4.989064025879e+002
 1.784155368805e+000  9.202220458984e+002
 1.782712101936e+000  1.407973022461e+003
 1.781287550926e+000  1.950767211914e+003
 1.779877543449e+000  2.531812988281e+003
 1.778497815132e+000  3.135380859375e+003
 1.777119636536e+000  3.779932617188e+003
 1.775758862495e+000  4.455041503906e+003
 1.774418473244e+000  5.143693359375e+003
 1.773100137711e+000  5.817898437500e+003
 1.771781325340e+000  6.460455078125e+003
 1.770476102829e+000  7.042395996094e+003
 1.769183039665e+000  7.552724609375e+003
 1.767906904221e+000  7.977869140625e+003
 1.766634821892e+000  8.328527343750e+003
 1.765360236168e+000  8.601852539063e+003
 1.764113068581e+000  8.787603515625e+003
 1.762860059738e+000  8.888712890625e+003
 1.761617541313e+000  8.898951171875e+003
 1.760395646095e+000  8.833243164063e+003
 1.759174585342e+000  8.705879882813e+003
 1.757969141006e+000  8.535801757813e+003
 1.756775856018e+000  8.340124023438e+003
 1.755582809448e+000  8.132364746094e+003
 1.754415512085e+000  7.929008300781e+003
 1.753248929977e+000  7.737586425781e+003
 1.752083659172e+000  7.572015625000e+003
 1.750930070877e+000  7.445929199219e+003
 1.749772787094e+000  7.374280273438e+003
 1.748621106148e+000  7.362009277344e+003
 1.747473239899e+000  7.410869140625e+003
 1.746326208115e+000  7.521923828125e+003
 1.745157003403e+000  7.699425292969e+003
 1.744002223015e+000  7.940747070313e+003
 1.742829442024e+000  8.240706054688e+003
 1.741652250290e+000  8.584614257813e+003
 1.740453124046e+000  8.960891601563e+003
 1.739246487617e+000  9.350071289063e+003
 1.738032937050e+000  9.743436523438e+003
 1.736793875694e+000  1.014445605469e+004
 1.735545516014e+000  1.054797558594e+004
 1.734265923500e+000  1.095356250000e+004
 1.732983231544e+000  1.134693261719e+004
 1.731659770012e+000  1.172887109375e+004
 1.730329394341e+000  1.208824609375e+004
 1.728991150856e+000  1.243304296875e+004
 1.727625370026e+000  1.278023828125e+004
 1.726233482361e+000  1.313975585938e+004
 1.724836826324e+000  1.351133789063e+004
 1.723409771919e+000  1.390017968750e+004
 1.721970319748e+000  1.428934277344e+004
 1.720514893532e+000  1.467055664063e+004
 1.719018101692e+000  1.504243945313e+004
 1.717513680458e+000  1.538282324219e+004
 1.715991497040e+000  1.568455566406e+004
 1.714451670647e+000  1.593593261719e+004
 1.712865591049e+000  1.613178222656e+004
 1.711265325546e+000  1.626344433594e+004
 1.709648013115e+000  1.633009960938e+004
 1.708001017570e+000  1.633564648438e+004
 1.706325173378e+000  1.627850000000e+004
 1.704618215561e+000  1.615397656250e+004
 1.702858686447e+000  1.595773535156e+004
 1.701094269753e+000  1.569982324219e+004
 1.699276089668e+000  1.538912109375e+004
 1.697412610054e+000  1.504544921875e+004
 1.695522189140e+000  1.469090820313e+004
 1.693587899208e+000  1.433184375000e+004
 1.691625595093e+000  1.398431445313e+004
 1.689591765404e+000  1.365890136719e+004
 1.687534213066e+000  1.338025195313e+004
 1.685437798500e+000  1.316459179688e+004
 1.683283805847e+000  1.302820605469e+004
 1.681066513062e+000  1.298666015625e+004
 1.678833603859e+000  1.304188769531e+004
 1.676554441452e+000  1.319424609375e+004
 1.674233078957e+000  1.344963476563e+004
 1.671830534935e+000  1.381673144531e+004
 1.669406533241e+000  1.429007812500e+004
 1.666941165924e+000  1.485210937500e+004
 1.664423108101e+000  1.548193945313e+004
 1.661860823631e+000  1.614966503906e+004
 1.659241557121e+000  1.684038085938e+004
 1.656597495079e+000  1.753009960938e+004
 1.653860688210e+000  1.821620507813e+004
 1.651107668877e+000  1.885733398438e+004
 1.648295044899e+000  1.943813281250e+004
 1.645408391953e+000  1.993299218750e+004
 1.642488241196e+000  2.030985156250e+004
 1.639493703842e+000  2.057342773438e+004
 1.636455416679e+000  2.072600585938e+004
 1.633362770081e+000  2.076880859375e+004
 1.630211710930e+000  2.069423828125e+004
 1.626995801926e+000  2.048609765625e+004
 1.623698711395e+000  2.014801171875e+004
 1.620362877846e+000  1.970439257813e+004
 1.616959333420e+000  1.917906835938e+004
 1.613509178162e+000  1.861108984375e+004
 1.609989881516e+000  1.801603906250e+004
 1.606415987015e+000  1.741085351563e+004
 1.602785587311e+000  1.680285546875e+004
 1.599081873894e+000  1.620265039063e+004
 1.595308542252e+000  1.562412207031e+004
 1.591520786285e+000  1.509963183594e+004
 1.587643980980e+000  1.463912792969e+004
 1.583711624146e+000  1.425238085938e+004
 1.579696297646e+000  1.394556738281e+004
 1.575617313385e+000  1.372468164063e+004
 1.571546316147e+000  1.360611621094e+004
 1.567301630974e+000  1.358848730469e+004
 1.563050031662e+000  1.366856933594e+004
 1.558722615242e+000  1.383117285156e+004
 1.554343938828e+000  1.405359082031e+004
 1.549908280373e+000  1.432133496094e+004
 1.545380473137e+000  1.462692871094e+004
 1.540786385536e+000  1.496485937500e+004
 1.536140203476e+000  1.532385742188e+004
 1.531426072121e+000  1.568285742188e+004
 1.526634693146e+000  1.600663574219e+004
 1.521779656410e+000  1.626931152344e+004
 1.516858458519e+000  1.646633593750e+004
 1.511892914772e+000  1.660621289063e+004
 1.506827473640e+000  1.670372460938e+004
 1.501732349396e+000  1.676245703125e+004
 1.496560573578e+000  1.677925976563e+004
 1.491335034370e+000  1.675065234375e+004
 1.486047029495e+000  1.668232226563e+004
 1.480659723282e+000  1.658782421875e+004
 1.475255727768e+000  1.648447265625e+004
 1.469760775566e+000  1.637427343750e+004
 1.464199066162e+000  1.624772363281e+004
 1.458601832390e+000  1.609402539063e+004
 1.452941894531e+000  1.590952050781e+004
 1.447145938873e+000  1.569757812500e+004
 1.441378355026e+000  1.547520996094e+004
 1.435485363007e+000  1.523015429688e+004
 1.429512977600e+000  1.494364160156e+004
 1.423523426056e+000  1.458848242188e+004
 1.417400479317e+000  1.414111718750e+004
 1.411235094070e+000  1.361621191406e+004
 1.405006885529e+000  1.303416503906e+004
 1.398729085922e+000  1.241894238281e+004
 1.392363071442e+000  1.177480859375e+004
 1.385945439339e+000  1.110583496094e+004
 1.379440903664e+000  1.041132812500e+004
 1.372883677483e+000  9.727918945313e+003
 1.366251945496e+000  9.081426757813e+003
 1.359534025192e+000  8.505544921875e+003
 1.352829098701e+000  8.027092773438e+003
 1.345982670784e+000  7.626652343750e+003
 1.339109182358e+000  7.308054687500e+003
 1.332178473473e+000  7.071803710938e+003
 1.325229525566e+000  6.932656250000e+003
 1.318163037300e+000  6.902802246094e+003
 1.311063170433e+000  6.975809570313e+003
 1.303944945335e+000  7.121305664063e+003
 1.296788334846e+000  7.310751464844e+003
 1.289564132690e+000  7.524399414063e+003
 1.282218337059e+000  7.760322265625e+003
 1.274874091148e+000  8.016749023438e+003
 1.267539501190e+000  8.287823242188e+003
 1.260132431984e+000  8.554006835938e+003
 1.252590775490e+000  8.783980468750e+003
 1.245153903961e+000  8.939916015625e+003
 1.237545490265e+000  9.016485351563e+003
 1.229889988899e+000  9.022164062500e+003
 1.222233176231e+000  8.967877929688e+003
 1.214450716972e+000  8.854124023438e+003
 1.206648707390e+000  8.666905273438e+003
 1.198855519295e+000  8.394740234375e+003
 1.190929174423e+000  8.036320312500e+003
 1.182958126068e+000  7.609026855469e+003
 1.175004005432e+000  7.139003417969e+003
 1.166919589043e+000  6.632212402344e+003
 1.158791065216e+000  6.089699707031e+003
 1.150636434555e+000  5.512001953125e+003
 1.142411708832e+000  4.898617675781e+003
 1.134138226509e+000  4.273244628906e+003
 1.125734210014e+000  3.652110595703e+003
 1.117427468300e+000  3.087173828125e+003
 1.108973503113e+000  2.560943603516e+003
 1.100500226021e+000  2.077034667969e+003
 1.092022418976e+000  1.626305541992e+003
 1.083428859711e+000  1.208284912109e+003
 1.074854493141e+000  8.414108886719e+002
 1.066219091415e+000  5.302833862305e+002
 1.057529449463e+000  2.716481933594e+002
 1.048926711082e+000  6.092985153198e+001
 1.040114045143e+000 -1.228321838379e+002
 1.031318426132e+000 -2.759366760254e+002
 1.022548913956e+000 -3.911828002930e+002
 1.013717889786e+000 -4.626896057129e+002
 1.004854679108e+000 -4.917434692383e+002
 9.960312843323e-001 -4.953379211426e+002
 9.870342016220e-001 -5.013179626465e+002
 9.781649112701e-001 -5.301907958984e+002
 9.691395163536e-001 -5.893133544922e+002
 9.602323770523e-001 -6.739255981445e+002
 9.512493014336e-001 -7.828371582031e+002
 9.421981573105e-001 -9.218632202148e+002
 9.331950545311e-001 -1.101797607422e+003
 9.240800142288e-001 -1.332848510742e+003
 9.149898290634e-001 -1.611300537109e+003
 9.059816002846e-001 -1.917813598633e+003
 8.968632817268e-001 -2.238938232422e+003
 8.877423405647e-001 -2.554432373047e+003
 8.785743713379e-001 -2.857303222656e+003
 8.693420290947e-001 -3.141965820313e+003
 8.601638078690e-001 -3.393740722656e+003
 8.509695529938e-001 -3.594916503906e+003
 8.417369723320e-001 -3.735987548828e+003
 8.325257301331e-001 -3.815589111328e+003
 8.232562541962e-001 -3.848611572266e+003
 8.138365149498e-001 -3.853430175781e+003
 8.045240044594e-001 -3.843157226563e+003
 7.953047156334e-001 -3.819543212891e+003
 7.858866453171e-001 -3.776567626953e+003
 7.765747904778e-001 -3.715663330078e+003
 7.670766711235e-001 -3.646030761719e+003
 7.577207088470e-001 -3.591332031250e+003
 7.482516169548e-001 -3.568249267578e+003
 7.388753890991e-001 -3.587424804688e+003
 7.293130159378e-001 -3.653261474609e+003
 7.198505401611e-001 -3.767813964844e+003
 7.103543281555e-001 -3.939849609375e+003
 7.009890079498e-001 -4.171408691406e+003
 6.914444565773e-001 -4.472022949219e+003
 6.819645166397e-001 -4.826295410156e+003
 6.723989248276e-001 -5.222543457031e+003
 6.629888415337e-001 -5.630631347656e+003
 6.534651517868e-001 -6.041367187500e+003
 6.439862847328e-001 -6.438987304688e+003
 6.345193386078e-001 -6.822927734375e+003
 6.250607371330e-001 -7.188448730469e+003
 6.155713200569e-001 -7.529603515625e+003
 6.061649322510e-001 -7.837228515625e+003
 5.967666506767e-001 -8.110687988281e+003
 5.873662233353e-001 -8.355657226563e+003
 5.779510736465e-001 -8.579363281250e+003
 5.685836076736e-001 -8.788897460938e+003
 5.591864585876e-001 -8.986162109375e+003
 5.498180389404e-001 -9.159378906250e+003
 5.404568910599e-001 -9.297172851563e+003
 5.311577320099e-001 -9.389113281250e+003
 5.218179821968e-001 -9.434398437500e+003
 5.124974250793e-001 -9.439801757813e+003
 5.032224059105e-001 -9.409086914063e+003
 4.939455986023e-001 -9.340906250000e+003
 4.846701920033e-001 -9.229292968750e+003
 4.754211902618e-001 -9.072059570313e+003
 4.661801755428e-001 -8.880263671875e+003
 4.568823873997e-001 -8.667506835938e+003
 4.476658701897e-001 -8.450018554688e+003
 4.385229945183e-001 -8.239121093750e+003
 4.293726980686e-001 -8.040914550781e+003
 4.202276766300e-001 -7.863679687500e+003
 4.111690819263e-001 -7.725455078125e+003
 4.021767079830e-001 -7.642884277344e+003
 3.930332958698e-001 -7.629701171875e+003
 3.840924501419e-001 -7.689722167969e+003
 3.750570714474e-001 -7.805769042969e+003
 3.660850524902e-001 -7.960687988281e+003
 3.570221662521e-001 -8.144887695313e+003
 3.478769659996e-001 -8.354303710938e+003
 3.385948240757e-001 -8.592218750000e+003
 3.292598426342e-001 -8.847821289063e+003
 3.197831511497e-001 -9.109689453125e+003
 3.103154599667e-001 -9.356809570313e+003
 3.006799221039e-001 -9.580027343750e+003
 2.912077307701e-001 -9.769643554688e+003
 2.820608615875e-001 -9.930314453125e+003
 2.732504904270e-001 -1.006813574219e+004
 2.651210129261e-001 -1.017959277344e+004
 2.580459117889e-001 -1.026123828125e+004
 2.523157596588e-001 -1.031254296875e+004
 2.480824738741e-001 -1.034047753906e+004
 2.454854995012e-001 -1.035332812500e+004
 2.442986071110e-001 -1.035841406250e+004
 2.440690398216e-001 -1.035942285156e+004
endcurve
