Curveplot
LS-DYNA keyword deck by LS-PrePost
Yrot-displ
phi moment-stiffness
Joint Stiff
300001 #pts=1000
* Minval= -1.995543359375e+004 at time=      -2.254788637161
* Maxval=  1.254145214844e+004 at time=      -1.307872891426
-1.639866797909e-009 -4.677089862525e-003
-1.794804749267e-009  3.773549199104e-002
-1.700533158733e-009  9.808486700058e-002
-1.243161351638e-009  1.747813820839e-001
-2.775058238758e-010  2.666105926037e-001
 1.335541122138e-009  3.653369545937e-001
 3.696975392486e-009  4.540186822414e-001
 6.760310977683e-009  5.122892856598e-001
 1.042575625831e-008  5.186119079590e-001
 1.434873464490e-008  4.470430016518e-001
 1.800489179971e-008  2.658524811268e-001
 2.042371960442e-008 -7.727117836475e-002
 2.032234291960e-008 -6.011973023415e-001
 1.628344392657e-008 -1.327584743500e+000
 6.697753018869e-009 -2.239241123199e+000
-1.038165020617e-008 -3.299530029297e+000
-3.617341803874e-008 -4.360006809235e+000
-7.109703403785e-008 -5.246246337891e+000
-1.135257150509e-007 -5.697718620300e+000
-1.605429531537e-007 -5.401788234711e+000
-2.053476890751e-007 -4.021899700165e+000
-2.382733725881e-007 -1.130900025368e+000
-2.473749134424e-007  3.557548999786e+000
-2.194684043388e-007  1.026855182648e+001
-1.396838484879e-007  1.939206504822e+001
 7.090472653459e-010  3.086119270325e+001
 2.182137563977e-007  4.548021697998e+001
 5.048202638136e-007  6.308969497681e+001
 8.492501137880e-007  8.401331329346e+001
 1.230027578458e-006  1.087342605591e+002
 1.602343786544e-006  1.372352447510e+002
 1.906795091600e-006  1.708810424805e+002
 2.045454721156e-006  2.088307800293e+002
 1.917239615068e-006  2.519209899902e+002
 1.392088393004e-006  3.004253540039e+002
 2.993008934027e-007  3.553427734375e+002
-1.571366738062e-006  4.162749328613e+002
-4.476626600081e-006  4.847698059082e+002
-8.560199603380e-006  5.588370971680e+002
-1.423846697435e-005  6.411342773438e+002
-2.162842429243e-005  7.290612182617e+002
-3.137269231956e-005  8.252281494141e+002
-4.354669363238e-005  9.269156494141e+002
-5.864856211701e-005  1.035337524414e+003
-7.707397890044e-005  1.150013793945e+003
-9.900748409564e-005  1.269233764648e+003
-1.253438676940e-004  1.393937500000e+003
-1.563526311656e-004  1.522635375977e+003
-1.929745631060e-004  1.656230224609e+003
-2.344691165490e-004  1.789537109375e+003
-2.820014487952e-004  1.924477661133e+003
-3.373696235940e-004  2.062669189453e+003
-3.993829304818e-004  2.199545654297e+003
-4.695489769801e-004  2.337206787109e+003
-5.481138941832e-004  2.474467041016e+003
-6.347838207148e-004  2.609733886719e+003
-7.327308412641e-004  2.745869384766e+003
-8.397133788094e-004  2.878940185547e+003
-9.579008328728e-004  3.011226074219e+003
-1.087419455871e-003  3.141894775391e+003
-1.227288041264e-003  3.269306640625e+003
-1.382009591907e-003  3.395977783203e+003
-1.547690248117e-003  3.518086669922e+003
-1.725955982693e-003  3.636747802734e+003
-1.920951413922e-003  3.753790039063e+003
-2.126573352143e-003  3.865214355469e+003
-2.346944529563e-003  3.972653808594e+003
-2.582178218290e-003  4.076237304688e+003
-2.836660016328e-003  4.177834960938e+003
-3.102311398834e-003  4.274267089844e+003
-3.383524715900e-003  4.367668457031e+003
-3.681324189529e-003  4.458231445313e+003
-3.995713777840e-003  4.546482421875e+003
-4.332419950515e-003  4.634380859375e+003
-4.680698271841e-003  4.719560546875e+003
-5.046327598393e-003  4.804138671875e+003
-5.430274177343e-003  4.888890136719e+003
-5.832755938172e-003  4.974597167969e+003
-6.253591272980e-003  5.061852050781e+003
-6.693145725876e-003  5.151206542969e+003
-7.151746656746e-003  5.243029296875e+003
-7.630418520421e-003  5.337880371094e+003
-8.129386231303e-003  5.436057617188e+003
-8.639532141387e-003  5.536005859375e+003
-9.178595617414e-003  5.641157714844e+003
-9.738409891725e-003  5.749841308594e+003
-1.032017171383e-002  5.862038085938e+003
-1.091726496816e-002  5.976271484375e+003
-1.153990812600e-002  6.094367675781e+003
-1.218861155212e-002  6.216287109375e+003
-1.285954192281e-002  6.341197265625e+003
-1.354558579624e-002  6.467473632813e+003
-1.426719501615e-002  6.598612304688e+003
-1.500127557665e-002  6.730000000000e+003
-1.577342301607e-002  6.865702148438e+003
-1.655836775899e-002  7.000815429688e+003
-1.738449744880e-002  7.139358886719e+003
-1.822933182120e-002  7.276621093750e+003
-1.910787820816e-002  7.414193359375e+003
-2.000471204519e-002  7.548840332031e+003
-2.094488404691e-002  7.683421386719e+003
-2.190357632935e-002  7.813499511719e+003
-2.289185300469e-002  7.940126953125e+003
-2.391979470849e-002  8.064267089844e+003
-2.497439831495e-002  8.183792968750e+003
-2.606143802404e-002  8.298824218750e+003
-2.718063071370e-002  8.408642578125e+003
-2.833840250969e-002  8.513310546875e+003
-2.952878363431e-002  8.612279296875e+003
-3.075434640050e-002  8.705510742188e+003
-3.199650347233e-002  8.791581054688e+003
-3.329258412123e-002  8.872574218750e+003
-3.462829440832e-002  8.947409179688e+003
-3.600149974227e-002  9.016166015625e+003
-3.739642724395e-002  9.078316406250e+003
-3.883840888739e-002  9.135213867188e+003
-4.032548144460e-002  9.186599609375e+003
-4.183267802000e-002  9.231759765625e+003
-4.340237006545e-002  9.272283203125e+003
-4.498638212681e-002  9.306978515625e+003
-4.661276564002e-002  9.336706054688e+003
-4.830265790224e-002  9.361694335938e+003
-5.001015588641e-002  9.381437500000e+003
-5.175828933716e-002  9.396799804688e+003
-5.354709178209e-002  9.408153320313e+003
-5.537675693631e-002  9.415991210938e+003
-5.724856257439e-002  9.420844726563e+003
-5.916315317154e-002  9.423402343750e+003
-6.111955270171e-002  9.424347656250e+003
-6.311843544245e-002  9.424165039063e+003
-6.516034901142e-002  9.423215820313e+003
-6.724686920643e-002  9.421745117188e+003
-6.934447586536e-002  9.419941406250e+003
-7.152069360018e-002  9.417837890625e+003
-7.370538264513e-002  9.415520507813e+003
-7.597104460001e-002  9.412879882813e+003
-7.824847847223e-002  9.409938476563e+003
-8.057692646980e-002  9.406581054688e+003
-8.297040313482e-002  9.402730468750e+003
-8.538135886192e-002  9.398373046875e+003
-8.783770352602e-002  9.393299804688e+003
-9.034436941147e-002  9.387192382813e+003
-9.290371835232e-002  9.379597656250e+003
-9.550990164280e-002  9.370073242188e+003
-9.816353023052e-002  9.358103515625e+003
-1.008270010352e-001  9.343422851563e+003
-1.035719290376e-001  9.325087890625e+003
-1.063728705049e-001  9.302693359375e+003
-1.091778948903e-001  9.276457031250e+003
-1.120770722628e-001  9.245208007813e+003
-1.149796172976e-001  9.209646484375e+003
-1.179769933224e-001  9.168272460938e+003
-1.209845989943e-001  9.121981445313e+003
-1.240394189954e-001  9.070303710938e+003
-1.271613091230e-001  9.012814453125e+003
-1.303515881300e-001  8.949297851563e+003
-1.335615068674e-001  8.880622070313e+003
-1.368265450001e-001  8.805938476563e+003
-1.401447653770e-001  8.725485351563e+003
-1.435163468122e-001  8.639145507813e+003
-1.469333767891e-001  8.547229492188e+003
-1.503658890724e-001  8.450556640625e+003
-1.539002358913e-001  8.346793945313e+003
-1.574882268906e-001  8.237590820313e+003
-1.610722690821e-001  8.125057128906e+003
-1.647673994303e-001  8.005602050781e+003
-1.684621572495e-001  7.882921386719e+003
-1.722656935453e-001  7.753172851563e+003
-1.760669797659e-001  7.620197753906e+003
-1.799219399691e-001  7.482363281250e+003
-1.838833987713e-001  7.337786132813e+003
-1.878580003977e-001  7.190294433594e+003
-1.918317079544e-001  7.040665039063e+003
-1.959189176559e-001  6.885130859375e+003
-2.000601738691e-001  6.726167480469e+003
-2.042004913092e-001  6.566431640625e+003
-2.084405124187e-001  6.402134277344e+003
-2.126805037260e-001  6.237616699219e+003
-2.170396000147e-001  6.068420898438e+003
-2.213847339153e-001  5.899831542969e+003
-2.257816940546e-001  5.729437011719e+003
-2.302315533161e-001  5.557279785156e+003
-2.348056435585e-001  5.380966796875e+003
-2.393633425236e-001  5.206009277344e+003
-2.439738214016e-001  5.030203613281e+003
-2.485642880201e-001  4.856385253906e+003
-2.532787322998e-001  4.679387695313e+003
-2.580467462540e-001  4.501882812500e+003
-2.628660500050e-001  4.323778808594e+003
-2.677091658115e-001  4.145846679688e+003
-2.725968062878e-001  3.967193359375e+003
-2.774973213673e-001  3.788808593750e+003
-2.825050950050e-001  3.606995117188e+003
-2.875370085239e-001  3.424389892578e+003
-2.926279902458e-001  3.239479980469e+003
-2.977698445320e-001  3.052520263672e+003
-3.029229640961e-001  2.864748779297e+003
-3.081452548504e-001  2.673975830078e+003
-3.134010434151e-001  2.481673339844e+003
-3.186935484409e-001  2.287518554688e+003
-3.240883052349e-001  2.089061035156e+003
-3.294271230698e-001  1.891953247070e+003
-3.348802030087e-001  1.689878906250e+003
-3.403732478619e-001  1.485755126953e+003
-3.459476232529e-001  1.278073242188e+003
-3.515241146088e-001  1.070032226563e+003
-3.571174740791e-001  8.614904785156e+002
-3.627763092518e-001  6.509768676758e+002
-3.684876859188e-001  4.393192749023e+002
-3.742255270481e-001  2.278738555908e+002
-3.800593912601e-001  1.427937126160e+001
-3.859370350838e-001 -1.994338836670e+002
-3.917924761772e-001 -4.109010620117e+002
-3.977080881596e-001 -6.234457397461e+002
-4.036430418491e-001 -8.355728149414e+002
-4.096436798573e-001 -1.049023193359e+003
-4.157037436962e-001 -1.263484008789e+003
-4.217830598354e-001 -1.477212646484e+003
-4.279039204121e-001 -1.690630981445e+003
-4.340710937977e-001 -1.903702026367e+003
-4.402993023396e-001 -2.116675292969e+003
-4.465471506119e-001 -2.327806396484e+003
-4.528408944607e-001 -2.537474609375e+003
-4.590820372105e-001 -2.742597412109e+003
-4.654592871666e-001 -2.949235351563e+003
-4.718777239323e-001 -3.154252441406e+003
-4.782417416573e-001 -3.354687988281e+003
-4.847415983677e-001 -3.556354492188e+003
-4.912341833115e-001 -3.755064697266e+003
-4.977656602859e-001 -3.952292480469e+003
-5.043144226074e-001 -4.147280273438e+003
-5.108920931816e-001 -4.340432128906e+003
-5.175149440765e-001 -4.532203613281e+003
-5.241611003876e-001 -4.722356445313e+003
-5.308347344398e-001 -4.911019042969e+003
-5.376070141792e-001 -5.100354003906e+003
-5.442914366722e-001 -5.285264648438e+003
-5.510943531990e-001 -5.471506347656e+003
-5.578795671463e-001 -5.655285644531e+003
-5.647446513176e-001 -5.839393554688e+003
-5.715491175652e-001 -6.020004394531e+003
-5.783990621567e-001 -6.199885742188e+003
-5.853503346443e-001 -6.379987304688e+003
-5.922506451607e-001 -6.556397460938e+003
-5.992311239243e-001 -6.732273925781e+003
-6.062221527100e-001 -6.905812500000e+003
-6.132154464722e-001 -7.076930664063e+003
-6.202502250671e-001 -7.246591308594e+003
-6.273012757301e-001 -7.414454589844e+003
-6.343621015549e-001 -7.580588378906e+003
-6.414603590965e-001 -7.745730468750e+003
-6.485812664032e-001 -7.909553710938e+003
-6.557253003120e-001 -8.071986328125e+003
-6.628751158714e-001 -8.232526367188e+003
-6.700344681740e-001 -8.390997070313e+003
-6.772931218147e-001 -8.549058593750e+003
-6.844595074654e-001 -8.702081054688e+003
-6.916690468788e-001 -8.852623046875e+003
-6.989483833313e-001 -9.000938476563e+003
-7.062242627144e-001 -9.145430664063e+003
-7.135236263275e-001 -9.286501953125e+003
-7.207885384560e-001 -9.423095703125e+003
-7.280660271645e-001 -9.556000976563e+003
-7.354453802109e-001 -9.686999023438e+003
-7.428260445595e-001 -9.814498046875e+003
-7.501674890518e-001 -9.938057617188e+003
-7.574725747108e-001 -1.005795703125e+004
-7.648735046387e-001 -1.017648242188e+004
-7.723157405853e-001 -1.029287597656e+004
-7.797273397446e-001 -1.040600976563e+004
-7.871233820915e-001 -1.051613281250e+004
-7.945456504822e-001 -1.062373144531e+004
-8.020097613335e-001 -1.072871582031e+004
-8.094612360001e-001 -1.083045898438e+004
-8.168900012970e-001 -1.092879589844e+004
-8.243910670280e-001 -1.102495410156e+004
-8.318211436272e-001 -1.111704199219e+004
-8.393622636795e-001 -1.120712402344e+004
-8.468024730682e-001 -1.129291796875e+004
-8.543084263802e-001 -1.137653320313e+004
-8.617520928383e-001 -1.145668652344e+004
-8.693156242371e-001 -1.153557226563e+004
-8.768171072006e-001 -1.161128906250e+004
-8.842595815659e-001 -1.168436816406e+004
-8.918024897575e-001 -1.175665234375e+004
-8.992975950241e-001 -1.182705664063e+004
-9.068422913551e-001 -1.189695703125e+004
-9.143427610397e-001 -1.196582910156e+004
-9.218091368675e-001 -1.203417480469e+004
-9.293105006218e-001 -1.210275585938e+004
-9.368396401405e-001 -1.217159570313e+004
-9.443715214729e-001 -1.224037890625e+004
-9.518331289291e-001 -1.230827050781e+004
-9.593234658241e-001 -1.237591992188e+004
-9.668356180191e-001 -1.244293164063e+004
-9.743423461914e-001 -1.250875878906e+004
-9.818238019943e-001 -1.257298144531e+004
-9.892778396606e-001 -1.263523144531e+004
-9.967687726021e-001 -1.269602734375e+004
-1.004243731499e+000 -1.275489355469e+004
-1.011714935303e+000 -1.281203906250e+004
-1.019180774689e+000 -1.286749121094e+004
-1.026631951332e+000 -1.292127050781e+004
-1.034071207047e+000 -1.297361035156e+004
-1.041504383087e+000 -1.302462597656e+004
-1.048903942108e+000 -1.307422265625e+004
-1.056361317635e+000 -1.312297949219e+004
-1.063705682755e+000 -1.316968261719e+004
-1.071154832840e+000 -1.321555273438e+004
-1.078543663025e+000 -1.325941894531e+004
-1.085915565491e+000 -1.330133300781e+004
-1.093322992325e+000 -1.334138769531e+004
-1.100610256195e+000 -1.337850976563e+004
-1.108008623123e+000 -1.341375488281e+004
-1.115299105644e+000 -1.344595117188e+004
-1.122658729553e+000 -1.347570703125e+004
-1.129928708076e+000 -1.350215917969e+004
-1.137270092964e+000 -1.352557324219e+004
-1.144502997398e+000 -1.354529492188e+004
-1.151785016060e+000 -1.356181445313e+004
-1.159010648727e+000 -1.357494140625e+004
-1.166257500648e+000 -1.358493847656e+004
-1.173472046852e+000 -1.359180566406e+004
-1.180668592453e+000 -1.359588671875e+004
-1.187865614891e+000 -1.359757324219e+004
-1.195053935051e+000 -1.359722167969e+004
-1.202156901360e+000 -1.359525097656e+004
-1.209355711937e+000 -1.359192285156e+004
-1.216483712196e+000 -1.358764257813e+004
-1.223528742790e+000 -1.358265917969e+004
-1.230637073517e+000 -1.357699316406e+004
-1.237695217133e+000 -1.357079589844e+004
-1.244752407074e+000 -1.356404882813e+004
-1.251755595207e+000 -1.355683300781e+004
-1.258750915527e+000 -1.354911230469e+004
-1.265725255013e+000 -1.354088867188e+004
-1.272739052773e+000 -1.353208007813e+004
-1.279654026031e+000 -1.352289257813e+004
-1.286552309990e+000 -1.351334960938e+004
-1.293490052223e+000 -1.350356933594e+004
-1.300340652466e+000 -1.349391796875e+004
-1.307166576385e+000 -1.348447070313e+004
-1.314059376717e+000 -1.347523730469e+004
-1.320844173431e+000 -1.346650292969e+004
-1.327638506889e+000 -1.345810449219e+004
-1.334412217140e+000 -1.345001562500e+004
-1.341113924980e+000 -1.344216894531e+004
-1.347897291183e+000 -1.343414550781e+004
-1.354553818703e+000 -1.342583593750e+004
-1.361222028732e+000 -1.341670312500e+004
-1.367877244949e+000 -1.340641406250e+004
-1.374547600746e+000 -1.339458007813e+004
-1.381116986275e+000 -1.338112402344e+004
-1.387687563896e+000 -1.336561035156e+004
-1.394267439842e+000 -1.334785058594e+004
-1.400815606117e+000 -1.332774121094e+004
-1.407309532166e+000 -1.330520800781e+004
-1.413761734962e+000 -1.328004199219e+004
-1.420232295990e+000 -1.325189257813e+004
-1.426674485207e+000 -1.322094042969e+004
-1.433090925217e+000 -1.318703320313e+004
-1.439473509789e+000 -1.315000097656e+004
-1.445884823799e+000 -1.310901757813e+004
-1.452208161354e+000 -1.306449121094e+004
-1.458501577377e+000 -1.301595410156e+004
-1.464832067490e+000 -1.296259765625e+004
-1.471102237701e+000 -1.290507714844e+004
-1.477329730988e+000 -1.284304882813e+004
-1.483551502228e+000 -1.277599316406e+004
-1.489741683006e+000 -1.270436523438e+004
-1.495912432671e+000 -1.262814355469e+004
-1.502064228058e+000 -1.254762304688e+004
-1.508203387260e+000 -1.246287695313e+004
-1.514302611351e+000 -1.237474804688e+004
-1.520403623581e+000 -1.228320117188e+004
-1.526493430138e+000 -1.218886816406e+004
-1.532526612282e+000 -1.209300976563e+004
-1.538571238518e+000 -1.199501953125e+004
-1.544541120529e+000 -1.189689941406e+004
-1.550509095192e+000 -1.179804785156e+004
-1.556500196457e+000 -1.169842285156e+004
-1.562383532524e+000 -1.160054492188e+004
-1.568364381790e+000 -1.150121679688e+004
-1.574216961861e+000 -1.140440527344e+004
-1.580088138580e+000 -1.130766601563e+004
-1.585935711861e+000 -1.121172753906e+004
-1.591811537743e+000 -1.111562597656e+004
-1.597583293915e+000 -1.102142871094e+004
-1.603404641151e+000 -1.092652343750e+004
-1.609194397926e+000 -1.083209472656e+004
-1.614929318428e+000 -1.073861816406e+004
-1.620679616928e+000 -1.064508203125e+004
-1.626401185989e+000 -1.055266699219e+004
-1.632148027420e+000 -1.046093554688e+004
-1.637870430946e+000 -1.037125781250e+004
-1.643481016159e+000 -1.028537011719e+004
-1.649156808853e+000 -1.020092285156e+004
-1.654867291451e+000 -1.011848730469e+004
-1.660496115685e+000 -1.003887207031e+004
-1.666095256805e+000 -9.959232421875e+003
-1.671707153320e+000 -9.875776367188e+003
-1.677319407463e+000 -9.784416015625e+003
-1.682848095894e+000 -9.682897460938e+003
-1.688434481621e+000 -9.567250976563e+003
-1.693965554237e+000 -9.442118164063e+003
-1.699473142624e+000 -9.309348632813e+003
-1.704993247986e+000 -9.169314453125e+003
-1.710427761078e+000 -9.023389648438e+003
-1.715906620026e+000 -8.865425781250e+003
-1.721406817436e+000 -8.694622070313e+003
-1.726809620857e+000 -8.515641601563e+003
-1.732272982597e+000 -8.326063476563e+003
-1.737668633461e+000 -8.133831054688e+003
-1.743104338646e+000 -7.937506835938e+003
-1.748468637466e+000 -7.742189941406e+003
-1.753894329071e+000 -7.543419921875e+003
-1.759289145470e+000 -7.345520019531e+003
-1.764621615410e+000 -7.151997070313e+003
-1.770014762878e+000 -6.961561035156e+003
-1.775399446487e+000 -6.778154296875e+003
-1.780779123306e+000 -6.601926757813e+003
-1.786154985428e+000 -6.432171875000e+003
-1.791528940201e+000 -6.268189941406e+003
-1.796919107437e+000 -6.109923828125e+003
-1.802303433418e+000 -5.958945800781e+003
-1.807652354240e+000 -5.816979492188e+003
-1.813020229340e+000 -5.682874023438e+003
-1.818424820900e+000 -5.555701171875e+003
-1.823872685432e+000 -5.434419433594e+003
-1.829241871834e+000 -5.320157714844e+003
-1.834700345993e+000 -5.208898925781e+003
-1.840069055557e+000 -5.104385253906e+003
-1.845532417297e+000 -5.003498046875e+003
-1.850986599922e+000 -4.908569824219e+003
-1.856434106827e+000 -4.818906250000e+003
-1.861904263496e+000 -4.733069824219e+003
-1.867387175560e+000 -4.649831054688e+003
-1.872892022133e+000 -4.567297851563e+003
-1.878375172615e+000 -4.484114257813e+003
-1.883853793144e+000 -4.398374023438e+003
-1.889412522316e+000 -4.307346679688e+003
-1.894885182381e+000 -4.212763183594e+003
-1.900447249413e+000 -4.110869628906e+003
-1.906013131142e+000 -4.002371337891e+003
-1.911533832550e+000 -3.888457763672e+003
-1.917071580887e+000 -3.767998535156e+003
-1.922649025917e+000 -3.640200683594e+003
-1.928229570389e+000 -3.505784912109e+003
-1.933811306953e+000 -3.364586914063e+003
-1.939397215843e+000 -3.218015625000e+003
-1.944986462593e+000 -3.067714599609e+003
-1.950578093529e+000 -2.915985351563e+003
-1.956171631813e+000 -2.764940185547e+003
-1.961766839027e+000 -2.617204101563e+003
-1.967362403870e+000 -2.474726074219e+003
-1.972957134247e+000 -2.339758056641e+003
-1.978564739227e+000 -2.214006103516e+003
-1.984223961830e+000 -2.098650878906e+003
-1.989807367325e+000 -1.997657958984e+003
-1.995385050774e+000 -1.908907226563e+003
-2.000955104828e+000 -1.831945556641e+003
-2.006532430649e+000 -1.766473999023e+003
-2.012153625488e+000 -1.712514892578e+003
-2.017693519592e+000 -1.672585083008e+003
-2.023222923279e+000 -1.646368652344e+003
-2.028827667236e+000 -1.635856323242e+003
-2.034335136414e+000 -1.644240478516e+003
-2.039830923080e+000 -1.674267089844e+003
-2.045396327972e+000 -1.730169677734e+003
-2.050857067108e+000 -1.808619262695e+003
-2.056377887726e+000 -1.909952026367e+003
-2.061800479889e+000 -2.029009887695e+003
-2.067234754562e+000 -2.165906494141e+003
-2.072619199753e+000 -2.317862792969e+003
-2.077894210815e+000 -2.479486572266e+003
-2.083166360855e+000 -2.651387451172e+003
-2.088356733322e+000 -2.829885009766e+003
-2.093385696411e+000 -3.013108398438e+003
-2.098370552063e+000 -3.208790039063e+003
-2.103234767914e+000 -3.414479736328e+003
-2.107970476151e+000 -3.626345458984e+003
-2.112520217896e+000 -3.833970947266e+003
-2.116932153702e+000 -4.029958984375e+003
-2.121187686920e+000 -4.204952148438e+003
-2.125249862671e+000 -4.356552734375e+003
-2.129141569138e+000 -4.489923339844e+003
-2.132886409760e+000 -4.612285644531e+003
-2.136410474777e+000 -4.725746582031e+003
-2.139759302139e+000 -4.829123535156e+003
-2.142902135849e+000 -4.911711425781e+003
-2.145896196365e+000 -4.964138671875e+003
-2.148713827133e+000 -4.978874023438e+003
-2.151390314102e+000 -4.955688964844e+003
-2.153866767883e+000 -4.899596679688e+003
-2.156246423721e+000 -4.817078613281e+003
-2.158506393433e+000 -4.714066406250e+003
-2.160665750504e+000 -4.595355468750e+003
-2.162745237350e+000 -4.468219726563e+003
-2.164760828018e+000 -4.344828613281e+003
-2.166757822037e+000 -4.238602050781e+003
-2.168725967407e+000 -4.163177246094e+003
-2.170684576035e+000 -4.125455078125e+003
-2.172668933868e+000 -4.128059082031e+003
-2.174672126770e+000 -4.172381347656e+003
-2.176721334457e+000 -4.254725097656e+003
-2.178791284561e+000 -4.371803710938e+003
-2.180879592896e+000 -4.521315917969e+003
-2.183032512665e+000 -4.704895019531e+003
-2.185211658478e+000 -4.917285156250e+003
-2.187393903732e+000 -5.149721679688e+003
-2.189631700516e+000 -5.402573242188e+003
-2.191876173019e+000 -5.667254394531e+003
-2.194145441055e+000 -5.944438476563e+003
-2.196429729462e+000 -6.232642578125e+003
-2.198740005493e+000 -6.530769531250e+003
-2.201031208038e+000 -6.830229492188e+003
-2.203331232071e+000 -7.131893066406e+003
-2.205660343170e+000 -7.437327636719e+003
-2.207956552505e+000 -7.739479980469e+003
-2.210255622864e+000 -8.044976074219e+003
-2.212554693222e+000 -8.354707031250e+003
-2.214857578278e+000 -8.668280273438e+003
-2.217137575150e+000 -8.979414062500e+003
-2.219454765320e+000 -9.291888671875e+003
-2.221732378006e+000 -9.591557617188e+003
-2.224004030228e+000 -9.879623046875e+003
-2.226268529892e+000 -1.015354003906e+004
-2.228524684906e+000 -1.041096289063e+004
-2.230769395828e+000 -1.064945800781e+004
-2.233001232147e+000 -1.086896191406e+004
-2.235219240189e+000 -1.107056542969e+004
-2.237421274185e+000 -1.125676367188e+004
-2.239605665207e+000 -1.143097070313e+004
-2.241770982742e+000 -1.159662011719e+004
-2.243911027908e+000 -1.175684960938e+004
-2.246019840240e+000 -1.191348046875e+004
-2.248131513596e+000 -1.207009765625e+004
-2.250206708908e+000 -1.222460449219e+004
-2.252276182175e+000 -1.237947851563e+004
-2.254292249680e+000 -1.253123242188e+004
-2.256303787231e+000 -1.268277539063e+004
-2.258282661438e+000 -1.283108789063e+004
-2.260238647461e+000 -1.297586230469e+004
-2.262166261673e+000 -1.311604687500e+004
-2.264046907425e+000 -1.325072656250e+004
-2.265927553177e+000 -1.338428613281e+004
-2.267760515213e+000 -1.351485937500e+004
-2.269577741623e+000 -1.364599414063e+004
-2.271344423294e+000 -1.377599316406e+004
-2.273080110550e+000 -1.390666796875e+004
-2.274784326553e+000 -1.403825585938e+004
-2.276456832886e+000 -1.417142871094e+004
-2.278095245361e+000 -1.430756640625e+004
-2.279697895050e+000 -1.444873339844e+004
-2.281265735626e+000 -1.459658300781e+004
-2.282786369324e+000 -1.475047851563e+004
-2.284275293350e+000 -1.491162304688e+004
-2.285715579987e+000 -1.507852343750e+004
-2.287107467651e+000 -1.524976269531e+004
-2.288470745087e+000 -1.542685449219e+004
-2.289790153503e+000 -1.560937597656e+004
-2.291052341461e+000 -1.579444140625e+004
-2.292273283005e+000 -1.598368164063e+004
-2.293449401855e+000 -1.617478710938e+004
-2.294578552246e+000 -1.636805957031e+004
-2.295666694641e+000 -1.656159179688e+004
-2.296694993973e+000 -1.675081445313e+004
-2.297672748566e+000 -1.693721875000e+004
-2.298599004745e+000 -1.711896679688e+004
-2.299473285675e+000 -1.729447656250e+004
-2.300285339355e+000 -1.745991406250e+004
-2.301053524017e+000 -1.761612890625e+004
-2.301764249802e+000 -1.776011328125e+004
-2.302411794662e+000 -1.788896679688e+004
-2.303004026413e+000 -1.800446679688e+004
-2.303541660309e+000 -1.810770117188e+004
-2.304015874863e+000 -1.819781835938e+004
-2.304436445236e+000 -1.827826367188e+004
-2.304790496826e+000 -1.834810937500e+004
-2.305081605911e+000 -1.840983789063e+004
-2.305310726166e+000 -1.846582421875e+004
-2.305477619171e+000 -1.851825976563e+004
-2.305581569672e+000 -1.856829492188e+004
-2.305619239807e+000 -1.861528320313e+004
-2.305592298508e+000 -1.865970898438e+004
-2.305500507355e+000 -1.870224414063e+004
-2.305346012115e+000 -1.874217382813e+004
-2.305129051208e+000 -1.878126367188e+004
-2.304845571518e+000 -1.882051757813e+004
-2.304498672485e+000 -1.886045898438e+004
-2.304090738297e+000 -1.890067578125e+004
-2.303616523743e+000 -1.894156835938e+004
-2.303082466125e+000 -1.898246484375e+004
-2.302471399307e+000 -1.902555078125e+004
-2.301797628403e+000 -1.907057617188e+004
-2.301059961319e+000 -1.911843945313e+004
-2.300251722336e+000 -1.916917773438e+004
-2.299379348755e+000 -1.922138476563e+004
-2.298431873322e+000 -1.927531835938e+004
-2.297426700592e+000 -1.933013085938e+004
-2.296348810196e+000 -1.938653710938e+004
-2.295202016830e+000 -1.944454687500e+004
-2.293988227844e+000 -1.950277929688e+004
-2.292711257935e+000 -1.955852929688e+004
-2.291352510452e+000 -1.961009570313e+004
-2.289927482605e+000 -1.965603125000e+004
-2.288429737091e+000 -1.969640234375e+004
-2.286857604980e+000 -1.973165625000e+004
-2.285226106644e+000 -1.976254296875e+004
-2.283525466919e+000 -1.978928710938e+004
-2.281743049622e+000 -1.981255664063e+004
-2.279898881912e+000 -1.983232031250e+004
-2.277979373932e+000 -1.984952539063e+004
-2.275970458984e+000 -1.986528125000e+004
-2.273918867111e+000 -1.988045703125e+004
-2.271766185760e+000 -1.989571289063e+004
-2.269573688507e+000 -1.991024609375e+004
-2.267283439636e+000 -1.992360156250e+004
-2.264915227890e+000 -1.993501367188e+004
-2.262490987778e+000 -1.994416406250e+004
-2.260012149811e+000 -1.995103906250e+004
-2.257448911667e+000 -1.995523046875e+004
-2.254788637161e+000 -1.995543359375e+004
-2.252079248428e+000 -1.994977148438e+004
-2.249292135239e+000 -1.993619335938e+004
-2.246443986893e+000 -1.991417187500e+004
-2.243523359299e+000 -1.988333398438e+004
-2.240525960922e+000 -1.984395703125e+004
-2.237454414368e+000 -1.979642187500e+004
-2.234300851822e+000 -1.974067578125e+004
-2.231096744537e+000 -1.967782421875e+004
-2.227813959122e+000 -1.960716406250e+004
-2.224469184875e+000 -1.953029101563e+004
-2.221041679382e+000 -1.944824218750e+004
-2.217534065247e+000 -1.936243554688e+004
-2.213990449905e+000 -1.927603320313e+004
-2.210372686386e+000 -1.918830859375e+004
-2.206654310226e+000 -1.909966210938e+004
-2.202886104584e+000 -1.901057617188e+004
-2.199060916901e+000 -1.892208789063e+004
-2.195176601410e+000 -1.883343359375e+004
-2.191197156906e+000 -1.874489648438e+004
-2.187154769897e+000 -1.865709375000e+004
-2.183068037033e+000 -1.857044140625e+004
-2.178915023804e+000 -1.848532226563e+004
-2.174702644348e+000 -1.840150390625e+004
-2.170412063599e+000 -1.831981835938e+004
-2.166044950485e+000 -1.824080468750e+004
-2.161677837372e+000 -1.816650781250e+004
-2.157208919525e+000 -1.809441015625e+004
-2.152670145035e+000 -1.802485546875e+004
-2.148051261902e+000 -1.795668750000e+004
-2.143455982208e+000 -1.789067382813e+004
-2.138702392578e+000 -1.782513085938e+004
-2.133954524994e+000 -1.776303515625e+004
-2.129150390625e+000 -1.770278906250e+004
-2.124267578125e+000 -1.764384375000e+004
-2.119297742844e+000 -1.758428320313e+004
-2.114332199097e+000 -1.752385351563e+004
-2.109237670898e+000 -1.746024609375e+004
-2.104154109955e+000 -1.739503320313e+004
-2.098945379257e+000 -1.732627343750e+004
-2.093759536743e+000 -1.725587304688e+004
-2.088463068008e+000 -1.718085742188e+004
-2.083141326904e+000 -1.710017578125e+004
-2.077736616135e+000 -1.701174218750e+004
-2.072279691696e+000 -1.691481640625e+004
-2.066784143448e+000 -1.680891406250e+004
-2.061241865158e+000 -1.669418945313e+004
-2.055649042130e+000 -1.656944921875e+004
-2.050027847290e+000 -1.643526562500e+004
-2.044331550598e+000 -1.628839648438e+004
-2.038566589355e+000 -1.612986914063e+004
-2.032770395279e+000 -1.595957812500e+004
-2.026920795441e+000 -1.577652929688e+004
-2.021074056625e+000 -1.558675781250e+004
-2.015156269073e+000 -1.538715234375e+004
-2.009144067764e+000 -1.518091308594e+004
-2.003178119659e+000 -1.497293945313e+004
-1.997108221054e+000 -1.476041699219e+004
-1.991016268730e+000 -1.454651269531e+004
-1.984889507294e+000 -1.433311328125e+004
-1.978748917580e+000 -1.412312402344e+004
-1.972500681877e+000 -1.391514941406e+004
-1.966303348541e+000 -1.371347949219e+004
-1.960023164749e+000 -1.351639941406e+004
-1.953690052032e+000 -1.332423828125e+004
-1.947354197502e+000 -1.314019921875e+004
-1.940985918045e+000 -1.296457714844e+004
-1.934583663940e+000 -1.279741210938e+004
-1.928163647652e+000 -1.263708398438e+004
-1.921712875366e+000 -1.248252636719e+004
-1.915235877037e+000 -1.233138378906e+004
-1.908653020859e+000 -1.218068457031e+004
-1.902175188065e+000 -1.203634277344e+004
-1.895621776581e+000 -1.189207812500e+004
-1.889006376266e+000 -1.174706152344e+004
-1.882446050644e+000 -1.160117480469e+004
-1.875837802887e+000 -1.145003613281e+004
-1.869108319283e+000 -1.128764453125e+004
-1.862496972084e+000 -1.112055957031e+004
-1.855818867683e+000 -1.094463769531e+004
-1.849154114723e+000 -1.076246191406e+004
-1.842360496521e+000 -1.057128808594e+004
-1.835646390915e+000 -1.037664160156e+004
-1.828935265541e+000 -1.017582226563e+004
-1.822198748589e+000 -9.968458984375e+003
-1.815352916718e+000 -9.752491210938e+003
-1.808618903160e+000 -9.534557617188e+003
-1.801772952080e+000 -9.304031250000e+003
-1.795023798943e+000 -9.067853515625e+003
-1.788168787956e+000 -8.813805664063e+003
-1.781320691109e+000 -8.544618164063e+003
-1.774516582489e+000 -8.258535156250e+003
-1.767716407776e+000 -7.951405273438e+003
-1.760855078697e+000 -7.622653320313e+003
-1.753970623016e+000 -7.272338378906e+003
-1.747141957283e+000 -6.909287597656e+003
-1.740354061127e+000 -6.532165527344e+003
-1.733456134796e+000 -6.139292480469e+003
-1.726675510406e+000 -5.751575195313e+003
-1.719828724861e+000 -5.359939453125e+003
-1.712966322899e+000 -4.972646972656e+003
-1.706212997437e+000 -4.600136718750e+003
-1.699365973473e+000 -4.231141601563e+003
-1.692603826523e+000 -3.879591796875e+003
-1.685844182968e+000 -3.539993164063e+003
-1.679093241692e+000 -3.216600585938e+003
-1.672327876091e+000 -2.907616210938e+003
-1.665586829185e+000 -2.615867919922e+003
-1.658881545067e+000 -2.336673095703e+003
-1.652193903923e+000 -2.067100830078e+003
-1.645533800125e+000 -1.805122558594e+003
-1.638845562935e+000 -1.548078247070e+003
-1.632237315178e+000 -1.295784545898e+003
-1.625661015511e+000 -1.047555908203e+003
-1.619018673897e+000 -7.964376220703e+002
-1.612506151199e+000 -5.509249877930e+002
-1.605895996094e+000 -2.988665466309e+002
-1.599385499954e+000 -5.059670257568e+001
-1.592950463295e+000  1.992193908691e+002
-1.586436986923e+000  4.567578735352e+002
-1.580030918121e+000  7.168993530273e+002
-1.573575258255e+000  9.877643432617e+002
-1.567210674286e+000  1.262687133789e+003
-1.560894966125e+000  1.547096679688e+003
-1.554535865784e+000  1.842534545898e+003
-1.548284769058e+000  2.147200195313e+003
-1.542022705078e+000  2.467955322266e+003
-1.535868763924e+000  2.807702880859e+003
-1.529675483704e+000  3.173688232422e+003
-1.523560762405e+000  3.563563476563e+003
-1.517435193062e+000  3.982569580078e+003
-1.511377453804e+000  4.424017089844e+003
-1.505420804024e+000  4.883250976563e+003
-1.499420285225e+000  5.362057128906e+003
-1.493511915207e+000  5.846327636719e+003
-1.487633466721e+000  6.329018066406e+003
-1.481829285622e+000  6.796784667969e+003
-1.476057410240e+000  7.242316406250e+003
-1.470290422440e+000  7.655298828125e+003
-1.464647531509e+000  8.024539550781e+003
-1.458968639374e+000  8.355748046875e+003
-1.453421831131e+000  8.636740234375e+003
-1.447852134705e+000  8.877494140625e+003
-1.442395925522e+000  9.073644531250e+003
-1.436967968941e+000  9.236675781250e+003
-1.431604146957e+000  9.373057617188e+003
-1.426269412041e+000  9.491760742188e+003
-1.420990467072e+000  9.600612304688e+003
-1.415767192841e+000  9.704971679688e+003
-1.410601735115e+000  9.809232421875e+003
-1.405485153198e+000  9.915221679688e+003
-1.400428891182e+000  1.002381542969e+004
-1.395461797714e+000  1.013650195313e+004
-1.390525698662e+000  1.025341210938e+004
-1.385627746582e+000  1.037425195313e+004
-1.380821466446e+000  1.049573535156e+004
-1.376069903374e+000  1.061836132813e+004
-1.371384739876e+000  1.074115332031e+004
-1.366705179214e+000  1.086683886719e+004
-1.362145304680e+000  1.099368750000e+004
-1.357592701912e+000  1.112643945313e+004
-1.353128790855e+000  1.126306445313e+004
-1.348738193512e+000  1.140428515625e+004
-1.344361066818e+000  1.155143457031e+004
-1.340100288391e+000  1.169928710938e+004
-1.335837602615e+000  1.185140722656e+004
-1.331644892693e+000  1.200229199219e+004
-1.327566027641e+000  1.214610742188e+004
-1.323496937752e+000  1.228051074219e+004
-1.319485664368e+000  1.239548730469e+004
-1.315593957901e+000  1.248151562500e+004
-1.311702609062e+000  1.253348925781e+004
-1.307872891426e+000  1.254145214844e+004
-1.304102301598e+000  1.250203417969e+004
-1.300444245338e+000  1.241754394531e+004
-1.296790003777e+000  1.228817968750e+004
-1.293195486069e+000  1.212066894531e+004
-1.289699912071e+000  1.192522753906e+004
-1.286229491234e+000  1.170597265625e+004
-1.282825112343e+000  1.147523339844e+004
-1.279475927353e+000  1.124104101563e+004
-1.276226401329e+000  1.101372949219e+004
-1.272988438606e+000  1.079370703125e+004
-1.269809842110e+000  1.058675488281e+004
-1.266688823700e+000  1.039256738281e+004
-1.263626456261e+000  1.020819140625e+004
-1.260622024536e+000  1.002836230469e+004
-1.257636785507e+000  9.844053710938e+003
-1.254746317863e+000  9.652470703125e+003
-1.251896500587e+000  9.442259765625e+003
-1.249089241028e+000  9.210615234375e+003
-1.246337056160e+000  8.956100585938e+003
-1.243634462357e+000  8.676684570313e+003
-1.240954875946e+000  8.374666015625e+003
-1.238362431526e+000  8.059887207031e+003
-1.235778927803e+000  7.727803222656e+003
-1.233243703842e+000  7.385925292969e+003
-1.230758905411e+000  7.036386718750e+003
-1.228319644928e+000  6.685103027344e+003
-1.225924849510e+000  6.330281738281e+003
-1.223572015762e+000  5.973029296875e+003
-1.221256017685e+000  5.613020019531e+003
-1.218954205513e+000  5.244549316406e+003
-1.216726779938e+000  4.873258300781e+003
-1.214504122734e+000  4.485307128906e+003
-1.212320923805e+000  4.088023925781e+003
-1.210174679756e+000  3.679970703125e+003
-1.208068966866e+000  3.264490722656e+003
-1.205968141556e+000  2.837368652344e+003
-1.203918099403e+000  2.410752685547e+003
-1.201897621155e+000  1.987629394531e+003
-1.199860572815e+000  1.560727416992e+003
-1.197884917259e+000  1.154760742188e+003
-1.195931077003e+000  7.651991577148e+002
-1.193979024887e+000  3.889816589355e+002
-1.192042827606e+000  2.775375366211e+001
-1.190138697624e+000 -3.209428710938e+002
-1.188251495361e+000 -6.606237182617e+002
-1.186371803284e+000 -9.984640502930e+002
-1.184500694275e+000 -1.336735839844e+003
-1.182638049126e+000 -1.679822143555e+003
-1.180779933929e+000 -2.034817260742e+003
-1.178925871849e+000 -2.405101806641e+003
-1.177103757858e+000 -2.787295410156e+003
-1.175252556801e+000 -3.193396240234e+003
-1.173430442810e+000 -3.608352539063e+003
-1.171581506729e+000 -4.037068359375e+003
-1.169750809669e+000 -4.460945800781e+003
-1.167911171913e+000 -4.882313964844e+003
-1.166068434715e+000 -5.290840332031e+003
-1.164219021797e+000 -5.684562011719e+003
-1.162361025810e+000 -6.061005859375e+003
-1.160523772240e+000 -6.408658203125e+003
-1.158646345139e+000 -6.742359375000e+003
-1.156770944595e+000 -7.055635253906e+003
-1.154884457588e+000 -7.355511718750e+003
-1.152967929840e+000 -7.649326660156e+003
-1.151066303253e+000 -7.934418457031e+003
-1.149145841599e+000 -8.216651367188e+003
-1.147178530693e+000 -8.502680664063e+003
-1.145218491554e+000 -8.785806640625e+003
-1.143235802650e+000 -9.070127929688e+003
-1.141252279282e+000 -9.352940429688e+003
-1.139218091965e+000 -9.639735351563e+003
-1.137161016464e+000 -9.925285156250e+003
-1.135095596313e+000 -1.020272949219e+004
-1.133005976677e+000 -1.047368066406e+004
-1.130864262581e+000 -1.073858789063e+004
-1.128722786903e+000 -1.099290039063e+004
-1.126534342766e+000 -1.124362500000e+004
-1.124320268631e+000 -1.148712109375e+004
-1.122070908546e+000 -1.172408203125e+004
-1.119789361954e+000 -1.195537695313e+004
-1.117474317551e+000 -1.218037402344e+004
-1.115122795105e+000 -1.240086328125e+004
-1.112734913826e+000 -1.261854980469e+004
-1.110306501389e+000 -1.283423925781e+004
-1.107835888863e+000 -1.304677636719e+004
-1.105328679085e+000 -1.325630566406e+004
-1.102797508240e+000 -1.345936718750e+004
-1.100193977356e+000 -1.365862890625e+004
-1.097585320473e+000 -1.384797070313e+004
-1.094930410385e+000 -1.402748339844e+004
-1.092186212540e+000 -1.419667089844e+004
-1.089435338974e+000 -1.435066308594e+004
-1.086635589600e+000 -1.449026464844e+004
-1.083786487579e+000 -1.461569824219e+004
-1.080887794495e+000 -1.472837304688e+004
-1.077937245369e+000 -1.483038378906e+004
-1.074936389923e+000 -1.492446875000e+004
-1.071900129318e+000 -1.501262988281e+004
-1.068826436996e+000 -1.509657421875e+004
-1.065667390823e+000 -1.517985839844e+004
-1.062488675117e+000 -1.526317578125e+004
-1.059233427048e+000 -1.534844726563e+004
-1.055929183960e+000 -1.543541015625e+004
-1.052585959435e+000 -1.552182812500e+004
-1.049204111099e+000 -1.560591308594e+004
-1.045760750771e+000 -1.568739648438e+004
-1.042235970497e+000 -1.576639062500e+004
-1.038700222969e+000 -1.584211328125e+004
-1.035110592842e+000 -1.591618164063e+004
-1.031465172768e+000 -1.598872070313e+004
-1.027754545212e+000 -1.605932910156e+004
-1.023987650871e+000 -1.612815820313e+004
-1.020198583603e+000 -1.619493945313e+004
-1.016342520714e+000 -1.626181152344e+004
-1.012413024902e+000 -1.632853027344e+004
-1.008442401886e+000 -1.639537304688e+004
-1.004426002502e+000 -1.646070898438e+004
-1.000352263451e+000 -1.652470117188e+004
-9.962218999863e-001 -1.658691992188e+004
-9.920312166214e-001 -1.664840234375e+004
-9.877853393555e-001 -1.670937500000e+004
-9.835151433945e-001 -1.677026953125e+004
-9.791278243065e-001 -1.683152343750e+004
-9.747435450554e-001 -1.689021289063e+004
-9.702463150024e-001 -1.694691406250e+004
-9.657501578331e-001 -1.699970312500e+004
-9.611361026764e-001 -1.704993554688e+004
-9.565082788467e-001 -1.709644140625e+004
-9.518025517464e-001 -1.713898828125e+004
-9.470374584198e-001 -1.717556250000e+004
-9.422077536583e-001 -1.720394531250e+004
-9.373170137405e-001 -1.722301953125e+004
-9.323648810387e-001 -1.723303125000e+004
-9.273671507835e-001 -1.723484960938e+004
-9.223570227623e-001 -1.722954882813e+004
-9.172267317772e-001 -1.721718750000e+004
-9.120380282402e-001 -1.719826562500e+004
-9.067926406860e-001 -1.717266210938e+004
-9.014876484871e-001 -1.714075390625e+004
-8.961250185966e-001 -1.710340429688e+004
-8.907414674759e-001 -1.706228125000e+004
-8.852795362473e-001 -1.701775390625e+004
-8.797644376755e-001 -1.697112890625e+004
-8.742472529411e-001 -1.692361328125e+004
-8.685933351517e-001 -1.687491406250e+004
-8.628795742989e-001 -1.682735351563e+004
-8.571607470512e-001 -1.678281054688e+004
-8.513689041138e-001 -1.674143750000e+004
-8.455676436424e-001 -1.670388867188e+004
-8.396559953690e-001 -1.666903710938e+004
-8.337222933769e-001 -1.663699414063e+004
-8.276755213737e-001 -1.660630859375e+004
-8.216481208801e-001 -1.657731054688e+004
-8.155697584152e-001 -1.654976367188e+004
-8.093466162682e-001 -1.652297656250e+004
-8.031621575356e-001 -1.649752343750e+004
-7.969291210175e-001 -1.647278125000e+004
-7.905910611153e-001 -1.644786523438e+004
-7.842300534248e-001 -1.642285156250e+004
-7.778770923615e-001 -1.639767187500e+004
-7.713932991028e-001 -1.637192382813e+004
-7.648525834084e-001 -1.634670605469e+004
-7.583352923393e-001 -1.632303027344e+004
-7.517681717873e-001 -1.630161914063e+004
-7.450754642487e-001 -1.628273046875e+004
-7.383396625519e-001 -1.626629003906e+004
-7.316652536392e-001 -1.625118164063e+004
-7.248826622963e-001 -1.623571679688e+004
-7.180227041245e-001 -1.621873437500e+004
-7.111127972603e-001 -1.619959277344e+004
-7.042362093925e-001 -1.617772070313e+004
-6.972465515137e-001 -1.615149707031e+004
-6.901884078979e-001 -1.611904296875e+004
-6.831022500992e-001 -1.607829003906e+004
-6.760374307632e-001 -1.602749511719e+004
-6.688330769539e-001 -1.596446386719e+004
-6.616581082344e-001 -1.589158007813e+004
-6.544191241264e-001 -1.580913085938e+004
-6.470963358879e-001 -1.571886328125e+004
-6.397671699524e-001 -1.562342187500e+004
-6.324329972267e-001 -1.552403906250e+004
-6.250719428062e-001 -1.542354003906e+004
-6.176774501801e-001 -1.532286523438e+004
-6.102554202080e-001 -1.522441796875e+004
-6.026868224144e-001 -1.512828710938e+004
-5.951752066612e-001 -1.503666699219e+004
-5.876077413559e-001 -1.494728417969e+004
-5.799649357796e-001 -1.485736035156e+004
-5.721371769905e-001 -1.476444824219e+004
-5.642584562302e-001 -1.466823925781e+004
-5.562492609024e-001 -1.456595800781e+004
-5.480427145958e-001 -1.445757031250e+004
-5.397009849548e-001 -1.434365039063e+004
-5.312129259109e-001 -1.422477246094e+004
-5.226095318794e-001 -1.410320703125e+004
-5.140326619148e-001 -1.398026757813e+004
-5.056865811348e-001 -1.386070214844e+004
-4.976525306702e-001 -1.374563574219e+004
-4.902298152447e-001 -1.363946093750e+004
-4.837249219418e-001 -1.354738671875e+004
-4.784519970417e-001 -1.347375585938e+004
-4.745898842812e-001 -1.342086230469e+004
-4.721928834915e-001 -1.338826464844e+004
-4.711160659790e-001 -1.337380664063e+004
-4.709059298038e-001 -1.337100781250e+004
endcurve
