Curveplot
LS-DYNA keyword deck by LS-PrePost
Abscissa
Ordinate
XY data
NBDLHeadxCoo-1 #pts=2000
* Minval=     3.8422401428e+01 at time=         0.0000000000
* Maxval=     2.1423699951e+02 at time=       140.7988586426
    0.0000000000e+00    3.8422401428e+01
    9.7774229944e-02    3.8422401428e+01
    1.9887067378e-01    3.8422401428e+01
    2.9996713996e-01    3.8422401428e+01
    3.9809015393e-01    3.8422401428e+01
    4.9918657541e-01    3.8422401428e+01
    5.9730958939e-01    3.8422401428e+01
    6.9735962152e-01    3.8422401428e+01
    7.9837757349e-01    3.8422401428e+01
    8.9939546585e-01    3.8422401428e+01
    9.9752718210e-01    3.8422401428e+01
    1.0985450745e+00    3.8422500610e+01
    1.1973577738e+00    3.8422500610e+01
    1.2976021767e+00    3.8422500610e+01
    1.3985562325e+00    3.8422500610e+01
    1.4998034239e+00    3.8422599792e+01
    1.5970784426e+00    3.8422599792e+01
    1.6999474764e+00    3.8422599792e+01
    1.7995736599e+00    3.8422698975e+01
    1.8976689577e+00    3.8422698975e+01
    1.9982663393e+00    3.8422698975e+01
    2.0977218151e+00    3.8422798157e+01
    2.1982555389e+00    3.8422798157e+01
    2.2992174625e+00    3.8422897339e+01
    2.3999137878e+00    3.8423000336e+01
    2.4996232986e+00    3.8423000336e+01
    2.5974295139e+00    3.8423099518e+01
    2.6971468925e+00    3.8423099518e+01
    2.7976648808e+00    3.8423202515e+01
    2.8972232342e+00    3.8423301697e+01
    2.9971070290e+00    3.8423400879e+01
    3.0975494385e+00    3.8423400879e+01
    3.1983485222e+00    3.8423500061e+01
    3.2987871170e+00    3.8423599243e+01
    3.3987741470e+00    3.8423698425e+01
    3.4986736774e+00    3.8423797607e+01
    3.5992074013e+00    3.8423900604e+01
    3.6994559765e+00    3.8423999786e+01
    3.7992565632e+00    3.8424098969e+01
    3.8998773098e+00    3.8424201965e+01
    3.9992969036e+00    3.8424301147e+01
    4.0997276306e+00    3.8424400330e+01
    4.1997189522e+00    3.8424499512e+01
    4.2974495888e+00    3.8424598694e+01
    4.3983325958e+00    3.8424797058e+01
    4.4978756905e+00    3.8424900055e+01
    4.5976843834e+00    3.8424999237e+01
    4.6983013153e+00    3.8425201416e+01
    4.7985615730e+00    3.8425300598e+01
    4.8984656334e+00    3.8425399780e+01
    4.9972949028e+00    3.8425598145e+01
    5.0975437164e+00    3.8425697327e+01
    5.1982598305e+00    3.8425899506e+01
    5.2988653183e+00    3.8426002502e+01
    5.3997516632e+00    3.8426200867e+01
    5.4978318214e+00    3.8426399231e+01
    5.5974507332e+00    3.8426498413e+01
    5.6970014572e+00    3.8426700592e+01
    5.7985100746e+00    3.8426898956e+01
    5.8980960846e+00    3.8427001953e+01
    5.9979963303e+00    3.8427200317e+01
    6.0981459618e+00    3.8427398682e+01
    6.1971101761e+00    3.8427597046e+01
    6.2972874641e+00    3.8427799225e+01
    6.3970923424e+00    3.8428001404e+01
    6.4988594055e+00    3.8428199768e+01
    6.5984978676e+00    3.8428398132e+01
    6.6988377571e+00    3.8428600311e+01
    6.7997169495e+00    3.8428802490e+01
    6.8996133804e+00    3.8429000854e+01
    6.9974393845e+00    3.8429199219e+01
    7.0985956192e+00    3.8429500580e+01
    7.1995615959e+00    3.8429698944e+01
    7.2975544930e+00    3.8429901123e+01
    7.3987822533e+00    3.8430198669e+01
    7.4984917641e+00    3.8430397034e+01
    7.5995569229e+00    3.8430599213e+01
    7.6972684860e+00    3.8430900574e+01
    7.7984328270e+00    3.8431098938e+01
    7.8996648788e+00    3.8431400299e+01
    7.9988594055e+00    3.8431602478e+01
    8.0990247726e+00    3.8431900024e+01
    8.1987314224e+00    3.8432197571e+01
    8.2990627289e+00    3.8432399750e+01
    8.3993949890e+00    3.8432701111e+01
    8.4992198944e+00    3.8432998657e+01
    8.5971298218e+00    3.8433300018e+01
    8.6984491348e+00    3.8433601379e+01
    8.7975530624e+00    3.8433898926e+01
    8.8981704712e+00    3.8434200287e+01
    8.9983196259e+00    3.8434501648e+01
    9.0987472534e+00    3.8434799194e+01
    9.1989164352e+00    3.8435100555e+01
    9.2993431091e+00    3.8435401917e+01
    9.3991565704e+00    3.8435699463e+01
    9.4997739792e+00    3.8436000824e+01
    9.5985755920e+00    3.8436302185e+01
    9.6981945038e+00    3.8436698914e+01
    9.7985420227e+00    3.8436901093e+01
    9.8983631134e+00    3.8437301636e+01
    9.9988651276e+00    3.8437599182e+01
    1.0099212646e+01    3.8437900543e+01
    1.0197134018e+01    3.8438301086e+01
    1.0299838066e+01    3.8438701630e+01
    1.0397847176e+01    3.8438999176e+01
    1.0498732567e+01    3.8439399719e+01
    1.0597978592e+01    3.8439701080e+01
    1.0699520111e+01    3.8440101624e+01
    1.0799407959e+01    3.8440498352e+01
    1.0897944450e+01    3.8440898895e+01
    1.0998533249e+01    3.8441200256e+01
    1.1098258972e+01    3.8441596985e+01
    1.1198416710e+01    3.8442001343e+01
    1.1298942566e+01    3.8442398071e+01
    1.1399298668e+01    3.8442802429e+01
    1.1498490334e+01    3.8443199158e+01
    1.1597192764e+01    3.8443599701e+01
    1.1699962616e+01    3.8444000244e+01
    1.1797156334e+01    3.8444297791e+01
    1.1897417068e+01    3.8444801331e+01
    1.1998304367e+01    3.8445198059e+01
    1.2097395897e+01    3.8445602417e+01
    1.2198640823e+01    3.8446098328e+01
    1.2299342155e+01    3.8446502686e+01
    1.2398877144e+01    3.8446998596e+01
    1.2498333931e+01    3.8447299957e+01
    1.2599221230e+01    3.8447799683e+01
    1.2699581146e+01    3.8448299408e+01
    1.2799928665e+01    3.8448699951e+01
    1.2898457527e+01    3.8449199677e+01
    1.2998710632e+01    3.8449699402e+01
    1.3098583221e+01    3.8450099945e+01
    1.3198753357e+01    3.8450599670e+01
    1.3298300743e+01    3.8451099396e+01
    1.3398728371e+01    3.8451599121e+01
    1.3498803139e+01    3.8452102661e+01
    1.3599234581e+01    3.8452499390e+01
    1.3699924469e+01    3.8452999115e+01
    1.3797295570e+01    3.8453498840e+01
    1.3897105217e+01    3.8453998566e+01
    1.3999971390e+01    3.8454498291e+01
    1.4099424362e+01    3.8455001831e+01
    1.4197765350e+01    3.8455497742e+01
    1.4298200607e+01    3.8456100464e+01
    1.4397653580e+01    3.8456501007e+01
    1.4499993324e+01    3.8457099915e+01
    1.4597634315e+01    3.8457698822e+01
    1.4699314117e+01    3.8458099365e+01
    1.4799654961e+01    3.8458702087e+01
    1.4899817467e+01    3.8459297180e+01
    1.4997909546e+01    3.8459800720e+01
    1.5099325180e+01    3.8460300446e+01
    1.5197458267e+01    3.8460899353e+01
    1.5299068451e+01    3.8461502075e+01
    1.5399312973e+01    3.8462001801e+01
    1.5497216225e+01    3.8462600708e+01
    1.5597476959e+01    3.8463199615e+01
    1.5697291374e+01    3.8463798523e+01
    1.5797904968e+01    3.8464401245e+01
    1.5899407387e+01    3.8464900970e+01
    1.5998689651e+01    3.8465599060e+01
    1.6097135544e+01    3.8466201782e+01
    1.6199287415e+01    3.8466697693e+01
    1.6299188614e+01    3.8467399597e+01
    1.6397367477e+01    3.8467899323e+01
    1.6499973297e+01    3.8468601227e+01
    1.6599948883e+01    3.8469299316e+01
    1.6699844360e+01    3.8469799042e+01
    1.6798013687e+01    3.8470497131e+01
    1.6899730682e+01    3.8471099854e+01
    1.6999797821e+01    3.8471801758e+01
    1.7097778320e+01    3.8472400665e+01
    1.7197860718e+01    3.8473098755e+01
    1.7298749924e+01    3.8473701477e+01
    1.7399368286e+01    3.8474399567e+01
    1.7497079849e+01    3.8474998474e+01
    1.7598138809e+01    3.8475700378e+01
    1.7697952271e+01    3.8476299286e+01
    1.7798040390e+01    3.8477100372e+01
    1.7899185181e+01    3.8477699280e+01
    1.7999269485e+01    3.8478401184e+01
    1.8099531174e+01    3.8479099274e+01
    1.8199512482e+01    3.8479801178e+01
    1.8299509048e+01    3.8480499268e+01
    1.8397333145e+01    3.8481201172e+01
    1.8497678757e+01    3.8481899261e+01
    1.8598911285e+01    3.8482597351e+01
    1.8698020935e+01    3.8483299255e+01
    1.8798988342e+01    3.8484001160e+01
    1.8897609711e+01    3.8484802246e+01
    1.8997335434e+01    3.8485500336e+01
    1.9099502563e+01    3.8486198425e+01
    1.9199680328e+01    3.8486999512e+01
    1.9299308777e+01    3.8487701416e+01
    1.9398488998e+01    3.8488498688e+01
    1.9498830795e+01    3.8489200592e+01
    1.9599967957e+01    3.8489997864e+01
    1.9699968338e+01    3.8490798950e+01
    1.9799774170e+01    3.8491500854e+01
    1.9898561478e+01    3.8492298126e+01
    1.9998006821e+01    3.8493000031e+01
    2.0097909927e+01    3.8493801117e+01
    2.0197984695e+01    3.8494701385e+01
    2.0299757004e+01    3.8495399475e+01
    2.0399036407e+01    3.8496200562e+01
    2.0498842239e+01    3.8497001648e+01
    2.0598476410e+01    3.8497802734e+01
    2.0699451447e+01    3.8498600006e+01
    2.0799358368e+01    3.8499397278e+01
    2.0898725510e+01    3.8500198364e+01
    2.0999879837e+01    3.8501098633e+01
    2.1099702835e+01    3.8501899719e+01
    2.1197246552e+01    3.8502700806e+01
    2.1297140121e+01    3.8503501892e+01
    2.1398124695e+01    3.8504398346e+01
    2.1499856949e+01    3.8505199432e+01
    2.1597660065e+01    3.8506099701e+01
    2.1697998047e+01    3.8506900787e+01
    2.1797891617e+01    3.8507801056e+01
    2.1897977829e+01    3.8508701324e+01
    2.1998954773e+01    3.8509597778e+01
    2.2098857880e+01    3.8510498047e+01
    2.2199903488e+01    3.8511299133e+01
    2.2299976349e+01    3.8512199402e+01
    2.2398822784e+01    3.8513099670e+01
    2.2499986649e+01    3.8513999939e+01
    2.2597629547e+01    3.8514900208e+01
    2.2698154449e+01    3.8515701294e+01
    2.2798070908e+01    3.8516601562e+01
    2.2898607254e+01    3.8517601013e+01
    2.2998601913e+01    3.8518501282e+01
    2.3099384308e+01    3.8519401550e+01
    2.3199913025e+01    3.8520401001e+01
    2.3298526764e+01    3.8521301270e+01
    2.3399412155e+01    3.8522201538e+01
    2.3500011444e+01    3.8523200989e+01
    2.3599649429e+01    3.8524002075e+01
    2.3697288513e+01    3.8525001526e+01
    2.3798719406e+01    3.8526000977e+01
    2.3898635864e+01    3.8526901245e+01
    2.3998994827e+01    3.8527900696e+01
    2.4099424362e+01    3.8528900146e+01
    2.4198606491e+01    3.8529899597e+01
    2.4298774719e+01    3.8530799866e+01
    2.4399400711e+01    3.8531799316e+01
    2.4497579575e+01    3.8532798767e+01
    2.4598457336e+01    3.8533699036e+01
    2.4698364258e+01    3.8534797668e+01
    2.4797805786e+01    3.8535701752e+01
    2.4898162842e+01    3.8536800385e+01
    2.4999204636e+01    3.8537799835e+01
    2.5098224640e+01    3.8538799286e+01
    2.5199741364e+01    3.8539798737e+01
    2.5299100876e+01    3.8540901184e+01
    2.5398551941e+01    3.8541900635e+01
    2.5499259949e+01    3.8542900085e+01
    2.5598728180e+01    3.8543899536e+01
    2.5699075699e+01    3.8544898987e+01
    2.5797075272e+01    3.8545997620e+01
    2.5897247314e+01    3.8547100067e+01
    2.5997865677e+01    3.8548099518e+01
    2.6098743439e+01    3.8549201965e+01
    2.6197759628e+01    3.8550201416e+01
    2.6298385620e+01    3.8551300049e+01
    2.6399257660e+01    3.8552398682e+01
    2.6499885559e+01    3.8553497314e+01
    2.6597259521e+01    3.8554500580e+01
    2.6697349548e+01    3.8555599213e+01
    2.6798320770e+01    3.8556701660e+01
    2.6899984360e+01    3.8557800293e+01
    2.6999006271e+01    3.8558898926e+01
    2.7098913193e+01    3.8560001373e+01
    2.7198314667e+01    3.8561100006e+01
    2.7297523499e+01    3.8562198639e+01
    2.7399696350e+01    3.8563400269e+01
    2.7497264862e+01    3.8564399719e+01
    2.7597333908e+01    3.8565601349e+01
    2.7697666168e+01    3.8566699982e+01
    2.7798023224e+01    3.8567901611e+01
    2.7899927139e+01    3.8569000244e+01
    2.7997737885e+01    3.8570198059e+01
    2.8098268509e+01    3.8571300507e+01
    2.8199047089e+01    3.8572498322e+01
    2.8299396515e+01    3.8573600769e+01
    2.8399759293e+01    3.8574798584e+01
    2.8499393463e+01    3.8575901031e+01
    2.8599752426e+01    3.8577201843e+01
    2.8697570801e+01    3.8578300476e+01
    2.8797384262e+01    3.8579502106e+01
    2.8897560120e+01    3.8580699921e+01
    2.8998804092e+01    3.8581798553e+01
    2.9099510193e+01    3.8583099365e+01
    2.9199073792e+01    3.8584300995e+01
    2.9299697876e+01    3.8585498810e+01
    2.9397155762e+01    3.8586601257e+01
    2.9499769211e+01    3.8587898254e+01
    2.9599752426e+01    3.8589202881e+01
    2.9697933197e+01    3.8590301514e+01
    2.9797920227e+01    3.8591598511e+01
    2.9897996902e+01    3.8592800140e+01
    2.9997987747e+01    3.8593997955e+01
    3.0097536087e+01    3.8595298767e+01
    3.0197713852e+01    3.8596500397e+01
    3.0299455643e+01    3.8597801208e+01
    3.0397907257e+01    3.8598999023e+01
    3.0497547150e+01    3.8600299835e+01
    3.0598360062e+01    3.8601600647e+01
    3.0698431015e+01    3.8602901459e+01
    3.0799045563e+01    3.8604099274e+01
    3.0899120331e+01    3.8605400085e+01
    3.0999109268e+01    3.8606800079e+01
    3.1098394394e+01    3.8608100891e+01
    3.1198831558e+01    3.8609298706e+01
    3.1299533844e+01    3.8610702515e+01
    3.1399974823e+01    3.8612098694e+01
    3.1497892380e+01    3.8613300323e+01
    3.1597263336e+01    3.8614700317e+01
    3.1697612762e+01    3.8615997314e+01
    3.1798326492e+01    3.8617401123e+01
    3.1898849487e+01    3.8618797302e+01
    3.1999725342e+01    3.8620201111e+01
    3.2099281311e+01    3.8621597290e+01
    3.2199722290e+01    3.8622901917e+01
    3.2299976349e+01    3.8624397278e+01
    3.2397701263e+01    3.8625701904e+01
    3.2499694824e+01    3.8627201080e+01
    3.2599685669e+01    3.8628601074e+01
    3.2699230194e+01    3.8630100250e+01
    3.2799129486e+01    3.8631500244e+01
    3.2898288727e+01    3.8632900238e+01
    3.2997222900e+01    3.8634399414e+01
    3.3097923279e+01    3.8635902405e+01
    3.3197925568e+01    3.8637397766e+01
    3.3298103333e+01    3.8638900757e+01
    3.3398273468e+01    3.8640399933e+01
    3.3498962402e+01    3.8641899109e+01
    3.3598884583e+01    3.8643501282e+01
    3.3698692322e+01    3.8645000458e+01
    3.3799720764e+01    3.8646499634e+01
    3.3898803711e+01    3.8648097992e+01
    3.3999515533e+01    3.8649700165e+01
    3.4098892212e+01    3.8651302338e+01
    3.4200027466e+01    3.8652900696e+01
    3.4297492981e+01    3.8654499054e+01
    3.4397930145e+01    3.8656101227e+01
    3.4497936249e+01    3.8657699585e+01
    3.4598480225e+01    3.8659400940e+01
    3.4698749542e+01    3.8660999298e+01
    3.4797714233e+01    3.8662700653e+01
    3.4897541046e+01    3.8664398193e+01
    3.4998081207e+01    3.8666099548e+01
    3.5097980499e+01    3.8667800903e+01
    3.5197711945e+01    3.8669502258e+01
    3.5299133301e+01    3.8671298981e+01
    3.5397956848e+01    3.8673000336e+01
    3.5497760773e+01    3.8674800873e+01
    3.5597831726e+01    3.8676601410e+01
    3.5699012756e+01    3.8678398132e+01
    3.5798740387e+01    3.8680198669e+01
    3.5898738861e+01    3.8681999207e+01
    3.5997951508e+01    3.8683898926e+01
    3.6098720551e+01    3.8685699463e+01
    3.6198905945e+01    3.8687599182e+01
    3.6297443390e+01    3.8689399719e+01
    3.6397529602e+01    3.8691299438e+01
    3.6497600555e+01    3.8693298340e+01
    3.6598064423e+01    3.8695198059e+01
    3.6698406219e+01    3.8697097778e+01
    3.6797962189e+01    3.8699100494e+01
    3.6898586273e+01    3.8701202393e+01
    3.6998855591e+01    3.8703102112e+01
    3.7098861694e+01    3.8705200195e+01
    3.7198665619e+01    3.8707199097e+01
    3.7297664642e+01    3.8709300995e+01
    3.7398128510e+01    3.8711299896e+01
    3.7498378754e+01    3.8713401794e+01
    3.7597949982e+01    3.8715499878e+01
    3.7698150635e+01    3.8717597961e+01
    3.7799476624e+01    3.8719799042e+01
    3.7899124146e+01    3.8721900940e+01
    3.7999851227e+01    3.8724098206e+01
    3.8099597931e+01    3.8726299286e+01
    3.8198528290e+01    3.8728500366e+01
    3.8299686432e+01    3.8730796814e+01
    3.8399326324e+01    3.8733100891e+01
    3.8498683929e+01    3.8735298157e+01
    3.8599304199e+01    3.8737701416e+01
    3.8699401855e+01    3.8739997864e+01
    3.8799640656e+01    3.8742301941e+01
    3.8898136139e+01    3.8744701385e+01
    3.8997238159e+01    3.8747100830e+01
    3.9097328186e+01    3.8749401093e+01
    3.9198394775e+01    3.8751899719e+01
    3.9298133850e+01    3.8754299164e+01
    3.9398956299e+01    3.8756900787e+01
    3.9499137878e+01    3.8759399414e+01
    3.9599067688e+01    3.8761898041e+01
    3.9699054718e+01    3.8764499664e+01
    3.9799148560e+01    3.8766998291e+01
    3.9897239685e+01    3.8769500732e+01
    3.9996997833e+01    3.8772102356e+01
    4.0099140167e+01    3.8774799347e+01
    4.0198623657e+01    3.8777500153e+01
    4.0299057007e+01    3.8780197144e+01
    4.0399166107e+01    3.8782897949e+01
    4.0498184204e+01    3.8785598755e+01
    4.0597995758e+01    3.8788398743e+01
    4.0698005676e+01    3.8791198730e+01
    4.0798896790e+01    3.8794097900e+01
    4.0898895264e+01    3.8796901703e+01
    4.0999259949e+01    3.8799800873e+01
    4.1099010468e+01    3.8802597046e+01
    4.1199375153e+01    3.8805599213e+01
    4.1299556732e+01    3.8808498383e+01
    4.1399208069e+01    3.8811500549e+01
    4.1499572754e+01    3.8814498901e+01
    4.1598419189e+01    3.8817501068e+01
    4.1698883057e+01    3.8820602417e+01
    4.1797073364e+01    3.8823600769e+01
    4.1897785187e+01    3.8826698303e+01
    4.1997337341e+01    3.8829898834e+01
    4.2099243164e+01    3.8833099365e+01
    4.2199798584e+01    3.8836299896e+01
    4.2297088623e+01    3.8839401245e+01
    4.2397289276e+01    3.8842700958e+01
    4.2497936249e+01    3.8846000671e+01
    4.2599384308e+01    3.8849399567e+01
    4.2697986603e+01    3.8852699280e+01
    4.2799755096e+01    3.8856101990e+01
    4.2899341583e+01    3.8859500885e+01
    4.2998802185e+01    3.8862800598e+01
    4.3097576141e+01    3.8866199493e+01
    4.3198127747e+01    3.8869800568e+01
    4.3299472809e+01    3.8873298645e+01
    4.3399036407e+01    3.8876800537e+01
    4.3499328613e+01    3.8880401611e+01
    4.3599880219e+01    3.8883998871e+01
    4.3697441101e+01    3.8887599945e+01
    4.3799186707e+01    3.8891300201e+01
    4.3897544861e+01    3.8895000458e+01
    4.3997020721e+01    3.8898700714e+01
    4.4099628448e+01    3.8902500153e+01
    4.4199562073e+01    3.8906299591e+01
    4.4298675537e+01    3.8910202026e+01
    4.4399295807e+01    3.8914001465e+01
    4.4499858856e+01    3.8917900085e+01
    4.4599426270e+01    3.8921901703e+01
    4.4697174072e+01    3.8925697327e+01
    4.4799373627e+01    3.8929801941e+01
    4.4897964478e+01    3.8933799744e+01
    4.4999767303e+01    3.8937896729e+01
    4.5099246979e+01    3.8941902161e+01
    4.5198837280e+01    3.8946098328e+01
    4.5297199249e+01    3.8950199127e+01
    4.5399829865e+01    3.8954597473e+01
    4.5499408722e+01    3.8958801270e+01
    4.5599777222e+01    3.8963100433e+01
    4.5699012756e+01    3.8967399597e+01
    4.5799728394e+01    3.8971801758e+01
    4.5899471283e+01    3.8976200104e+01
    4.5998435974e+01    3.8980598450e+01
    4.6098964691e+01    3.8985099792e+01
    4.6199058533e+01    3.8989700317e+01
    4.6298091888e+01    3.8994201660e+01
    4.6398212433e+01    3.8998802185e+01
    4.6499191284e+01    3.9003601074e+01
    4.6598594666e+01    3.9008300781e+01
    4.6698253632e+01    3.9013000488e+01
    4.6797554016e+01    3.9017799377e+01
    4.6897407532e+01    3.9022697449e+01
    4.6997325897e+01    3.9027500153e+01
    4.7099693298e+01    3.9032699585e+01
    4.7199783325e+01    3.9037696838e+01
    4.7298984528e+01    3.9042701721e+01
    4.7398403168e+01    3.9047698975e+01
    4.7499271393e+01    3.9052898407e+01
    4.7598396301e+01    3.9058101654e+01
    4.7698066711e+01    3.9063400269e+01
    4.7798549652e+01    3.9068698883e+01
    4.7898582458e+01    3.9074199677e+01
    4.7997695923e+01    3.9079498291e+01
    4.8098598480e+01    3.9085098267e+01
    4.8198284149e+01    3.9090599060e+01
    4.8298824310e+01    3.9096199036e+01
    4.8398574829e+01    3.9101898193e+01
    4.8497966766e+01    3.9107601166e+01
    4.8597885132e+01    3.9113300323e+01
    4.8698070526e+01    3.9119201660e+01
    4.8798377991e+01    3.9125099182e+01
    4.8897491455e+01    3.9131000519e+01
    4.8997341156e+01    3.9137100220e+01
    4.9099723816e+01    3.9143299103e+01
    4.9197387695e+01    3.9149398804e+01
    4.9297573090e+01    3.9155601501e+01
    4.9399761200e+01    3.9162097931e+01
    4.9499591827e+01    3.9168399811e+01
    4.9599601746e+01    3.9174900055e+01
    4.9698467255e+01    3.9181400299e+01
    4.9799221039e+01    3.9188098907e+01
    4.9899307251e+01    3.9194702148e+01
    4.9999092102e+01    3.9201499939e+01
    5.0097957611e+01    3.9208297729e+01
    5.0198963165e+01    3.9215301514e+01
    5.0299087524e+01    3.9222301483e+01
    5.0397781372e+01    3.9229301453e+01
    5.0497108459e+01    3.9236499786e+01
    5.0596954346e+01    3.9243698120e+01
    5.0697322845e+01    3.9251197815e+01
    5.0797542572e+01    3.9258697510e+01
    5.0899581909e+01    3.9266399384e+01
    5.0999725342e+01    3.9273998260e+01
    5.1096939087e+01    3.9281600952e+01
    5.1199054718e+01    3.9289600372e+01
    5.1298107147e+01    3.9297500610e+01
    5.1398780823e+01    3.9305599213e+01
    5.1499359131e+01    3.9313800812e+01
    5.1599132538e+01    3.9321998596e+01
    5.1699546814e+01    3.9330501556e+01
    5.1798412323e+01    3.9338901520e+01
    5.1898971558e+01    3.9347499847e+01
    5.1996898651e+01    3.9355998993e+01
    5.2098228455e+01    3.9364898682e+01
    5.2197654724e+01    3.9373798370e+01
    5.2298648834e+01    3.9382999420e+01
    5.2398258209e+01    3.9392101288e+01
    5.2497680664e+01    3.9401397705e+01
    5.2597450256e+01    3.9410800934e+01
    5.2696857452e+01    3.9420299530e+01
    5.2797775269e+01    3.9430099487e+01
    5.2899032593e+01    3.9439998627e+01
    5.2998371124e+01    3.9449798584e+01
    5.3098011017e+01    3.9459899902e+01
    5.3197444916e+01    3.9470100403e+01
    5.3297927856e+01    3.9480499268e+01
    5.3397174835e+01    3.9490798950e+01
    5.3499031067e+01    3.9501701355e+01
    5.3598617554e+01    3.9512401581e+01
    5.3697170258e+01    3.9523200989e+01
    5.3799488068e+01    3.9534500122e+01
    5.3898212433e+01    3.9545600891e+01
    5.3999408722e+01    3.9557197571e+01
    5.4097606659e+01    3.9568500519e+01
    5.4197235107e+01    3.9580200195e+01
    5.4299732208e+01    3.9592300415e+01
    5.4399291992e+01    3.9604400635e+01
    5.4498207092e+01    3.9616500854e+01
    5.4599040985e+01    3.9628898621e+01
    5.4697677612e+01    3.9641300201e+01
    5.4797805786e+01    3.9653999329e+01
    5.4899078369e+01    3.9667198181e+01
    5.4997367859e+01    3.9680099487e+01
    5.5097179413e+01    3.9693298340e+01
    5.5199211121e+01    3.9707000732e+01
    5.5298397064e+01    3.9720600128e+01
    5.5399055481e+01    3.9734600067e+01
    5.5497970581e+01    3.9748500824e+01
    5.5598217010e+01    3.9762699127e+01
    5.5697742462e+01    3.9777198792e+01
    5.5798839569e+01    3.9791999817e+01
    5.5898376465e+01    3.9806800842e+01
    5.5997180939e+01    3.9821701050e+01
    5.6099475861e+01    3.9837303162e+01
    5.6198123932e+01    3.9852600098e+01
    5.6297409058e+01    3.9868198395e+01
    5.6398696899e+01    3.9884300232e+01
    5.6497615814e+01    3.9900199890e+01
    5.6597213745e+01    3.9916599274e+01
    5.6698856354e+01    3.9933399200e+01
    5.6798278809e+01    3.9950099945e+01
    5.6897266388e+01    3.9966999054e+01
    5.6998733521e+01    3.9984600067e+01
    5.7098175049e+01    4.0001899719e+01
    5.7199287415e+01    4.0019897461e+01
    5.7298351288e+01    4.0037597656e+01
    5.7397647858e+01    4.0055702209e+01
    5.7499351501e+01    4.0074501038e+01
    5.7597934723e+01    4.0093002319e+01
    5.7699386597e+01    4.0112300873e+01
    5.7799045563e+01    4.0131298065e+01
    5.7897274017e+01    4.0150497437e+01
    5.7996963501e+01    4.0170200348e+01
    5.8098590851e+01    4.0190498352e+01
    5.8196819305e+01    4.0210399628e+01
    5.8298027039e+01    4.0231201172e+01
    5.8397186279e+01    4.0251800537e+01
    5.8498310089e+01    4.0273101807e+01
    5.8599437714e+01    4.0294700623e+01
    5.8698726654e+01    4.0316200256e+01
    5.8797466278e+01    4.0337699890e+01
    5.8898593903e+01    4.0360198975e+01
    5.8997989655e+01    4.0382499695e+01
    5.9099121094e+01    4.0405399323e+01
    5.9197868347e+01    4.0428199768e+01
    5.9297161102e+01    4.0451301575e+01
    5.9398296356e+01    4.0475101471e+01
    5.9496791840e+01    4.0498500824e+01
    5.9598346710e+01    4.0523101807e+01
    5.9697704315e+01    4.0547302246e+01
    5.9799629211e+01    4.0572502136e+01
    5.9899642944e+01    4.0597599030e+01
    5.9999027252e+01    4.0622600555e+01
    6.0097278595e+01    4.0647800446e+01
    6.0198837280e+01    4.0673999786e+01
    6.0298248291e+01    4.0700000763e+01
    6.0399391174e+01    4.0726799011e+01
    6.0497650146e+01    4.0752998352e+01
    6.0596691132e+01    4.0779800415e+01
    6.0698459625e+01    4.0807598114e+01
    6.0797340393e+01    4.0834899902e+01
    6.0898738861e+01    4.0863197327e+01
    6.0997764587e+01    4.0891201019e+01
    6.1097133636e+01    4.0919498444e+01
    6.1198287964e+01    4.0948600769e+01
    6.1297050476e+01    4.0977401733e+01
    6.1398208618e+01    4.1007099152e+01
    6.1499370575e+01    4.1037200928e+01
    6.1597640991e+01    4.1066699982e+01
    6.1698978424e+01    4.1097499847e+01
    6.1797611237e+01    4.1127601624e+01
    6.1898773193e+01    4.1159000397e+01
    6.1997463226e+01    4.1189800262e+01
    6.2099140167e+01    4.1221900940e+01
    6.2197418213e+01    4.1253200531e+01
    6.2298591614e+01    4.1285800934e+01
    6.2397228241e+01    4.1317798615e+01
    6.2498760223e+01    4.1351100922e+01
    6.2597045898e+01    4.1383598328e+01
    6.2698219299e+01    4.1417499542e+01
    6.2796932220e+01    4.1450798035e+01
    6.2898113251e+01    4.1485298157e+01
    6.2999294281e+01    4.1520099640e+01
    6.3098300934e+01    4.1554397583e+01
    6.3199485779e+01    4.1589797974e+01
    6.3297779083e+01    4.1624599457e+01
    6.3398963928e+01    4.1660598755e+01
    6.3497261047e+01    4.1695999146e+01
    6.3598777771e+01    4.1732902527e+01
    6.3697078705e+01    4.1768798828e+01
    6.3798271179e+01    4.1806198120e+01
    6.3896930695e+01    4.1843002319e+01
    6.3998535156e+01    4.1881198883e+01
    6.4096839905e+01    4.1918498993e+01
    6.4198753357e+01    4.1957500458e+01
    6.4297065735e+01    4.1995498657e+01
    6.4398429871e+01    4.2034900665e+01
    6.4497497559e+01    4.2073898315e+01
    6.4599288940e+01    4.2114097595e+01
    6.4697929382e+01    4.2153598785e+01
    6.4799545288e+01    4.2194599152e+01
    6.4898223877e+01    4.2234699249e+01
    6.4999519348e+01    4.2276298523e+01
    6.5099090576e+01    4.2317497253e+01
    6.5197586060e+01    4.2358600616e+01
    6.5299514771e+01    4.2401500702e+01
    6.5398529053e+01    4.2443500519e+01
    6.5496864319e+01    4.2485698700e+01
    6.5598083496e+01    4.2529399872e+01
    6.5696746826e+01    4.2572380066e+01
    6.5798332214e+01    4.2617092133e+01
    6.5896675110e+01    4.2660739899e+01
    6.5998069763e+01    4.2706119537e+01
    6.6099304199e+01    4.2751739502e+01
    6.6197654724e+01    4.2796569824e+01
    6.6298896790e+01    4.2843051910e+01
    6.6397239685e+01    4.2888637543e+01
    6.6498893738e+01    4.2936149597e+01
    6.6597244263e+01    4.2982498169e+01
    6.6698738098e+01    4.3030761719e+01
    6.6797096252e+01    4.3077960968e+01
    6.6898345947e+01    4.3126991272e+01
    6.6996711731e+01    4.3175041199e+01
    6.7097969055e+01    4.3225009918e+01
    6.7199226379e+01    4.3275390625e+01
    6.7297599792e+01    4.3324707031e+01
    6.7399024963e+01    4.3376029968e+01
    6.7497398376e+01    4.3426391602e+01
    6.7598670959e+01    4.3478549957e+01
    6.7697044373e+01    4.3529739380e+01
    6.7798324585e+01    4.3582939148e+01
    6.7896705627e+01    4.3635070801e+01
    6.7997985840e+01    4.3689189911e+01
    6.8099273682e+01    4.3743820190e+01
    6.8197822571e+01    4.3797580719e+01
    6.8299186707e+01    4.3853229523e+01
    6.8397583008e+01    4.3907829285e+01
    6.8498878479e+01    4.3964607239e+01
    6.8597282410e+01    4.4020229340e+01
    6.8698577881e+01    4.4078018188e+01
    6.8796981812e+01    4.4134670258e+01
    6.8898292542e+01    4.4193569183e+01
    6.8996704102e+01    4.4251331329e+01
    6.9098014832e+01    4.4311439514e+01
    6.9199325562e+01    4.4372047424e+01
    6.9297744751e+01    4.4431419373e+01
    6.9399070740e+01    4.4493240356e+01
    6.9497497559e+01    4.4553817749e+01
    6.9598815918e+01    4.4616828918e+01
    6.9697250366e+01    4.4678607941e+01
    6.9798583984e+01    4.4742820740e+01
    6.9897018433e+01    4.4805900574e+01
    6.9998359680e+01    4.4871391296e+01
    7.0096801758e+01    4.4935668945e+01
    7.0198143005e+01    4.5002449036e+01
    7.0299484253e+01    4.5069919586e+01
    7.0397941589e+01    4.5136081696e+01
    7.0499290466e+01    4.5204933167e+01
    7.0597747803e+01    4.5272457123e+01
    7.0699104309e+01    4.5342788696e+01
    7.0797569275e+01    4.5411708832e+01
    7.0898933411e+01    4.5483299255e+01
    7.0997406006e+01    4.5553688049e+01
    7.1098777771e+01    4.5626750946e+01
    7.1197250366e+01    4.5698608398e+01
    7.1298629761e+01    4.5773231506e+01
    7.1397109985e+01    4.5846458435e+01
    7.1498497009e+01    4.5922729492e+01
    7.1596984863e+01    4.5997520447e+01
    7.1698371887e+01    4.6075347900e+01
    7.1796867371e+01    4.6151691437e+01
    7.1898269653e+01    4.6231159210e+01
    7.1996772766e+01    4.6309150696e+01
    7.2098175049e+01    4.6390361786e+01
    7.2196685791e+01    4.6469989777e+01
    7.2298095703e+01    4.6552940369e+01
    7.2396614075e+01    4.6634307861e+01
    7.2498031616e+01    4.6718990326e+01
    7.2599449158e+01    4.6804721832e+01
    7.2697975159e+01    4.6888790131e+01
    7.2799407959e+01    4.6976352692e+01
    7.2897941589e+01    4.7062339783e+01
    7.2999374390e+01    4.7151809692e+01
    7.3097915649e+01    4.7239730835e+01
    7.3199356079e+01    4.7331207275e+01
    7.3297904968e+01    4.7421138763e+01
    7.3399353027e+01    4.7514713287e+01
    7.3497909546e+01    4.7606548309e+01
    7.3599372864e+01    4.7702232361e+01
    7.3697929382e+01    4.7796272278e+01
    7.3799400330e+01    4.7894027710e+01
    7.3897972107e+01    4.7990161896e+01
    7.3996543884e+01    4.8087348938e+01
    7.4098022461e+01    4.8188529968e+01
    7.4196601868e+01    4.8287902832e+01
    7.4298088074e+01    4.8391262054e+01
    7.4396675110e+01    4.8492912292e+01
    7.4498168945e+01    4.8598640442e+01
    7.4596771240e+01    4.8702560425e+01
    7.4698272705e+01    4.8810642242e+01
    7.4796875000e+01    4.8916931152e+01
    7.4898384094e+01    4.9027473450e+01
    7.4997001648e+01    4.9136009216e+01
    7.5098518372e+01    4.9248989105e+01
    7.5197135925e+01    4.9359992981e+01
    7.5298660278e+01    4.9475509644e+01
    7.5397293091e+01    4.9588951111e+01
    7.5498825073e+01    4.9707000732e+01
    7.5597465515e+01    4.9822982788e+01
    7.5699005127e+01    4.9943656921e+01
    7.5797645569e+01    5.0062259674e+01
    7.5899200439e+01    5.0185550690e+01
    7.5997848511e+01    5.0306678772e+01
    7.6099403381e+01    5.0432777405e+01
    7.6198066711e+01    5.0556621552e+01
    7.6296730042e+01    5.0681671143e+01
    7.6398300171e+01    5.0811958313e+01
    7.6496971130e+01    5.0939807892e+01
    7.6598548889e+01    5.1072792053e+01
    7.6697227478e+01    5.1203430176e+01
    7.6798812866e+01    5.1339378357e+01
    7.6897506714e+01    5.1472808838e+01
    7.6999099731e+01    5.1611629486e+01
    7.7097793579e+01    5.1747928619e+01
    7.7196495056e+01    5.1885719299e+01
    7.7298095703e+01    5.2028980255e+01
    7.7396804810e+01    5.2169631958e+01
    7.7498420715e+01    5.2315929413e+01
    7.7597129822e+01    5.2459529877e+01
    7.7698753357e+01    5.2608963013e+01
    7.7797470093e+01    5.2755500793e+01
    7.7899101257e+01    5.2908058167e+01
    7.7997825623e+01    5.3057731628e+01
    7.8096557617e+01    5.3208869934e+01
    7.8198196411e+01    5.3366088867e+01
    7.8296936035e+01    5.3520439148e+01
    7.8398582458e+01    5.3680858612e+01
    7.8497329712e+01    5.3838211060e+01
    7.8598983765e+01    5.4001911163e+01
    7.8697738647e+01    5.4162460327e+01
    7.8796493530e+01    5.4324649811e+01
    7.8898155212e+01    5.4493259430e+01
    7.8996917725e+01    5.4658519745e+01
    7.9098587036e+01    5.4830478668e+01
    7.9197357178e+01    5.4999008179e+01
    7.9299034119e+01    5.5174308777e+01
    7.9397811890e+01    5.5346191406e+01
    7.9496589661e+01    5.5519699097e+01
    7.9598274231e+01    5.5699928284e+01
    7.9697059631e+01    5.5876770020e+01
    7.9798751831e+01    5.6060520172e+01
    7.9897537231e+01    5.6240669250e+01
    7.9999237061e+01    5.6427921295e+01
    8.0098037720e+01    5.6611473083e+01
    8.0196830750e+01    5.6796741486e+01
    8.0298538208e+01    5.6989250183e+01
    8.0397346497e+01    5.7177898407e+01
    8.0499061584e+01    5.7373970032e+01
    8.0597869873e+01    5.7566192627e+01
    8.0696685791e+01    5.7760097504e+01
    8.0798400879e+01    5.7961589813e+01
    8.0897216797e+01    5.8159149170e+01
    8.0998947144e+01    5.8364261627e+01
    8.1097770691e+01    5.8565361023e+01
    8.1196594238e+01    5.8768321991e+01
    8.1298324585e+01    5.8979099274e+01
    8.1397155762e+01    5.9185680389e+01
    8.1498893738e+01    5.9400249481e+01
    8.1597724915e+01    5.9610519409e+01
    8.1696556091e+01    5.9822650909e+01
    8.1798301697e+01    6.0042930603e+01
    8.1897132874e+01    6.0258831024e+01
    8.1998878479e+01    6.0483058929e+01
    8.2097717285e+01    6.0702819824e+01
    8.2196563721e+01    6.0924419403e+01
    8.2298309326e+01    6.1154590607e+01
    8.2397155762e+01    6.1380027771e+01
    8.2498908997e+01    6.1614212036e+01
    8.2597755432e+01    6.1843559265e+01
    8.2696601868e+01    6.2074928284e+01
    8.2798355103e+01    6.2315200806e+01
    8.2897209167e+01    6.2550460815e+01
    8.2998970032e+01    6.2794792175e+01
    8.3097816467e+01    6.3034130096e+01
    8.3196670532e+01    6.3275371552e+01
    8.3298431396e+01    6.3525920868e+01
    8.3397285461e+01    6.3771209717e+01
    8.3499046326e+01    6.4025878906e+01
    8.3597900391e+01    6.4275299072e+01
    8.3696754456e+01    6.4526786804e+01
    8.3798515320e+01    6.4787719727e+01
    8.3897377014e+01    6.5043220520e+01
    8.3999137878e+01    6.5308418274e+01
    8.4097991943e+01    6.5568115234e+01
    8.4196838379e+01    6.5829757690e+01
    8.4298599243e+01    6.6101348877e+01
    8.4397453308e+01    6.6367263794e+01
    8.4499214172e+01    6.6643173218e+01
    8.4598060608e+01    6.6913330078e+01
    8.4696907043e+01    6.7185508728e+01
    8.4798660278e+01    6.7467941284e+01
    8.4897506714e+01    6.7744529724e+01
    8.4999252319e+01    6.8031440735e+01
    8.5098098755e+01    6.8312339783e+01
    8.5196937561e+01    6.8595336914e+01
    8.5298675537e+01    6.8888992310e+01
    8.5397506714e+01    6.9176361084e+01
    8.5499244690e+01    6.9474540710e+01
    8.5598075867e+01    6.9766357422e+01
    8.5696899414e+01    7.0060256958e+01
    8.5798629761e+01    7.0365112305e+01
    8.5897445679e+01    7.0663520813e+01
    8.5999168396e+01    7.0972846985e+01
    8.6097976685e+01    7.1275566101e+01
    8.6196777344e+01    7.1580528259e+01
    8.6298484802e+01    7.1896644592e+01
    8.6397277832e+01    7.2205879211e+01
    8.6498970032e+01    7.2526512146e+01
    8.6597755432e+01    7.2840187073e+01
    8.6696533203e+01    7.3155998230e+01
    8.6798210144e+01    7.3483337402e+01
    8.6896972656e+01    7.3803459167e+01
    8.6998641968e+01    7.4135261536e+01
    8.7097389221e+01    7.4459671021e+01
    8.7199043274e+01    7.4795921326e+01
    8.7297782898e+01    7.5124694824e+01
    8.7396514893e+01    7.5455657959e+01
    8.7498146057e+01    7.5798377991e+01
    8.7596862793e+01    7.6133575439e+01
    8.7698471069e+01    7.6480682373e+01
    8.7797172546e+01    7.6820083618e+01
    8.7898773193e+01    7.7171539307e+01
    8.7997451782e+01    7.7515136719e+01
    8.8099029541e+01    7.7870819092e+01
    8.8197700500e+01    7.8218559265e+01
    8.8296356201e+01    7.8568229675e+01
    8.8397903442e+01    7.8930236816e+01
    8.8496536255e+01    7.9284027100e+01
    8.8598068237e+01    7.9650314331e+01
    8.8696678162e+01    8.0008003235e+01
    8.8798187256e+01    8.0378311157e+01
    8.8896781921e+01    8.0740074158e+01
    8.8998260498e+01    8.1114402771e+01
    8.9096832275e+01    8.1480010986e+01
    8.9198287964e+01    8.1858329773e+01
    8.9296836853e+01    8.2227752686e+01
    8.9398269653e+01    8.2610031128e+01
    8.9496795654e+01    8.2983146667e+01
    8.9598205566e+01    8.3369171143e+01
    8.9696701050e+01    8.3745948792e+01
    8.9798080444e+01    8.4135673523e+01
    8.9896553040e+01    8.4515983582e+01
    8.9997901917e+01    8.4909400940e+01
    9.0096343994e+01    8.5293136597e+01
    9.0197662354e+01    8.5689888000e+01
    9.0298965454e+01    8.6088493347e+01
    9.0397361755e+01    8.6477188110e+01
    9.0498634338e+01    8.6879112244e+01
    9.0597000122e+01    8.7271049500e+01
    9.0698234558e+01    8.7676048279e+01
    9.0796562195e+01    8.8071014404e+01
    9.0897766113e+01    8.8479171753e+01
    9.0998947144e+01    8.8888725281e+01
    9.1097229004e+01    8.9288101196e+01
    9.1198371887e+01    8.9700569153e+01
    9.1296615601e+01    9.0102684021e+01
    9.1397720337e+01    9.0517951965e+01
    9.1498817444e+01    9.0934570312e+01
    9.1597000122e+01    9.1340499878e+01
    9.1698051453e+01    9.1759559631e+01
    9.1799087524e+01    9.2179969788e+01
    9.1897216797e+01    9.2589447021e+01
    9.1998214722e+01    9.3012138367e+01
    9.2096305847e+01    9.3423751831e+01
    9.2197257996e+01    9.3848625183e+01
    9.2298194885e+01    9.4274497986e+01
    9.2399108887e+01    9.4701377869e+01
    9.2497116089e+01    9.5116943359e+01
    9.2597991943e+01    9.5545639038e+01
    9.2698844910e+01    9.5975112915e+01
    9.2796791077e+01    9.6393135071e+01
    9.2897598267e+01    9.6824272156e+01
    9.2998382568e+01    9.7256065369e+01
    9.3099151611e+01    9.7688514709e+01
    9.3197013855e+01    9.8109298706e+01
    9.3297729492e+01    9.8542953491e+01
    9.3398422241e+01    9.8977142334e+01
    9.3499092102e+01    9.9411849976e+01
    9.3596862793e+01    9.9834793091e+01
    9.3697494507e+01    1.0027005768e+02
    9.3798095703e+01    1.0070621490e+02
    9.3898666382e+01    1.0114227295e+02
    9.3996345520e+01    1.0156666565e+02
    9.4096878052e+01    1.0200350952e+02
    9.4197380066e+01    1.0244023132e+02
    9.4297859192e+01    1.0287780762e+02
    9.4398315430e+01    1.0331426239e+02
    9.4498748779e+01    1.0375154877e+02
    9.4596282959e+01    1.0417633057e+02
    9.4696662903e+01    1.0461332703e+02
    9.4797019958e+01    1.0505017090e+02
    9.4897346497e+01    1.0548681641e+02
    9.4997657776e+01    1.0592330170e+02
    9.5097938538e+01    1.0635958099e+02
    9.5198188782e+01    1.0679466248e+02
    9.5298416138e+01    1.0723053741e+02
    9.5398620605e+01    1.0766519928e+02
    9.5498794556e+01    1.0809964752e+02
    9.5598945618e+01    1.0853387451e+02
    9.5699066162e+01    1.0896685028e+02
    9.5796302795e+01    1.0938764954e+02
    9.5896377563e+01    1.0981917572e+02
    9.5996429443e+01    1.1025046539e+02
    9.6096450806e+01    1.1068148041e+02
    9.6196449280e+01    1.1111123657e+02
    9.6296417236e+01    1.1154069519e+02
    9.6396369934e+01    1.1196889496e+02
    9.6496292114e+01    1.1239679718e+02
    9.6599044800e+01    1.1283605957e+02
    9.6698913574e+01    1.1326132202e+02
    9.6798759460e+01    1.1368627930e+02
    9.6898582458e+01    1.1411091614e+02
    9.6998382568e+01    1.1453324127e+02
    9.7098152161e+01    1.1495623016e+02
    9.7197898865e+01    1.1537689209e+02
    9.7297622681e+01    1.1579719543e+02
    9.7397323608e+01    1.1621615601e+02
    9.7497001648e+01    1.1663475800e+02
    9.7596649170e+01    1.1705101013e+02
    9.7696281433e+01    1.1746788788e+02
    9.7798721313e+01    1.1789459229e+02
    9.7898300171e+01    1.1830767059e+02
    9.7997856140e+01    1.1872136688e+02
    9.8097389221e+01    1.1913266754e+02
    9.8196899414e+01    1.1954357147e+02
    9.8296379089e+01    1.1995307159e+02
    9.8398681641e+01    1.2037211609e+02
    9.8498115540e+01    1.2077975464e+02
    9.8597526550e+01    1.2118595886e+02
    9.8696914673e+01    1.2159074402e+02
    9.8796279907e+01    1.2199408722e+02
    9.8898460388e+01    1.2240875244e+02
    9.8997779846e+01    1.2281017303e+02
    9.9097068787e+01    1.2321015167e+02
    9.9196342468e+01    1.2360966492e+02
    9.9298423767e+01    1.2401831818e+02
    9.9397644043e+01    1.2441486359e+02
    9.9496841431e+01    1.2481094360e+02
    9.9598854065e+01    1.2521702576e+02
    9.9697998047e+01    1.2561009979e+02
    9.9797126770e+01    1.2600170135e+02
    9.9896232605e+01    1.2639280701e+02
    9.9998138428e+01    1.2679380798e+02
    1.0009719086e+02    1.2718290710e+02
    1.0019622040e+02    1.2757039642e+02
    1.0029805756e+02    1.2796769714e+02
    1.0039704132e+02    1.2835319519e+02
    1.0049883270e+02    1.2874830627e+02
    1.0059777069e+02    1.2913070679e+02
    1.0069667816e+02    1.2951370239e+02
    1.0079840088e+02    1.2990499878e+02
    1.0089727020e+02    1.3028480530e+02
    1.0099893951e+02    1.3067498779e+02
    1.0109777069e+02    1.3105270386e+02
    1.0119657135e+02    1.3142990112e+02
    1.0129817200e+02    1.3181620789e+02
    1.0139710236e+02    1.3219279480e+02
    1.0149865723e+02    1.3257690430e+02
    1.0159738159e+02    1.3295079041e+02
    1.0169889069e+02    1.3333360291e+02
    1.0179756165e+02    1.3370529175e+02
    1.0189620972e+02    1.3407640076e+02
    1.0199765778e+02    1.3445739746e+02
    1.0209626770e+02    1.3482730103e+02
    1.0219766998e+02    1.3520599365e+02
    1.0229624176e+02    1.3557469177e+02
    1.0239759064e+02    1.3595199585e+02
    1.0249893188e+02    1.3632969666e+02
    1.0259742737e+02    1.3669549561e+02
    1.0269872284e+02    1.3707180786e+02
    1.0279718018e+02    1.3743650818e+02
    1.0289842987e+02    1.3781140137e+02
    1.0299684906e+02    1.3817480469e+02
    1.0309805298e+02    1.3854939270e+02
    1.0319641876e+02    1.3891149902e+02
    1.0329757690e+02    1.3928469849e+02
    1.0339871979e+02    1.3965728760e+02
    1.0349703217e+02    1.4001840210e+02
    1.0359812164e+02    1.4039048767e+02
    1.0369656372e+02    1.4075190735e+02
    1.0379760742e+02    1.4112260437e+02
    1.0389862823e+02    1.4149259949e+02
    1.0399683380e+02    1.4185240173e+02
    1.0409780884e+02    1.4222200012e+02
    1.0419876862e+02    1.4259181213e+02
    1.0429689789e+02    1.4295060730e+02
    1.0439821625e+02    1.4332089233e+02
    1.0449630737e+02    1.4367929077e+02
    1.0459718323e+02    1.4404719543e+02
    1.0469802856e+02    1.4441529846e+02
    1.0479885101e+02    1.4478269958e+02
    1.0489685822e+02    1.4514028931e+02
    1.0499764252e+02    1.4550720215e+02
    1.0509839630e+02    1.4587431335e+02
    1.0519634247e+02    1.4623071289e+02
    1.0529705048e+02    1.4659729004e+02
    1.0539775085e+02    1.4696409607e+02
    1.0549842072e+02    1.4733010864e+02
    1.0559645081e+02    1.4768618774e+02
    1.0569706726e+02    1.4805259705e+02
    1.0579792786e+02    1.4841848755e+02
    1.0589852142e+02    1.4878340149e+02
    1.0599629211e+02    1.4913900757e+02
    1.0609751129e+02    1.4950610352e+02
    1.0619819641e+02    1.4987110901e+02
    1.0629869843e+02    1.5023469543e+02
    1.0639724731e+02    1.5059249878e+02
    1.0649822235e+02    1.5095788574e+02
    1.0659866333e+02    1.5132099915e+02
    1.0669663239e+02    1.5167610168e+02
    1.0679701996e+02    1.5203860474e+02
    1.0689826202e+02    1.5240449524e+02
    1.0699861145e+02    1.5276730347e+02
    1.0709616089e+02    1.5311929321e+02
    1.0719741821e+02    1.5348439026e+02
    1.0729821014e+02    1.5384800720e+02
    1.0739681244e+02    1.5420291138e+02
    1.0749741364e+02    1.5456520081e+02
    1.0759683228e+02    1.5492259216e+02
    1.0769705200e+02    1.5528329468e+02
    1.0779728699e+02    1.5564300537e+02
    1.0789882660e+02    1.5600730896e+02
    1.0799620819e+02    1.5635690308e+02
    1.0809702301e+02    1.5671769714e+02
    1.0819876862e+02    1.5708229065e+02
    1.0829702759e+02    1.5743409729e+02
    1.0839874268e+02    1.5779679871e+02
    1.0849669647e+02    1.5814659119e+02
    1.0859786224e+02    1.5850730896e+02
    1.0869699097e+02    1.5886109924e+02
    1.0879802704e+02    1.5922009277e+02
    1.0889711761e+02    1.5957310486e+02
    1.0899812317e+02    1.5993110657e+02
    1.0909700012e+02    1.6028190613e+02
    1.0919692230e+02    1.6063580322e+02
    1.0929888916e+02    1.6099620056e+02
    1.0939736938e+02    1.6134439087e+02
    1.0949809265e+02    1.6169920349e+02
    1.0959844971e+02    1.6205239868e+02
    1.0969827271e+02    1.6240350342e+02
    1.0979807281e+02    1.6275360107e+02
    1.0989785004e+02    1.6310380554e+02
    1.0999620819e+02    1.6344731140e+02
    1.1009662628e+02    1.6379791260e+02
    1.1019756317e+02    1.6415040588e+02
    1.1029778290e+02    1.6449859619e+02
    1.1039830780e+02    1.6484750366e+02
    1.1049797058e+02    1.6519371033e+02
    1.1059828949e+02    1.6554010010e+02
    1.1069843292e+02    1.6588619995e+02
    1.1079802704e+02    1.6622940063e+02
    1.1089620972e+02    1.6656610107e+02
    1.1099620819e+02    1.6690950012e+02
    1.1109677887e+02    1.6725349426e+02
    1.1119741821e+02    1.6759700012e+02
    1.1129692841e+02    1.6793600464e+02
    1.1139642334e+02    1.6827391052e+02
    1.1149623108e+02    1.6861239624e+02
    1.1159622192e+02    1.6895010376e+02
    1.1169651031e+02    1.6928829956e+02
    1.1179869080e+02    1.6963250732e+02
    1.1189808655e+02    1.6996510315e+02
    1.1199797821e+02    1.7029949951e+02
    1.1209735107e+02    1.7063101196e+02
    1.1219730377e+02    1.7096389771e+02
    1.1229663849e+02    1.7129328918e+02
    1.1239665985e+02    1.7162449646e+02
    1.1249871826e+02    1.7196069336e+02
    1.1259799957e+02    1.7228680420e+02
    1.1269789886e+02    1.7261500549e+02
    1.1279827118e+02    1.7294299316e+02
    1.1289766693e+02    1.7326699829e+02
    1.1299688721e+02    1.7358869934e+02
    1.1309609222e+02    1.7391040039e+02
    1.1319631195e+02    1.7423318481e+02
    1.1329620361e+02    1.7455429077e+02
    1.1339810944e+02    1.7488099670e+02
    1.1349844360e+02    1.7520169067e+02
    1.1359851074e+02    1.7552029419e+02
    1.1369828033e+02    1.7583700562e+02
    1.1379811096e+02    1.7615231323e+02
    1.1389736176e+02    1.7646508789e+02
    1.1399677277e+02    1.7677789307e+02
    1.1409710693e+02    1.7709109497e+02
    1.1419770050e+02    1.7740480042e+02
    1.1429783630e+02    1.7771551514e+02
    1.1439720917e+02    1.7802250671e+02
    1.1449786377e+02    1.7833319092e+02
    1.1459684753e+02    1.7863659668e+02
    1.1469663239e+02    1.7894200134e+02
    1.1479833221e+02    1.7925169373e+02
    1.1489778137e+02    1.7955310059e+02
    1.1499851227e+02    1.7985699463e+02
    1.1509780121e+02    1.8015560913e+02
    1.1519670105e+02    1.8045199585e+02
    1.1529833221e+02    1.8075550842e+02
    1.1539737701e+02    1.8104959106e+02
    1.1549755859e+02    1.8134570312e+02
    1.1559725952e+02    1.8163888550e+02
    1.1569609833e+02    1.8192930603e+02
    1.1579766846e+02    1.8222549438e+02
    1.1589647675e+02    1.8251339722e+02
    1.1599770355e+02    1.8280560303e+02
    1.1609681702e+02    1.8309140015e+02
    1.1619677734e+02    1.8337849426e+02
    1.1629828644e+02    1.8366819763e+02
    1.1639794159e+02    1.8395120239e+02
    1.1649701691e+02    1.8423199463e+02
    1.1659710693e+02    1.8451409912e+02
    1.1669683838e+02    1.8479379272e+02
    1.1679692841e+02    1.8507321167e+02
    1.1689613342e+02    1.8534811401e+02
    1.1699755859e+02    1.8562860107e+02
    1.1709673309e+02    1.8590090942e+02
    1.1719712830e+02    1.8617628479e+02
    1.1729666901e+02    1.8644689941e+02
    1.1739852905e+02    1.8672348022e+02
    1.1749669647e+02    1.8698800659e+02
    1.1759786224e+02    1.8725968933e+02
    1.1769689178e+02    1.8752371216e+02
    1.1779673004e+02    1.8778889465e+02
    1.1789759064e+02    1.8805500793e+02
    1.1799849701e+02    1.8832051086e+02
    1.1809808350e+02    1.8858090210e+02
    1.1819769287e+02    1.8883990479e+02
    1.1829691315e+02    1.8909667969e+02
    1.1839697266e+02    1.8935440063e+02
    1.1849652863e+02    1.8960850525e+02
    1.1859748840e+02    1.8986508179e+02
    1.1869719696e+02    1.9011759949e+02
    1.1879631042e+02    1.9036711121e+02
    1.1889640808e+02    1.9061749268e+02
    1.1899645996e+02    1.9086679077e+02
    1.1909855652e+02    1.9111950684e+02
    1.1919814301e+02    1.9136367798e+02
    1.1929701996e+02    1.9160559082e+02
    1.1939695740e+02    1.9184880066e+02
    1.1949694061e+02    1.9209028625e+02
    1.1959832764e+02    1.9233401489e+02
    1.1969602203e+02    1.9256639099e+02
    1.1979749298e+02    1.9280770874e+02
    1.1989601898e+02    1.9304029846e+02
    1.1999794769e+02    1.9327871704e+02
    1.2009647369e+02    1.9350761414e+02
    1.2019602203e+02    1.9373880005e+02
    1.2029753876e+02    1.9397131348e+02
    1.2039631653e+02    1.9419729614e+02
    1.2049783325e+02    1.9442788696e+02
    1.2059649658e+02    1.9464970398e+02
    1.2069833374e+02    1.9487831116e+02
    1.2079682922e+02    1.9509739685e+02
    1.2089862061e+02    1.9532220459e+02
    1.2099735260e+02    1.9553889465e+02
    1.2109857178e+02    1.9575938416e+02
    1.2119705963e+02    1.9597280884e+02
    1.2129827118e+02    1.9619030762e+02
    1.2139675140e+02    1.9640090942e+02
    1.2149796295e+02    1.9661540222e+02
    1.2159718323e+02    1.9682440186e+02
    1.2169599152e+02    1.9703060913e+02
    1.2179756927e+02    1.9724099731e+02
    1.2189617157e+02    1.9744500732e+02
    1.2199780273e+02    1.9765200806e+02
    1.2209667969e+02    1.9785301208e+02
    1.2219786835e+02    1.9805697632e+02
    1.2229631805e+02    1.9825401306e+02
    1.2239794922e+02    1.9845498657e+02
    1.2249678040e+02    1.9864999390e+02
    1.2259832001e+02    1.9884799194e+02
    1.2269716644e+02    1.9903997803e+02
    1.2279605103e+02    1.9923001099e+02
    1.2289723206e+02    1.9942300415e+02
    1.2299841309e+02    1.9961500549e+02
    1.2309710693e+02    1.9980101013e+02
    1.2319841003e+02    1.9998899841e+02
    1.2329685211e+02    2.0017100525e+02
    1.2339833069e+02    2.0035699463e+02
    1.2349696350e+02    2.0053598022e+02
    1.2359838104e+02    2.0071899414e+02
    1.2369712830e+02    2.0089599609e+02
    1.2379853058e+02    2.0107598877e+02
    1.2389714813e+02    2.0124900818e+02
    1.2399859619e+02    2.0142601013e+02
    1.2409751129e+02    2.0159701538e+02
    1.2419615936e+02    2.0176599121e+02
    1.2429752350e+02    2.0193801880e+02
    1.2439626312e+02    2.0210398865e+02
    1.2449761200e+02    2.0227301025e+02
    1.2459631348e+02    2.0243600464e+02
    1.2469763184e+02    2.0260299683e+02
    1.2479633331e+02    2.0276399231e+02
    1.2489771271e+02    2.0292700195e+02
    1.2499629211e+02    2.0308399963e+02
    1.2509764099e+02    2.0324398804e+02
    1.2519622040e+02    2.0339901733e+02
    1.2529750824e+02    2.0355599976e+02
    1.2539608002e+02    2.0370797729e+02
    1.2549736786e+02    2.0386199951e+02
    1.2559591675e+02    2.0401098633e+02
    1.2569718170e+02    2.0416299438e+02
    1.2579840851e+02    2.0431298828e+02
    1.2589685059e+02    2.0445700073e+02
    1.2599796295e+02    2.0460400391e+02
    1.2609629822e+02    2.0474598694e+02
    1.2619731140e+02    2.0488900757e+02
    1.2629826355e+02    2.0503199768e+02
    1.2639643860e+02    2.0516900635e+02
    1.2649729156e+02    2.0530900574e+02
    1.2659808350e+02    2.0544700623e+02
    1.2669611359e+02    2.0558000183e+02
    1.2679679871e+02    2.0571598816e+02
    1.2689743805e+02    2.0585000610e+02
    1.2699801636e+02    2.0598100281e+02
    1.2709855652e+02    2.0611199951e+02
    1.2719632721e+02    2.0623799133e+02
    1.2729676056e+02    2.0636599731e+02
    1.2739714050e+02    2.0649298096e+02
    1.2749748230e+02    2.0661901855e+02
    1.2759776306e+02    2.0674301147e+02
    1.2769798279e+02    2.0686500549e+02
    1.2779815674e+02    2.0698599243e+02
    1.2789830017e+02    2.0710600281e+02
    1.2799838257e+02    2.0722499084e+02
    1.2809840393e+02    2.0734101868e+02
    1.2819839478e+02    2.0745701599e+02
    1.2829832458e+02    2.0757199097e+02
    1.2839822388e+02    2.0768499756e+02
    1.2849807739e+02    2.0779602051e+02
    1.2859786987e+02    2.0790701294e+02
    1.2869761658e+02    2.0801600647e+02
    1.2879733276e+02    2.0812400818e+02
    1.2889698792e+02    2.0823100281e+02
    1.2899661255e+02    2.0833599854e+02
    1.2909619141e+02    2.0844099426e+02
    1.2919842529e+02    2.0854602051e+02
    1.2929791260e+02    2.0864799500e+02
    1.2939735413e+02    2.0874801636e+02
    1.2949678040e+02    2.0884800720e+02
    1.2959614563e+02    2.0894599915e+02
    1.2969816589e+02    2.0904499817e+02
    1.2979745483e+02    2.0914099121e+02
    1.2989671326e+02    2.0923501587e+02
    1.2999841309e+02    2.0933099365e+02
    1.3009759521e+02    2.0942401123e+02
    1.3019674683e+02    2.0951498413e+02
    1.3029852295e+02    2.0960700989e+02
    1.3039759827e+02    2.0969599915e+02
    1.3049664307e+02    2.0978401184e+02
    1.3059747314e+02    2.0987300110e+02
    1.3069645691e+02    2.0995899963e+02
    1.3079780579e+02    2.1004501343e+02
    1.3089645386e+02    2.1012899780e+02
    1.3099783325e+02    2.1021301270e+02
    1.3109837341e+02    2.1029600525e+02
    1.3119647217e+02    2.1037599182e+02
    1.3129652405e+02    2.1045700073e+02
    1.3139750671e+02    2.1053700256e+02
    1.3149780273e+02    2.1061502075e+02
    1.3159779358e+02    2.1069299316e+02
    1.3169764709e+02    2.1076899719e+02
    1.3179768372e+02    2.1084500122e+02
    1.3189796448e+02    2.1091900635e+02
    1.3199778748e+02    2.1099398804e+02
    1.3209642029e+02    2.1106498718e+02
    1.3219639587e+02    2.1113700867e+02
    1.3229791260e+02    2.1120898438e+02
    1.3239770508e+02    2.1127900696e+02
    1.3249642944e+02    2.1134701538e+02
    1.3259796143e+02    2.1141600037e+02
    1.3269752502e+02    2.1148300171e+02
    1.3279809570e+02    2.1155097961e+02
    1.3289642334e+02    2.1161499023e+02
    1.3299754333e+02    2.1168099976e+02
    1.3309857178e+02    2.1174598694e+02
    1.3319740295e+02    2.1180801392e+02
    1.3329864502e+02    2.1187100220e+02
    1.3339735413e+02    2.1193200684e+02
    1.3349885559e+02    2.1199301147e+02
    1.3359776306e+02    2.1205200195e+02
    1.3369886780e+02    2.1211300659e+02
    1.3379708862e+02    2.1216998291e+02
    1.3389797974e+02    2.1222801208e+02
    1.3399891663e+02    2.1228500366e+02
    1.3409759521e+02    2.1233999634e+02
    1.3419784546e+02    2.1239599609e+02
    1.3429815674e+02    2.1244898987e+02
    1.3439851379e+02    2.1250299072e+02
    1.3449815369e+02    2.1255699158e+02
    1.3459742737e+02    2.1260800171e+02
    1.3469786072e+02    2.1265998840e+02
    1.3479763794e+02    2.1270899963e+02
    1.3489729309e+02    2.1275898743e+02
    1.3499705505e+02    2.1280699158e+02
    1.3509718323e+02    2.1285600281e+02
    1.3519876099e+02    2.1290301514e+02
    1.3529772949e+02    2.1294898987e+02
    1.3539668274e+02    2.1299398804e+02
    1.3549794006e+02    2.1303999329e+02
    1.3559881592e+02    2.1308399963e+02
    1.3569755554e+02    2.1312600708e+02
    1.3579861450e+02    2.1316899109e+02
    1.3589675903e+02    2.1320999146e+02
    1.3599726868e+02    2.1325199890e+02
    1.3609776306e+02    2.1329200745e+02
    1.3619888306e+02    2.1333100891e+02
    1.3629676819e+02    2.1336801147e+02
    1.3639688110e+02    2.1340599060e+02
    1.3649708557e+02    2.1344300842e+02
    1.3659709167e+02    2.1347898865e+02
    1.3669708252e+02    2.1351400757e+02
    1.3679713440e+02    2.1354901123e+02
    1.3689709473e+02    2.1358198547e+02
    1.3699673462e+02    2.1361499023e+02
    1.3709669495e+02    2.1364601135e+02
    1.3719860840e+02    2.1367799377e+02
    1.3729823303e+02    2.1370799255e+02
    1.3739779663e+02    2.1373701477e+02
    1.3749696350e+02    2.1376499939e+02
    1.3759861755e+02    2.1379400635e+02
    1.3769837952e+02    2.1382101440e+02
    1.3779725647e+02    2.1384599304e+02
    1.3789857483e+02    2.1387200928e+02
    1.3799740601e+02    2.1389601135e+02
    1.3809817505e+02    2.1392001343e+02
    1.3819703674e+02    2.1394200134e+02
    1.3829815674e+02    2.1396499634e+02
    1.3839706421e+02    2.1398501587e+02
    1.3849783325e+02    2.1400500488e+02
    1.3859797668e+02    2.1402499390e+02
    1.3869900513e+02    2.1404400635e+02
    1.3879913330e+02    2.1406100464e+02
    1.3889898682e+02    2.1407801819e+02
    1.3899700928e+02    2.1409400940e+02
    1.3909904480e+02    2.1410899353e+02
    1.3919865417e+02    2.1412400818e+02
    1.3929833984e+02    2.1413700867e+02
    1.3939770508e+02    2.1414999390e+02
    1.3949697876e+02    2.1416099548e+02
    1.3959909058e+02    2.1417297363e+02
    1.3969837952e+02    2.1418200684e+02
    1.3979742432e+02    2.1419097900e+02
    1.3989883423e+02    2.1419998169e+02
    1.3999786377e+02    2.1420700073e+02
    1.4009912109e+02    2.1421401978e+02
    1.4019789124e+02    2.1421997070e+02
    1.4029902649e+02    2.1422500610e+02
    1.4039767456e+02    2.1422900391e+02
    1.4049865723e+02    2.1423199463e+02
    1.4059718323e+02    2.1423397827e+02
    1.4069804382e+02    2.1423599243e+02
    1.4079885864e+02    2.1423699951e+02
    1.4089721680e+02    2.1423699951e+02
    1.4099790955e+02    2.1423599243e+02
    1.4109855652e+02    2.1423400879e+02
    1.4119912720e+02    2.1423199463e+02
    1.4129727173e+02    2.1422900391e+02
    1.4139775085e+02    2.1422399902e+02
    1.4149818420e+02    2.1421899414e+02
    1.4159855652e+02    2.1421301270e+02
    1.4169888306e+02    2.1420599365e+02
    1.4179931641e+02    2.1419799805e+02
    1.4189715576e+02    2.1419100952e+02
    1.4199734497e+02    2.1418099976e+02
    1.4209750366e+02    2.1416998291e+02
    1.4219761658e+02    2.1415997314e+02
    1.4229797363e+02    2.1414797974e+02
    1.4239830017e+02    2.1413497925e+02
    1.4249829102e+02    2.1412200928e+02
    1.4259823608e+02    2.1410800171e+02
    1.4269871521e+02    2.1409298706e+02
    1.4279875183e+02    2.1407699585e+02
    1.4289860535e+02    2.1406100464e+02
    1.4299873352e+02    2.1404299927e+02
    1.4309919739e+02    2.1402502441e+02
    1.4319720459e+02    2.1400698853e+02
    1.4329930115e+02    2.1398599243e+02
    1.4339901733e+02    2.1396600342e+02
    1.4349867249e+02    2.1394497681e+02
    1.4359832764e+02    2.1392300415e+02
    1.4369810486e+02    2.1389999390e+02
    1.4379771423e+02    2.1387600708e+02
    1.4389729309e+02    2.1385202026e+02
    1.4399923706e+02    2.1382702637e+02
    1.4409878540e+02    2.1380099487e+02
    1.4419830322e+02    2.1377499390e+02
    1.4429783630e+02    2.1374700928e+02
    1.4439732361e+02    2.1371899414e+02
    1.4449919128e+02    2.1369003296e+02
    1.4459866333e+02    2.1365997314e+02
    1.4469813538e+02    2.1363101196e+02
    1.4479757690e+02    2.1359997559e+02
    1.4489939880e+02    2.1356799316e+02
    1.4499884033e+02    2.1353497314e+02
    1.4509826660e+02    2.1350198364e+02
    1.4519770813e+02    2.1346899414e+02
    1.4529949951e+02    2.1343399048e+02
    1.4539892578e+02    2.1339801025e+02
    1.4549894714e+02    2.1336300659e+02
    1.4559837341e+02    2.1332598877e+02
    1.4569781494e+02    2.1328900146e+02
    1.4579960632e+02    2.1325100708e+02
    1.4589904785e+02    2.1321096802e+02
    1.4599864197e+02    2.1317300415e+02
    1.4609808350e+02    2.1313201904e+02
    1.4619755554e+02    2.1309201050e+02
    1.4629939270e+02    2.1304998779e+02
    1.4639886475e+02    2.1300796509e+02
    1.4649836731e+02    2.1296502686e+02
    1.4659786987e+02    2.1292202759e+02
    1.4669737244e+02    2.1287799072e+02
    1.4679928589e+02    2.1283197021e+02
    1.4689883423e+02    2.1278598022e+02
    1.4699868774e+02    2.1273999023e+02
    1.4709945679e+02    2.1269302368e+02
    1.4719905090e+02    2.1264498901e+02
    1.4729867554e+02    2.1259701538e+02
    1.4739831543e+02    2.1254797363e+02
    1.4749798584e+02    2.1249896240e+02
    1.4759767151e+02    2.1244897461e+02
    1.4769975281e+02    2.1239602661e+02
    1.4779948425e+02    2.1234399414e+02
    1.4789926147e+02    2.1229202271e+02
    1.4799905396e+02    2.1223999023e+02
    1.4809974670e+02    2.1218496704e+02
    1.4819958496e+02    2.1213098145e+02
    1.4829946899e+02    2.1207501221e+02
    1.4839938354e+02    2.1202001953e+02
    1.4849931335e+02    2.1196298218e+02
    1.4859928894e+02    2.1190600586e+02
    1.4869929504e+02    2.1184899902e+02
    1.4879934692e+02    2.1179003906e+02
    1.4889942932e+02    2.1173101807e+02
    1.4899955750e+02    2.1167098999e+02
    1.4909971619e+02    2.1160998535e+02
    1.4919752502e+02    2.1155102539e+02
    1.4929774475e+02    2.1148898315e+02
    1.4939817810e+02    2.1142602539e+02
    1.4949850464e+02    2.1136297607e+02
    1.4959887695e+02    2.1129803467e+02
    1.4969943237e+02    2.1123400879e+02
    1.4979989624e+02    2.1116903687e+02
    1.4989830017e+02    2.1110397339e+02
    1.4999885559e+02    2.1103701782e+02
    1.5009947205e+02    2.1097000122e+02
    1.5019772339e+02    2.1090298462e+02
    1.5029917908e+02    2.1083398438e+02
    1.5039993286e+02    2.1076397705e+02
    1.5049836731e+02    2.1069497681e+02
    1.5059924316e+02    2.1062500000e+02
    1.5069776917e+02    2.1055499268e+02
    1.5079876709e+02    2.1048300171e+02
    1.5089981079e+02    2.1041000366e+02
    1.5099850464e+02    2.1033801270e+02
    1.5109968567e+02    2.1026397705e+02
    1.5119865417e+02    2.1019000244e+02
    1.5129995728e+02    2.1011398315e+02
    1.5139889526e+02    2.1004000854e+02
    1.5149789429e+02    2.0996499634e+02
    1.5159939575e+02    2.0988696289e+02
    1.5169851685e+02    2.0980999756e+02
    1.5179771423e+02    2.0973300171e+02
    1.5189939880e+02    2.0965399170e+02
    1.5199873352e+02    2.0957504272e+02
    1.5209812927e+02    2.0949502563e+02
    1.5220002747e+02    2.0941299438e+02
    1.5229954529e+02    2.0933401489e+02
    1.5239915466e+02    2.0925097656e+02
    1.5249880981e+02    2.0917001343e+02
    1.5259855652e+02    2.0908801270e+02
    1.5269834900e+02    2.0900399780e+02
    1.5279823303e+02    2.0892001343e+02
    1.5289816284e+02    2.0883599854e+02
    1.5299818420e+02    2.0875100708e+02
    1.5309826660e+02    2.0866500854e+02
    1.5319842529e+02    2.0857901001e+02
    1.5329864502e+02    2.0849099731e+02
    1.5339895630e+02    2.0840402222e+02
    1.5349932861e+02    2.0831497192e+02
    1.5359977722e+02    2.0822598267e+02
    1.5369786072e+02    2.0813900757e+02
    1.5379846191e+02    2.0804800415e+02
    1.5389912415e+02    2.0795797729e+02
    1.5399987793e+02    2.0786602783e+02
    1.5409825134e+02    2.0777600098e+02
    1.5419914246e+02    2.0768298340e+02
    1.5430012512e+02    2.0758999634e+02
    1.5439872742e+02    2.0749700928e+02
    1.5449775696e+02    2.0740499878e+02
    1.5459910583e+02    2.0730902100e+02
    1.5469792175e+02    2.0721502686e+02
    1.5479930115e+02    2.0711898804e+02
    1.5489828491e+02    2.0702398682e+02
    1.5499981689e+02    2.0692599487e+02
    1.5509895325e+02    2.0683001709e+02
    1.5519816589e+02    2.0673303223e+02
    1.5529994202e+02    2.0663299561e+02
    1.5539932251e+02    2.0653500366e+02
    1.5549876404e+02    2.0643499756e+02
    1.5559831238e+02    2.0633596802e+02
    1.5569793701e+02    2.0623602295e+02
    1.5580012512e+02    2.0613299561e+02
    1.5589990234e+02    2.0603100586e+02
    1.5599977112e+02    2.0593002319e+02
    1.5609971619e+02    2.0582699585e+02
    1.5619973755e+02    2.0572399902e+02
    1.5629985046e+02    2.0561898804e+02
    1.5640003967e+02    2.0551400757e+02
    1.5650030518e+02    2.0540902710e+02
    1.5659814453e+02    2.0530603027e+02
    1.5669859314e+02    2.0519903564e+02
    1.5679910278e+02    2.0509097290e+02
    1.5689970398e+02    2.0498300171e+02
    1.5699786377e+02    2.0487796021e+02
    1.5709863281e+02    2.0476898193e+02
    1.5719949341e+02    2.0465795898e+02
    1.5729789734e+02    2.0455102539e+02
    1.5739889526e+02    2.0443896484e+02
    1.5750000000e+02    2.0432803345e+02
    1.5759864807e+02    2.0421801758e+02
    1.5769990540e+02    2.0410498047e+02
    1.5779872131e+02    2.0399401855e+02
    1.5790014648e+02    2.0387902832e+02
    1.5799911499e+02    2.0376599121e+02
    1.5809815979e+02    2.0365399170e+02
    1.5819982910e+02    2.0353698730e+02
    1.5829904175e+02    2.0342297363e+02
    1.5839833069e+02    2.0330798340e+02
    1.5850024414e+02    2.0318902588e+02
    1.5859968567e+02    2.0307202148e+02
    1.5869921875e+02    2.0295501709e+02
    1.5879882812e+02    2.0283801270e+02
    1.5889851379e+02    2.0271899414e+02
    1.5899829102e+02    2.0260003662e+02
    1.5909812927e+02    2.0247998047e+02
    1.5919805908e+02    2.0235900879e+02
    1.5929806519e+02    2.0223797607e+02
    1.5939814758e+02    2.0211700439e+02
    1.5949830627e+02    2.0199298096e+02
    1.5959855652e+02    2.0186999512e+02
    1.5969888306e+02    2.0174603271e+02
    1.5979930115e+02    2.0162097168e+02
    1.5989979553e+02    2.0149499512e+02
    1.6000036621e+02    2.0136901855e+02
    1.6009843445e+02    2.0124499512e+02
    1.6019915771e+02    2.0111700439e+02
    1.6029995728e+02    2.0098901367e+02
    1.6039816284e+02    2.0086297607e+02
    1.6049903870e+02    2.0073400879e+02
    1.6059994507e+02    2.0060296631e+02
    1.6069850159e+02    2.0047503662e+02
    1.6079963684e+02    2.0034197998e+02
    1.6089828491e+02    2.0021301270e+02
    1.6099955750e+02    2.0007897949e+02
    1.6109815979e+02    1.9994702148e+02
    1.6119938660e+02    1.9981298828e+02
    1.6129827881e+02    1.9967999268e+02
    1.6139967346e+02    1.9954400635e+02
    1.6149844360e+02    1.9940997314e+02
    1.6159986877e+02    1.9927197266e+02
    1.6169874573e+02    1.9913598633e+02
    1.6179962158e+02    1.9899798584e+02
    1.6189857483e+02    1.9886199951e+02
    1.6199986267e+02    1.9872198486e+02
    1.6209852600e+02    1.9858502197e+02
    1.6219960022e+02    1.9844299316e+02
    1.6230018616e+02    1.9830200195e+02
    1.6239883423e+02    1.9816302490e+02
    1.6249966431e+02    1.9802001953e+02
    1.6260026550e+02    1.9787799072e+02
    1.6269827271e+02    1.9773797607e+02
    1.6279887390e+02    1.9759399414e+02
    1.6289947510e+02    1.9744897461e+02
    1.6300018311e+02    1.9730401611e+02
    1.6309916687e+02    1.9716003418e+02
    1.6319851685e+02    1.9701605225e+02
    1.6329913330e+02    1.9686901855e+02
    1.6339973450e+02    1.9672100830e+02
    1.6350050354e+02    1.9657299805e+02
    1.6359907532e+02    1.9642700195e+02
    1.6369970703e+02    1.9627801514e+02
    1.6380033875e+02    1.9612799072e+02
    1.6389840698e+02    1.9598095703e+02
    1.6399903870e+02    1.9583099365e+02
    1.6409994507e+02    1.9567803955e+02
    1.6419892883e+02    1.9552899170e+02
    1.6429905701e+02    1.9537701416e+02
    1.6439886475e+02    1.9522497559e+02
    1.6449978638e+02    1.9507104492e+02
    1.6460075378e+02    1.9491699219e+02
    1.6469874573e+02    1.9476599121e+02
    1.6480038452e+02    1.9460900879e+02
    1.6489883423e+02    1.9445697021e+02
    1.6499955750e+02    1.9430096436e+02
    1.6509974670e+02    1.9414501953e+02
    1.6519894409e+02    1.9398999023e+02
    1.6529820251e+02    1.9383502197e+02
    1.6540022278e+02    1.9367602539e+02
    1.6549957275e+02    1.9351904297e+02
    1.6559899902e+02    1.9336199951e+02
    1.6569845581e+02    1.9320495605e+02
    1.6580065918e+02    1.9304296875e+02
    1.6590022278e+02    1.9288403320e+02
    1.6599984741e+02    1.9272601318e+02
    1.6609942627e+02    1.9256701660e+02
    1.6619920349e+02    1.9240802002e+02
    1.6629899597e+02    1.9224700928e+02
    1.6639846802e+02    1.9208801270e+02
    1.6649829102e+02    1.9192700195e+02
    1.6660083008e+02    1.9176202393e+02
    1.6670066833e+02    1.9160101318e+02
    1.6680053711e+02    1.9144000244e+02
    1.6690042114e+02    1.9127801514e+02
    1.6700030518e+02    1.9111596680e+02
    1.6710021973e+02    1.9095397949e+02
    1.6720013428e+02    1.9079199219e+02
    1.6730007935e+02    1.9063000488e+02
    1.6740003967e+02    1.9046801758e+02
    1.6750001526e+02    1.9030603027e+02
    1.6759999084e+02    1.9014398193e+02
    1.6769999695e+02    1.8998101807e+02
    1.6780001831e+02    1.8981799316e+02
    1.6790005493e+02    1.8965594482e+02
    1.6800010681e+02    1.8949401855e+02
    1.6810018921e+02    1.8933099365e+02
    1.6820028687e+02    1.8916998291e+02
    1.6830039978e+02    1.8900799561e+02
    1.6840052795e+02    1.8884594727e+02
    1.6850068665e+02    1.8868402100e+02
    1.6860086060e+02    1.8852404785e+02
    1.6870106506e+02    1.8836297607e+02
    1.6879855347e+02    1.8820697021e+02
    1.6889880371e+02    1.8804699707e+02
    1.6899905396e+02    1.8788800049e+02
    1.6909933472e+02    1.8772802734e+02
    1.6919966125e+02    1.8757000732e+02
    1.6930018616e+02    1.8741198730e+02
    1.6940080261e+02    1.8725500488e+02
    1.6949873352e+02    1.8710205078e+02
    1.6959939575e+02    1.8694604492e+02
    1.6970007324e+02    1.8679101562e+02
    1.6980076599e+02    1.8663696289e+02
    1.6989874268e+02    1.8648803711e+02
    1.6999948120e+02    1.8633599854e+02
    1.7010020447e+02    1.8618597412e+02
    1.7020097351e+02    1.8603698730e+02
    1.7029901123e+02    1.8589398193e+02
    1.7039979553e+02    1.8575000000e+02
    1.7050057983e+02    1.8560900879e+02
    1.7059866333e+02    1.8547497559e+02
    1.7069946289e+02    1.8534100342e+02
    1.7080029297e+02    1.8521099854e+02
    1.7090112305e+02    1.8508398438e+02
    1.7099923706e+02    1.8496697998e+02
    1.7110008240e+02    1.8485003662e+02
    1.7120092773e+02    1.8474102783e+02
    1.7129907227e+02    1.8464099121e+02
    1.7139993286e+02    1.8454498291e+02
    1.7150085449e+02    1.8445697021e+02
    1.7160096741e+02    1.8437799072e+02
    1.7170118713e+02    1.8430603027e+02
    1.7179876709e+02    1.8424401855e+02
    1.7189900208e+02    1.8419000244e+02
    1.7199940491e+02    1.8414501953e+02
    1.7209895325e+02    1.8410998535e+02
    1.7220054626e+02    1.8408300781e+02
    1.7230090332e+02    1.8406597900e+02
    1.7240126038e+02    1.8405798340e+02
    1.7249897766e+02    1.8405895996e+02
    1.7259931946e+02    1.8406799316e+02
    1.7269964600e+02    1.8408599854e+02
    1.7280053711e+02    1.8411102295e+02
    1.7290081787e+02    1.8414202881e+02
    1.7300106812e+02    1.8417999268e+02
    1.7310127258e+02    1.8422503662e+02
    1.7319880676e+02    1.8427294922e+02
    1.7329893494e+02    1.8432904053e+02
    1.7339900208e+02    1.8438800049e+02
    1.7349902344e+02    1.8445300293e+02
    1.7359887695e+02    1.8452001953e+02
    1.7370097351e+02    1.8459197998e+02
    1.7380036926e+02    1.8466497803e+02
    1.7389970398e+02    1.8474096680e+02
    1.7399899292e+02    1.8481903076e+02
    1.7410086060e+02    1.8490002441e+02
    1.7420004272e+02    1.8497998047e+02
    1.7429919434e+02    1.8506201172e+02
    1.7440089417e+02    1.8514495850e+02
    1.7449995422e+02    1.8522698975e+02
    1.7459898376e+02    1.8530902100e+02
    1.7470057678e+02    1.8539398193e+02
    1.7479951477e+02    1.8547399902e+02
    1.7490104675e+02    1.8555798340e+02
    1.7499995422e+02    1.8563897705e+02
    1.7510145569e+02    1.8571899414e+02
    1.7520031738e+02    1.8579803467e+02
    1.7529919434e+02    1.8587603760e+02
    1.7540066528e+02    1.8595397949e+02
    1.7549955750e+02    1.8603002930e+02
    1.7560104370e+02    1.8610595703e+02
    1.7569993591e+02    1.8617895508e+02
    1.7580148315e+02    1.8625299072e+02
    1.7590029907e+02    1.8632397461e+02
    1.7600061035e+02    1.8639398193e+02
    1.7610090637e+02    1.8646295166e+02
    1.7620115662e+02    1.8653100586e+02
    1.7630136108e+02    1.8659796143e+02
    1.7640077209e+02    1.8666296387e+02
    1.7650035095e+02    1.8672601318e+02
    1.7659962463e+02    1.8678802490e+02
    1.7670158386e+02    1.8685205078e+02
    1.7680096436e+02    1.8691296387e+02
    1.7690037537e+02    1.8697198486e+02
    1.7699984741e+02    1.8702801514e+02
    1.7709936523e+02    1.8708203125e+02
    1.7720155334e+02    1.8713104248e+02
    1.7730116272e+02    1.8718896484e+02
    1.7740080261e+02    1.8723498535e+02
    1.7750050354e+02    1.8728802490e+02
    1.7760023499e+02    1.8733898926e+02
    1.7770001221e+02    1.8737701416e+02
    1.7779981995e+02    1.8742199707e+02
    1.7789967346e+02    1.8746496582e+02
    1.7799955750e+02    1.8751501465e+02
    1.7809948730e+02    1.8755303955e+02
    1.7819943237e+02    1.8758795166e+02
    1.7829942322e+02    1.8763000488e+02
    1.7839944458e+02    1.8766003418e+02
    1.7849951172e+02    1.8769805908e+02
    1.7859960938e+02    1.8773297119e+02
    1.7869973755e+02    1.8775500488e+02
    1.7879989624e+02    1.8778503418e+02
    1.7890010071e+02    1.8781207275e+02
    1.7900033569e+02    1.8784698486e+02
    1.7910060120e+02    1.8786901855e+02
    1.7919958496e+02    1.8789001465e+02
    1.7930148315e+02    1.8791192627e+02
    1.7940069580e+02    1.8793499756e+02
    1.7949993896e+02    1.8794598389e+02
    1.7959919739e+02    1.8796502686e+02
    1.7970109558e+02    1.8797796631e+02
    1.7980029297e+02    1.8799395752e+02
    1.7989944458e+02    1.8800903320e+02
    1.8000129700e+02    1.8801696777e+02
    1.8010040283e+02    1.8802899170e+02
    1.8019949341e+02    1.8803802490e+02
    1.8030122375e+02    1.8804296875e+02
    1.8040025330e+02    1.8803997803e+02
    1.8049923706e+02    1.8804595947e+02
    1.8060104370e+02    1.8805206299e+02
    1.8070039368e+02    1.8804797363e+02
    1.8079945374e+02    1.8804699707e+02
    1.8090083313e+02    1.8804504395e+02
    1.8099981689e+02    1.8804095459e+02
    1.8110177612e+02    1.8803601074e+02
    1.8120007324e+02    1.8801904297e+02
    1.8130104065e+02    1.8801696777e+02
    1.8139933777e+02    1.8800695801e+02
    1.8150027466e+02    1.8799005127e+02
    1.8160118103e+02    1.8797296143e+02
    1.8169941711e+02    1.8795800781e+02
    1.8180029297e+02    1.8794702148e+02
    1.8189996338e+02    1.8792395020e+02
    1.8200045776e+02    1.8790600586e+02
    1.8210046387e+02    1.8788403320e+02
    1.8219981384e+02    1.8786096191e+02
    1.8230094910e+02    1.8783502197e+02
    1.8240042114e+02    1.8781597900e+02
    1.8250051880e+02    1.8778497314e+02
    1.8259959412e+02    1.8775805664e+02
    1.8270079041e+02    1.8772399902e+02
    1.8279981995e+02    1.8769500732e+02
    1.8290095520e+02    1.8765795898e+02
    1.8299923706e+02    1.8762695312e+02
    1.8310031128e+02    1.8758703613e+02
    1.8320133972e+02    1.8755499268e+02
    1.8329954529e+02    1.8751000977e+02
    1.8340184021e+02    1.8747296143e+02
    1.8350044250e+02    1.8742700195e+02
    1.8360176086e+02    1.8738195801e+02
    1.8370045471e+02    1.8734100342e+02
    1.8380180359e+02    1.8729107666e+02
    1.8390025330e+02    1.8723992920e+02
    1.8400123596e+02    1.8719305420e+02
    1.8410194397e+02    1.8713800049e+02
    1.8420001221e+02    1.8708697510e+02
    1.8430070496e+02    1.8702905273e+02
    1.8440139771e+02    1.8696899414e+02
    1.8450199890e+02    1.8690795898e+02
    1.8459991455e+02    1.8685198975e+02
    1.8470039368e+02    1.8678900146e+02
    1.8480070496e+02    1.8672698975e+02
    1.8490101624e+02    1.8666302490e+02
    1.8500112915e+02    1.8659997559e+02
    1.8510125732e+02    1.8652600098e+02
    1.8520140076e+02    1.8645898438e+02
    1.8530152893e+02    1.8639001465e+02
    1.8540165710e+02    1.8631896973e+02
    1.8550178528e+02    1.8624603271e+02
    1.8560191345e+02    1.8617199707e+02
    1.8570205688e+02    1.8609503174e+02
    1.8579956055e+02    1.8601306152e+02
    1.8589971924e+02    1.8593200684e+02
    1.8599987793e+02    1.8585894775e+02
    1.8610006714e+02    1.8577398682e+02
    1.8620025635e+02    1.8568695068e+02
    1.8630047607e+02    1.8560705566e+02
    1.8640072632e+02    1.8551599121e+02
    1.8650100708e+02    1.8543103027e+02
    1.8660128784e+02    1.8534497070e+02
    1.8670187378e+02    1.8525195312e+02
    1.8680036926e+02    1.8516400146e+02
    1.8690170288e+02    1.8506292725e+02
    1.8700120544e+02    1.8497399902e+02
    1.8710092163e+02    1.8487792969e+02
    1.8720065308e+02    1.8478100586e+02
    1.8730038452e+02    1.8468194580e+02
    1.8740013123e+02    1.8459106445e+02
    1.8749986267e+02    1.8448797607e+02
    1.8759957886e+02    1.8438403320e+02
    1.8770198059e+02    1.8428002930e+02
    1.8780168152e+02    1.8416998291e+02
    1.8790136719e+02    1.8407006836e+02
    1.8800103760e+02    1.8395996094e+02
    1.8810069275e+02    1.8385003662e+02
    1.8820034790e+02    1.8375000000e+02
    1.8830000305e+02    1.8362994385e+02
    1.8839964294e+02    1.8352001953e+02
    1.8850161743e+02    1.8341003418e+02
    1.8860043335e+02    1.8330004883e+02
    1.8870146179e+02    1.8318005371e+02
    1.8879971313e+02    1.8305993652e+02
    1.8890089417e+02    1.8294006348e+02
    1.8899984741e+02    1.8281994629e+02
    1.8910084534e+02    1.8269995117e+02
    1.8920222473e+02    1.8257995605e+02
    1.8930061340e+02    1.8244995117e+02
    1.8940153503e+02    1.8232995605e+02
    1.8949981689e+02    1.8220007324e+02
    1.8960073853e+02    1.8207995605e+02
    1.8970167542e+02    1.8194995117e+02
    1.8979995728e+02    1.8182006836e+02
    1.8990087891e+02    1.8168994141e+02
    1.9000181580e+02    1.8154992676e+02
    1.9010008240e+02    1.8142004395e+02
    1.9020101929e+02    1.8129003906e+02
    1.9030195618e+02    1.8116003418e+02
    1.9040022278e+02    1.8102001953e+02
    1.9050117493e+02    1.8088000488e+02
    1.9060209656e+02    1.8073999023e+02
    1.9070033264e+02    1.8060009766e+02
    1.9080120850e+02    1.8046008301e+02
    1.9090217590e+02    1.8032006836e+02
    1.9100033569e+02    1.8016992188e+02
    1.9110107422e+02    1.8003002930e+02
    1.9120179749e+02    1.7989001465e+02
    1.9130244446e+02    1.7973999023e+02
    1.9140040588e+02    1.7958996582e+02
    1.9150094604e+02    1.7944006348e+02
    1.9160142517e+02    1.7929003906e+02
    1.9170184326e+02    1.7914001465e+02
    1.9180220032e+02    1.7898999023e+02
    1.9190249634e+02    1.7883007812e+02
    1.9200010681e+02    1.7867993164e+02
    1.9210028076e+02    1.7853002930e+02
    1.9220039368e+02    1.7836999512e+02
    1.9230046082e+02    1.7821008301e+02
    1.9240045166e+02    1.7805004883e+02
    1.9250038147e+02    1.7789001465e+02
    1.9260025024e+02    1.7772998047e+02
    1.9270005798e+02    1.7757006836e+02
    1.9280244446e+02    1.7741003418e+02
    1.9290217590e+02    1.7725000000e+02
    1.9300184631e+02    1.7706994629e+02
    1.9310147095e+02    1.7690991211e+02
    1.9320106506e+02    1.7675000000e+02
    1.9330108643e+02    1.7658007812e+02
    1.9340170288e+02    1.7640002441e+02
    1.9350143433e+02    1.7623999023e+02
    1.9360116577e+02    1.7606994629e+02
    1.9370031738e+02    1.7590002441e+02
    1.9380143738e+02    1.7572009277e+02
    1.9390138245e+02    1.7554003906e+02
    1.9400213623e+02    1.7536999512e+02
    1.9410224915e+02    1.7518994141e+02
    1.9420213318e+02    1.7502001953e+02
    1.9430171204e+02    1.7483996582e+02
    1.9440019226e+02    1.7465002441e+02
    1.9450262451e+02    1.7448010254e+02
    1.9460188293e+02    1.7429003906e+02
    1.9470114136e+02    1.7410998535e+02
    1.9480041504e+02    1.7391992188e+02
    1.9490229797e+02    1.7373999023e+02
    1.9500158691e+02    1.7354992676e+02
    1.9510087585e+02    1.7336999512e+02
    1.9520014954e+02    1.7318005371e+02
    1.9530203247e+02    1.7298999023e+02
    1.9540129089e+02    1.7280004883e+02
    1.9550053406e+02    1.7259997559e+02
    1.9560238647e+02    1.7241003418e+02
    1.9570161438e+02    1.7221997070e+02
    1.9580082703e+02    1.7202990723e+02
    1.9590263367e+02    1.7182995605e+02
    1.9600181580e+02    1.7164001465e+02
    1.9610101318e+02    1.7144006348e+02
    1.9620019531e+02    1.7125000000e+02
    1.9630198669e+02    1.7105004883e+02
    1.9640116882e+02    1.7083996582e+02
    1.9650035095e+02    1.7065002441e+02
    1.9660214233e+02    1.7044995117e+02
    1.9670132446e+02    1.7025000000e+02
    1.9680050659e+02    1.7004992676e+02
    1.9690231323e+02    1.6984997559e+02
    1.9700152588e+02    1.6963989258e+02
    1.9710075378e+02    1.6944006348e+02
    1.9720277405e+02    1.6922998047e+02
    1.9730105591e+02    1.6903002930e+02
    1.9740025330e+02    1.6883007812e+02
    1.9750047302e+02    1.6861999512e+02
    1.9760055542e+02    1.6842004395e+02
    1.9770141602e+02    1.6821008301e+02
    1.9780145264e+02    1.6800000000e+02
    1.9790098572e+02    1.6780004883e+02
    1.9800080872e+02    1.6757995605e+02
    1.9810061646e+02    1.6738000488e+02
    1.9820240784e+02    1.6716003418e+02
    1.9830157471e+02    1.6695996094e+02
    1.9840072632e+02    1.6675000000e+02
    1.9850244141e+02    1.6654003906e+02
    1.9860148621e+02    1.6631994629e+02
    1.9870048523e+02    1.6610998535e+02
    1.9880203247e+02    1.6590002441e+02
    1.9890089417e+02    1.6568994141e+02
    1.9900230408e+02    1.6546997070e+02
    1.9910101318e+02    1.6526000977e+02
    1.9920225525e+02    1.6504003906e+02
    1.9930084229e+02    1.6482995605e+02
    1.9940194702e+02    1.6460998535e+02
    1.9950039673e+02    1.6440002441e+02
    1.9960134888e+02    1.6418005371e+02
    1.9970222473e+02    1.6395996094e+02
    1.9980044556e+02    1.6375000000e+02
    1.9990113831e+02    1.6353002930e+02
endcurve
