Curveplot
LS-DYNA keyword deck by LS-PrePost
Abscissa
Ordinate
XY data
NBDLHeadzCoo-1 #pts=2000
* Minval=    -4.2650199890e+01 at time=       171.8990020752
* Maxval=     1.5358110046e+02 at time=         0.0000000000
    0.0000000000e+00    1.5358110046e+02
    9.7774229944e-02    1.5358110046e+02
    1.9887067378e-01    1.5358110046e+02
    2.9996713996e-01    1.5358110046e+02
    3.9809015393e-01    1.5358110046e+02
    4.9918657541e-01    1.5358110046e+02
    5.9730958939e-01    1.5358110046e+02
    6.9735962152e-01    1.5358110046e+02
    7.9837757349e-01    1.5358110046e+02
    8.9939546585e-01    1.5358110046e+02
    9.9752718210e-01    1.5358110046e+02
    1.0985450745e+00    1.5358110046e+02
    1.1973577738e+00    1.5358110046e+02
    1.2976021767e+00    1.5358110046e+02
    1.3985562325e+00    1.5358110046e+02
    1.4998034239e+00    1.5358110046e+02
    1.5970784426e+00    1.5358110046e+02
    1.6999474764e+00    1.5358110046e+02
    1.7995736599e+00    1.5358110046e+02
    1.8976689577e+00    1.5358110046e+02
    1.9982663393e+00    1.5358110046e+02
    2.0977218151e+00    1.5358110046e+02
    2.1982555389e+00    1.5358110046e+02
    2.2992174625e+00    1.5358110046e+02
    2.3999137878e+00    1.5358110046e+02
    2.4996232986e+00    1.5358110046e+02
    2.5974295139e+00    1.5358110046e+02
    2.6971468925e+00    1.5358110046e+02
    2.7976648808e+00    1.5358110046e+02
    2.8972232342e+00    1.5358110046e+02
    2.9971070290e+00    1.5358110046e+02
    3.0975494385e+00    1.5358110046e+02
    3.1983485222e+00    1.5358110046e+02
    3.2987871170e+00    1.5358110046e+02
    3.3987741470e+00    1.5358110046e+02
    3.4986736774e+00    1.5358110046e+02
    3.5992074013e+00    1.5358110046e+02
    3.6994559765e+00    1.5358110046e+02
    3.7992565632e+00    1.5358110046e+02
    3.8998773098e+00    1.5358110046e+02
    3.9992969036e+00    1.5358110046e+02
    4.0997276306e+00    1.5358110046e+02
    4.1997189522e+00    1.5358110046e+02
    4.2974495888e+00    1.5358110046e+02
    4.3983325958e+00    1.5358110046e+02
    4.4978756905e+00    1.5358110046e+02
    4.5976843834e+00    1.5358110046e+02
    4.6983013153e+00    1.5358110046e+02
    4.7985615730e+00    1.5358110046e+02
    4.8984656334e+00    1.5358110046e+02
    4.9972949028e+00    1.5358110046e+02
    5.0975437164e+00    1.5358110046e+02
    5.1982598305e+00    1.5358110046e+02
    5.2988653183e+00    1.5358110046e+02
    5.3997516632e+00    1.5358110046e+02
    5.4978318214e+00    1.5358110046e+02
    5.5974507332e+00    1.5358110046e+02
    5.6970014572e+00    1.5358110046e+02
    5.7985100746e+00    1.5358110046e+02
    5.8980960846e+00    1.5358110046e+02
    5.9979963303e+00    1.5358110046e+02
    6.0981459618e+00    1.5358110046e+02
    6.1971101761e+00    1.5358110046e+02
    6.2972874641e+00    1.5358110046e+02
    6.3970923424e+00    1.5358110046e+02
    6.4988594055e+00    1.5358110046e+02
    6.5984978676e+00    1.5358110046e+02
    6.6988377571e+00    1.5358110046e+02
    6.7997169495e+00    1.5358110046e+02
    6.8996133804e+00    1.5358110046e+02
    6.9974393845e+00    1.5358110046e+02
    7.0985956192e+00    1.5358110046e+02
    7.1995615959e+00    1.5358110046e+02
    7.2975544930e+00    1.5358110046e+02
    7.3987822533e+00    1.5358110046e+02
    7.4984917641e+00    1.5358110046e+02
    7.5995569229e+00    1.5358110046e+02
    7.6972684860e+00    1.5358110046e+02
    7.7984328270e+00    1.5358110046e+02
    7.8996648788e+00    1.5358110046e+02
    7.9988594055e+00    1.5358110046e+02
    8.0990247726e+00    1.5358110046e+02
    8.1987314224e+00    1.5358110046e+02
    8.2990627289e+00    1.5358110046e+02
    8.3993949890e+00    1.5358110046e+02
    8.4992198944e+00    1.5358110046e+02
    8.5971298218e+00    1.5358110046e+02
    8.6984491348e+00    1.5358110046e+02
    8.7975530624e+00    1.5358110046e+02
    8.8981704712e+00    1.5358110046e+02
    8.9983196259e+00    1.5358110046e+02
    9.0987472534e+00    1.5358110046e+02
    9.1989164352e+00    1.5358110046e+02
    9.2993431091e+00    1.5358110046e+02
    9.3991565704e+00    1.5358110046e+02
    9.4997739792e+00    1.5358110046e+02
    9.5985755920e+00    1.5358110046e+02
    9.6981945038e+00    1.5358110046e+02
    9.7985420227e+00    1.5358110046e+02
    9.8983631134e+00    1.5358110046e+02
    9.9988651276e+00    1.5358110046e+02
    1.0099212646e+01    1.5358110046e+02
    1.0197134018e+01    1.5358110046e+02
    1.0299838066e+01    1.5358110046e+02
    1.0397847176e+01    1.5358110046e+02
    1.0498732567e+01    1.5358110046e+02
    1.0597978592e+01    1.5358110046e+02
    1.0699520111e+01    1.5358110046e+02
    1.0799407959e+01    1.5358110046e+02
    1.0897944450e+01    1.5358110046e+02
    1.0998533249e+01    1.5358110046e+02
    1.1098258972e+01    1.5358110046e+02
    1.1198416710e+01    1.5358110046e+02
    1.1298942566e+01    1.5358110046e+02
    1.1399298668e+01    1.5358110046e+02
    1.1498490334e+01    1.5358110046e+02
    1.1597192764e+01    1.5358110046e+02
    1.1699962616e+01    1.5358110046e+02
    1.1797156334e+01    1.5358110046e+02
    1.1897417068e+01    1.5358110046e+02
    1.1998304367e+01    1.5358110046e+02
    1.2097395897e+01    1.5358110046e+02
    1.2198640823e+01    1.5358110046e+02
    1.2299342155e+01    1.5358110046e+02
    1.2398877144e+01    1.5358110046e+02
    1.2498333931e+01    1.5358110046e+02
    1.2599221230e+01    1.5358110046e+02
    1.2699581146e+01    1.5358110046e+02
    1.2799928665e+01    1.5358110046e+02
    1.2898457527e+01    1.5358110046e+02
    1.2998710632e+01    1.5358110046e+02
    1.3098583221e+01    1.5358110046e+02
    1.3198753357e+01    1.5358110046e+02
    1.3298300743e+01    1.5358110046e+02
    1.3398728371e+01    1.5358110046e+02
    1.3498803139e+01    1.5358009338e+02
    1.3599234581e+01    1.5358009338e+02
    1.3699924469e+01    1.5358009338e+02
    1.3797295570e+01    1.5358009338e+02
    1.3897105217e+01    1.5358009338e+02
    1.3999971390e+01    1.5358009338e+02
    1.4099424362e+01    1.5358009338e+02
    1.4197765350e+01    1.5358009338e+02
    1.4298200607e+01    1.5358009338e+02
    1.4397653580e+01    1.5358009338e+02
    1.4499993324e+01    1.5358009338e+02
    1.4597634315e+01    1.5358009338e+02
    1.4699314117e+01    1.5358009338e+02
    1.4799654961e+01    1.5358009338e+02
    1.4899817467e+01    1.5358009338e+02
    1.4997909546e+01    1.5358009338e+02
    1.5099325180e+01    1.5358009338e+02
    1.5197458267e+01    1.5358009338e+02
    1.5299068451e+01    1.5358009338e+02
    1.5399312973e+01    1.5358009338e+02
    1.5497216225e+01    1.5358009338e+02
    1.5597476959e+01    1.5358009338e+02
    1.5697291374e+01    1.5358009338e+02
    1.5797904968e+01    1.5358009338e+02
    1.5899407387e+01    1.5358009338e+02
    1.5998689651e+01    1.5358009338e+02
    1.6097135544e+01    1.5358009338e+02
    1.6199287415e+01    1.5358009338e+02
    1.6299188614e+01    1.5358009338e+02
    1.6397367477e+01    1.5358009338e+02
    1.6499973297e+01    1.5358009338e+02
    1.6599948883e+01    1.5358009338e+02
    1.6699844360e+01    1.5358009338e+02
    1.6798013687e+01    1.5358009338e+02
    1.6899730682e+01    1.5358009338e+02
    1.6999797821e+01    1.5358009338e+02
    1.7097778320e+01    1.5358009338e+02
    1.7197860718e+01    1.5358009338e+02
    1.7298749924e+01    1.5358009338e+02
    1.7399368286e+01    1.5358009338e+02
    1.7497079849e+01    1.5358009338e+02
    1.7598138809e+01    1.5358009338e+02
    1.7697952271e+01    1.5358009338e+02
    1.7798040390e+01    1.5358009338e+02
    1.7899185181e+01    1.5358009338e+02
    1.7999269485e+01    1.5358009338e+02
    1.8099531174e+01    1.5358009338e+02
    1.8199512482e+01    1.5358009338e+02
    1.8299509048e+01    1.5358009338e+02
    1.8397333145e+01    1.5358009338e+02
    1.8497678757e+01    1.5358009338e+02
    1.8598911285e+01    1.5358009338e+02
    1.8698020935e+01    1.5358009338e+02
    1.8798988342e+01    1.5358009338e+02
    1.8897609711e+01    1.5358009338e+02
    1.8997335434e+01    1.5358009338e+02
    1.9099502563e+01    1.5358009338e+02
    1.9199680328e+01    1.5358009338e+02
    1.9299308777e+01    1.5358009338e+02
    1.9398488998e+01    1.5358009338e+02
    1.9498830795e+01    1.5358009338e+02
    1.9599967957e+01    1.5358009338e+02
    1.9699968338e+01    1.5358009338e+02
    1.9799774170e+01    1.5358009338e+02
    1.9898561478e+01    1.5358009338e+02
    1.9998006821e+01    1.5358009338e+02
    2.0097909927e+01    1.5358009338e+02
    2.0197984695e+01    1.5357910156e+02
    2.0299757004e+01    1.5357910156e+02
    2.0399036407e+01    1.5357910156e+02
    2.0498842239e+01    1.5357910156e+02
    2.0598476410e+01    1.5357910156e+02
    2.0699451447e+01    1.5357910156e+02
    2.0799358368e+01    1.5357910156e+02
    2.0898725510e+01    1.5357910156e+02
    2.0999879837e+01    1.5357910156e+02
    2.1099702835e+01    1.5357910156e+02
    2.1197246552e+01    1.5357910156e+02
    2.1297140121e+01    1.5357910156e+02
    2.1398124695e+01    1.5357910156e+02
    2.1499856949e+01    1.5357910156e+02
    2.1597660065e+01    1.5357910156e+02
    2.1697998047e+01    1.5357910156e+02
    2.1797891617e+01    1.5357910156e+02
    2.1897977829e+01    1.5357910156e+02
    2.1998954773e+01    1.5357910156e+02
    2.2098857880e+01    1.5357910156e+02
    2.2199903488e+01    1.5357910156e+02
    2.2299976349e+01    1.5357910156e+02
    2.2398822784e+01    1.5357910156e+02
    2.2499986649e+01    1.5357910156e+02
    2.2597629547e+01    1.5357910156e+02
    2.2698154449e+01    1.5357910156e+02
    2.2798070908e+01    1.5357910156e+02
    2.2898607254e+01    1.5357910156e+02
    2.2998601913e+01    1.5357910156e+02
    2.3099384308e+01    1.5357910156e+02
    2.3199913025e+01    1.5357910156e+02
    2.3298526764e+01    1.5357910156e+02
    2.3399412155e+01    1.5357809448e+02
    2.3500011444e+01    1.5357809448e+02
    2.3599649429e+01    1.5357809448e+02
    2.3697288513e+01    1.5357809448e+02
    2.3798719406e+01    1.5357809448e+02
    2.3898635864e+01    1.5357809448e+02
    2.3998994827e+01    1.5357809448e+02
    2.4099424362e+01    1.5357809448e+02
    2.4198606491e+01    1.5357809448e+02
    2.4298774719e+01    1.5357809448e+02
    2.4399400711e+01    1.5357809448e+02
    2.4497579575e+01    1.5357809448e+02
    2.4598457336e+01    1.5357809448e+02
    2.4698364258e+01    1.5357809448e+02
    2.4797805786e+01    1.5357809448e+02
    2.4898162842e+01    1.5357809448e+02
    2.4999204636e+01    1.5357809448e+02
    2.5098224640e+01    1.5357809448e+02
    2.5199741364e+01    1.5357809448e+02
    2.5299100876e+01    1.5357809448e+02
    2.5398551941e+01    1.5357809448e+02
    2.5499259949e+01    1.5357809448e+02
    2.5598728180e+01    1.5357809448e+02
    2.5699075699e+01    1.5357809448e+02
    2.5797075272e+01    1.5357710266e+02
    2.5897247314e+01    1.5357710266e+02
    2.5997865677e+01    1.5357710266e+02
    2.6098743439e+01    1.5357710266e+02
    2.6197759628e+01    1.5357710266e+02
    2.6298385620e+01    1.5357710266e+02
    2.6399257660e+01    1.5357710266e+02
    2.6499885559e+01    1.5357710266e+02
    2.6597259521e+01    1.5357710266e+02
    2.6697349548e+01    1.5357710266e+02
    2.6798320770e+01    1.5357710266e+02
    2.6899984360e+01    1.5357710266e+02
    2.6999006271e+01    1.5357710266e+02
    2.7098913193e+01    1.5357710266e+02
    2.7198314667e+01    1.5357710266e+02
    2.7297523499e+01    1.5357710266e+02
    2.7399696350e+01    1.5357710266e+02
    2.7497264862e+01    1.5357710266e+02
    2.7597333908e+01    1.5357710266e+02
    2.7697666168e+01    1.5357609558e+02
    2.7798023224e+01    1.5357609558e+02
    2.7899927139e+01    1.5357609558e+02
    2.7997737885e+01    1.5357609558e+02
    2.8098268509e+01    1.5357609558e+02
    2.8199047089e+01    1.5357609558e+02
    2.8299396515e+01    1.5357609558e+02
    2.8399759293e+01    1.5357609558e+02
    2.8499393463e+01    1.5357609558e+02
    2.8599752426e+01    1.5357609558e+02
    2.8697570801e+01    1.5357609558e+02
    2.8797384262e+01    1.5357609558e+02
    2.8897560120e+01    1.5357609558e+02
    2.8998804092e+01    1.5357609558e+02
    2.9099510193e+01    1.5357609558e+02
    2.9199073792e+01    1.5357609558e+02
    2.9299697876e+01    1.5357609558e+02
    2.9397155762e+01    1.5357609558e+02
    2.9499769211e+01    1.5357510376e+02
    2.9599752426e+01    1.5357510376e+02
    2.9697933197e+01    1.5357510376e+02
    2.9797920227e+01    1.5357510376e+02
    2.9897996902e+01    1.5357510376e+02
    2.9997987747e+01    1.5357510376e+02
    3.0097536087e+01    1.5357510376e+02
    3.0197713852e+01    1.5357510376e+02
    3.0299455643e+01    1.5357510376e+02
    3.0397907257e+01    1.5357510376e+02
    3.0497547150e+01    1.5357510376e+02
    3.0598360062e+01    1.5357510376e+02
    3.0698431015e+01    1.5357510376e+02
    3.0799045563e+01    1.5357510376e+02
    3.0899120331e+01    1.5357510376e+02
    3.0999109268e+01    1.5357409668e+02
    3.1098394394e+01    1.5357409668e+02
    3.1198831558e+01    1.5357409668e+02
    3.1299533844e+01    1.5357409668e+02
    3.1399974823e+01    1.5357409668e+02
    3.1497892380e+01    1.5357409668e+02
    3.1597263336e+01    1.5357409668e+02
    3.1697612762e+01    1.5357409668e+02
    3.1798326492e+01    1.5357409668e+02
    3.1898849487e+01    1.5357409668e+02
    3.1999725342e+01    1.5357409668e+02
    3.2099281311e+01    1.5357409668e+02
    3.2199722290e+01    1.5357409668e+02
    3.2299976349e+01    1.5357409668e+02
    3.2397701263e+01    1.5357310486e+02
    3.2499694824e+01    1.5357310486e+02
    3.2599685669e+01    1.5357310486e+02
    3.2699230194e+01    1.5357310486e+02
    3.2799129486e+01    1.5357310486e+02
    3.2898288727e+01    1.5357310486e+02
    3.2997222900e+01    1.5357310486e+02
    3.3097923279e+01    1.5357310486e+02
    3.3197925568e+01    1.5357310486e+02
    3.3298103333e+01    1.5357310486e+02
    3.3398273468e+01    1.5357310486e+02
    3.3498962402e+01    1.5357310486e+02
    3.3598884583e+01    1.5357310486e+02
    3.3698692322e+01    1.5357310486e+02
    3.3799720764e+01    1.5357209778e+02
    3.3898803711e+01    1.5357209778e+02
    3.3999515533e+01    1.5357209778e+02
    3.4098892212e+01    1.5357209778e+02
    3.4200027466e+01    1.5357209778e+02
    3.4297492981e+01    1.5357209778e+02
    3.4397930145e+01    1.5357209778e+02
    3.4497936249e+01    1.5357209778e+02
    3.4598480225e+01    1.5357209778e+02
    3.4698749542e+01    1.5357209778e+02
    3.4797714233e+01    1.5357209778e+02
    3.4897541046e+01    1.5357209778e+02
    3.4998081207e+01    1.5357209778e+02
    3.5097980499e+01    1.5357110596e+02
    3.5197711945e+01    1.5357110596e+02
    3.5299133301e+01    1.5357110596e+02
    3.5397956848e+01    1.5357110596e+02
    3.5497760773e+01    1.5357110596e+02
    3.5597831726e+01    1.5357110596e+02
    3.5699012756e+01    1.5357110596e+02
    3.5798740387e+01    1.5357110596e+02
    3.5898738861e+01    1.5357110596e+02
    3.5997951508e+01    1.5357110596e+02
    3.6098720551e+01    1.5357110596e+02
    3.6198905945e+01    1.5357110596e+02
    3.6297443390e+01    1.5357110596e+02
    3.6397529602e+01    1.5357009888e+02
    3.6497600555e+01    1.5357009888e+02
    3.6598064423e+01    1.5357009888e+02
    3.6698406219e+01    1.5357009888e+02
    3.6797962189e+01    1.5357009888e+02
    3.6898586273e+01    1.5357009888e+02
    3.6998855591e+01    1.5357009888e+02
    3.7098861694e+01    1.5357009888e+02
    3.7198665619e+01    1.5357009888e+02
    3.7297664642e+01    1.5357009888e+02
    3.7398128510e+01    1.5357009888e+02
    3.7498378754e+01    1.5357009888e+02
    3.7597949982e+01    1.5356910706e+02
    3.7698150635e+01    1.5356910706e+02
    3.7799476624e+01    1.5356910706e+02
    3.7899124146e+01    1.5356910706e+02
    3.7999851227e+01    1.5356910706e+02
    3.8099597931e+01    1.5356910706e+02
    3.8198528290e+01    1.5356910706e+02
    3.8299686432e+01    1.5356910706e+02
    3.8399326324e+01    1.5356910706e+02
    3.8498683929e+01    1.5356910706e+02
    3.8599304199e+01    1.5356910706e+02
    3.8699401855e+01    1.5356910706e+02
    3.8799640656e+01    1.5356809998e+02
    3.8898136139e+01    1.5356809998e+02
    3.8997238159e+01    1.5356809998e+02
    3.9097328186e+01    1.5356809998e+02
    3.9198394775e+01    1.5356809998e+02
    3.9298133850e+01    1.5356809998e+02
    3.9398956299e+01    1.5356809998e+02
    3.9499137878e+01    1.5356809998e+02
    3.9599067688e+01    1.5356809998e+02
    3.9699054718e+01    1.5356809998e+02
    3.9799148560e+01    1.5356809998e+02
    3.9897239685e+01    1.5356809998e+02
    3.9996997833e+01    1.5356709290e+02
    4.0099140167e+01    1.5356709290e+02
    4.0198623657e+01    1.5356709290e+02
    4.0299057007e+01    1.5356709290e+02
    4.0399166107e+01    1.5356709290e+02
    4.0498184204e+01    1.5356709290e+02
    4.0597995758e+01    1.5356709290e+02
    4.0698005676e+01    1.5356709290e+02
    4.0798896790e+01    1.5356709290e+02
    4.0898895264e+01    1.5356709290e+02
    4.0999259949e+01    1.5356709290e+02
    4.1099010468e+01    1.5356610107e+02
    4.1199375153e+01    1.5356610107e+02
    4.1299556732e+01    1.5356610107e+02
    4.1399208069e+01    1.5356610107e+02
    4.1499572754e+01    1.5356610107e+02
    4.1598419189e+01    1.5356610107e+02
    4.1698883057e+01    1.5356610107e+02
    4.1797073364e+01    1.5356610107e+02
    4.1897785187e+01    1.5356610107e+02
    4.1997337341e+01    1.5356610107e+02
    4.2099243164e+01    1.5356610107e+02
    4.2199798584e+01    1.5356610107e+02
    4.2297088623e+01    1.5356509399e+02
    4.2397289276e+01    1.5356509399e+02
    4.2497936249e+01    1.5356509399e+02
    4.2599384308e+01    1.5356509399e+02
    4.2697986603e+01    1.5356509399e+02
    4.2799755096e+01    1.5356509399e+02
    4.2899341583e+01    1.5356509399e+02
    4.2998802185e+01    1.5356509399e+02
    4.3097576141e+01    1.5356509399e+02
    4.3198127747e+01    1.5356509399e+02
    4.3299472809e+01    1.5356509399e+02
    4.3399036407e+01    1.5356410217e+02
    4.3499328613e+01    1.5356410217e+02
    4.3599880219e+01    1.5356410217e+02
    4.3697441101e+01    1.5356410217e+02
    4.3799186707e+01    1.5356410217e+02
    4.3897544861e+01    1.5356410217e+02
    4.3997020721e+01    1.5356410217e+02
    4.4099628448e+01    1.5356410217e+02
    4.4199562073e+01    1.5356410217e+02
    4.4298675537e+01    1.5356410217e+02
    4.4399295807e+01    1.5356410217e+02
    4.4499858856e+01    1.5356309509e+02
    4.4599426270e+01    1.5356309509e+02
    4.4697174072e+01    1.5356309509e+02
    4.4799373627e+01    1.5356309509e+02
    4.4897964478e+01    1.5356309509e+02
    4.4999767303e+01    1.5356309509e+02
    4.5099246979e+01    1.5356309509e+02
    4.5198837280e+01    1.5356309509e+02
    4.5297199249e+01    1.5356309509e+02
    4.5399829865e+01    1.5356309509e+02
    4.5499408722e+01    1.5356309509e+02
    4.5599777222e+01    1.5356210327e+02
    4.5699012756e+01    1.5356210327e+02
    4.5799728394e+01    1.5356210327e+02
    4.5899471283e+01    1.5356210327e+02
    4.5998435974e+01    1.5356210327e+02
    4.6098964691e+01    1.5356210327e+02
    4.6199058533e+01    1.5356210327e+02
    4.6298091888e+01    1.5356210327e+02
    4.6398212433e+01    1.5356210327e+02
    4.6499191284e+01    1.5356210327e+02
    4.6598594666e+01    1.5356109619e+02
    4.6698253632e+01    1.5356109619e+02
    4.6797554016e+01    1.5356109619e+02
    4.6897407532e+01    1.5356109619e+02
    4.6997325897e+01    1.5356109619e+02
    4.7099693298e+01    1.5356109619e+02
    4.7199783325e+01    1.5356109619e+02
    4.7298984528e+01    1.5356109619e+02
    4.7398403168e+01    1.5356109619e+02
    4.7499271393e+01    1.5356109619e+02
    4.7598396301e+01    1.5356010437e+02
    4.7698066711e+01    1.5356010437e+02
    4.7798549652e+01    1.5356010437e+02
    4.7898582458e+01    1.5356010437e+02
    4.7997695923e+01    1.5356010437e+02
    4.8098598480e+01    1.5356010437e+02
    4.8198284149e+01    1.5356010437e+02
    4.8298824310e+01    1.5356010437e+02
    4.8398574829e+01    1.5356010437e+02
    4.8497966766e+01    1.5356010437e+02
    4.8597885132e+01    1.5355909729e+02
    4.8698070526e+01    1.5355909729e+02
    4.8798377991e+01    1.5355909729e+02
    4.8897491455e+01    1.5355909729e+02
    4.8997341156e+01    1.5355909729e+02
    4.9099723816e+01    1.5355909729e+02
    4.9197387695e+01    1.5355909729e+02
    4.9297573090e+01    1.5355909729e+02
    4.9399761200e+01    1.5355909729e+02
    4.9499591827e+01    1.5355810547e+02
    4.9599601746e+01    1.5355810547e+02
    4.9698467255e+01    1.5355810547e+02
    4.9799221039e+01    1.5355810547e+02
    4.9899307251e+01    1.5355810547e+02
    4.9999092102e+01    1.5355810547e+02
    5.0097957611e+01    1.5355810547e+02
    5.0198963165e+01    1.5355810547e+02
    5.0299087524e+01    1.5355709839e+02
    5.0397781372e+01    1.5355709839e+02
    5.0497108459e+01    1.5355709839e+02
    5.0596954346e+01    1.5355709839e+02
    5.0697322845e+01    1.5355709839e+02
    5.0797542572e+01    1.5355709839e+02
    5.0899581909e+01    1.5355709839e+02
    5.0999725342e+01    1.5355709839e+02
    5.1096939087e+01    1.5355610657e+02
    5.1199054718e+01    1.5355610657e+02
    5.1298107147e+01    1.5355610657e+02
    5.1398780823e+01    1.5355610657e+02
    5.1499359131e+01    1.5355610657e+02
    5.1599132538e+01    1.5355610657e+02
    5.1699546814e+01    1.5355610657e+02
    5.1798412323e+01    1.5355610657e+02
    5.1898971558e+01    1.5355509949e+02
    5.1996898651e+01    1.5355509949e+02
    5.2098228455e+01    1.5355509949e+02
    5.2197654724e+01    1.5355509949e+02
    5.2298648834e+01    1.5355509949e+02
    5.2398258209e+01    1.5355509949e+02
    5.2497680664e+01    1.5355509949e+02
    5.2597450256e+01    1.5355410767e+02
    5.2696857452e+01    1.5355410767e+02
    5.2797775269e+01    1.5355410767e+02
    5.2899032593e+01    1.5355410767e+02
    5.2998371124e+01    1.5355410767e+02
    5.3098011017e+01    1.5355410767e+02
    5.3197444916e+01    1.5355410767e+02
    5.3297927856e+01    1.5355310059e+02
    5.3397174835e+01    1.5355310059e+02
    5.3499031067e+01    1.5355310059e+02
    5.3598617554e+01    1.5355310059e+02
    5.3697170258e+01    1.5355310059e+02
    5.3799488068e+01    1.5355310059e+02
    5.3898212433e+01    1.5355209351e+02
    5.3999408722e+01    1.5355209351e+02
    5.4097606659e+01    1.5355209351e+02
    5.4197235107e+01    1.5355209351e+02
    5.4299732208e+01    1.5355209351e+02
    5.4399291992e+01    1.5355209351e+02
    5.4498207092e+01    1.5355110168e+02
    5.4599040985e+01    1.5355110168e+02
    5.4697677612e+01    1.5355110168e+02
    5.4797805786e+01    1.5355110168e+02
    5.4899078369e+01    1.5355110168e+02
    5.4997367859e+01    1.5355009460e+02
    5.5097179413e+01    1.5355009460e+02
    5.5199211121e+01    1.5355009460e+02
    5.5298397064e+01    1.5355009460e+02
    5.5399055481e+01    1.5355009460e+02
    5.5497970581e+01    1.5354910278e+02
    5.5598217010e+01    1.5354910278e+02
    5.5697742462e+01    1.5354910278e+02
    5.5798839569e+01    1.5354910278e+02
    5.5898376465e+01    1.5354910278e+02
    5.5997180939e+01    1.5354809570e+02
    5.6099475861e+01    1.5354809570e+02
    5.6198123932e+01    1.5354809570e+02
    5.6297409058e+01    1.5354809570e+02
    5.6398696899e+01    1.5354710388e+02
    5.6497615814e+01    1.5354710388e+02
    5.6597213745e+01    1.5354710388e+02
    5.6698856354e+01    1.5354710388e+02
    5.6798278809e+01    1.5354710388e+02
    5.6897266388e+01    1.5354609680e+02
    5.6998733521e+01    1.5354609680e+02
    5.7098175049e+01    1.5354609680e+02
    5.7199287415e+01    1.5354510498e+02
    5.7298351288e+01    1.5354510498e+02
    5.7397647858e+01    1.5354510498e+02
    5.7499351501e+01    1.5354510498e+02
    5.7597934723e+01    1.5354409790e+02
    5.7699386597e+01    1.5354409790e+02
    5.7799045563e+01    1.5354409790e+02
    5.7897274017e+01    1.5354409790e+02
    5.7996963501e+01    1.5354310608e+02
    5.8098590851e+01    1.5354310608e+02
    5.8196819305e+01    1.5354310608e+02
    5.8298027039e+01    1.5354209900e+02
    5.8397186279e+01    1.5354209900e+02
    5.8498310089e+01    1.5354209900e+02
    5.8599437714e+01    1.5354110718e+02
    5.8698726654e+01    1.5354110718e+02
    5.8797466278e+01    1.5354110718e+02
    5.8898593903e+01    1.5354010010e+02
    5.8997989655e+01    1.5354010010e+02
    5.9099121094e+01    1.5354010010e+02
    5.9197868347e+01    1.5353909302e+02
    5.9297161102e+01    1.5353909302e+02
    5.9398296356e+01    1.5353909302e+02
    5.9496791840e+01    1.5353810120e+02
    5.9598346710e+01    1.5353810120e+02
    5.9697704315e+01    1.5353810120e+02
    5.9799629211e+01    1.5353709412e+02
    5.9899642944e+01    1.5353709412e+02
    5.9999027252e+01    1.5353610229e+02
    6.0097278595e+01    1.5353610229e+02
    6.0198837280e+01    1.5353509521e+02
    6.0298248291e+01    1.5353509521e+02
    6.0399391174e+01    1.5353509521e+02
    6.0497650146e+01    1.5353410339e+02
    6.0596691132e+01    1.5353410339e+02
    6.0698459625e+01    1.5353309631e+02
    6.0797340393e+01    1.5353309631e+02
    6.0898738861e+01    1.5353210449e+02
    6.0997764587e+01    1.5353210449e+02
    6.1097133636e+01    1.5353109741e+02
    6.1198287964e+01    1.5353109741e+02
    6.1297050476e+01    1.5353010559e+02
    6.1398208618e+01    1.5353010559e+02
    6.1499370575e+01    1.5352909851e+02
    6.1597640991e+01    1.5352909851e+02
    6.1698978424e+01    1.5352810669e+02
    6.1797611237e+01    1.5352810669e+02
    6.1898773193e+01    1.5352709961e+02
    6.1997463226e+01    1.5352709961e+02
    6.2099140167e+01    1.5352610779e+02
    6.2197418213e+01    1.5352610779e+02
    6.2298591614e+01    1.5352510071e+02
    6.2397228241e+01    1.5352409363e+02
    6.2498760223e+01    1.5352409363e+02
    6.2597045898e+01    1.5352310181e+02
    6.2698219299e+01    1.5352209473e+02
    6.2796932220e+01    1.5352209473e+02
    6.2898113251e+01    1.5352110291e+02
    6.2999294281e+01    1.5352009583e+02
    6.3098300934e+01    1.5352009583e+02
    6.3199485779e+01    1.5351910400e+02
    6.3297779083e+01    1.5351809692e+02
    6.3398963928e+01    1.5351809692e+02
    6.3497261047e+01    1.5351710510e+02
    6.3598777771e+01    1.5351609802e+02
    6.3697078705e+01    1.5351609802e+02
    6.3798271179e+01    1.5351510620e+02
    6.3896930695e+01    1.5351409912e+02
    6.3998535156e+01    1.5351310730e+02
    6.4096839905e+01    1.5351210022e+02
    6.4198753357e+01    1.5351210022e+02
    6.4297065735e+01    1.5351109314e+02
    6.4398429871e+01    1.5351010132e+02
    6.4497497559e+01    1.5350909424e+02
    6.4599288940e+01    1.5350810242e+02
    6.4697929382e+01    1.5350709534e+02
    6.4799545288e+01    1.5350610352e+02
    6.4898223877e+01    1.5350610352e+02
    6.4999519348e+01    1.5350509644e+02
    6.5099090576e+01    1.5350410461e+02
    6.5197586060e+01    1.5350309753e+02
    6.5299514771e+01    1.5350210571e+02
    6.5398529053e+01    1.5350109863e+02
    6.5496864319e+01    1.5350010681e+02
    6.5598083496e+01    1.5349909973e+02
    6.5696746826e+01    1.5349810791e+02
    6.5798332214e+01    1.5349710083e+02
    6.5896675110e+01    1.5349609375e+02
    6.5998069763e+01    1.5349510193e+02
    6.6099304199e+01    1.5349409485e+02
    6.6197654724e+01    1.5349209595e+02
    6.6298896790e+01    1.5349110413e+02
    6.6397239685e+01    1.5349009705e+02
    6.6498893738e+01    1.5348910522e+02
    6.6597244263e+01    1.5348809814e+02
    6.6698738098e+01    1.5348710632e+02
    6.6797096252e+01    1.5348510742e+02
    6.6898345947e+01    1.5348410034e+02
    6.6996711731e+01    1.5348309326e+02
    6.7097969055e+01    1.5348210144e+02
    6.7199226379e+01    1.5348010254e+02
    6.7297599792e+01    1.5347909546e+02
    6.7399024963e+01    1.5347810364e+02
    6.7497398376e+01    1.5347610474e+02
    6.7598670959e+01    1.5347509766e+02
    6.7697044373e+01    1.5347410583e+02
    6.7798324585e+01    1.5347210693e+02
    6.7896705627e+01    1.5347109985e+02
    6.7997985840e+01    1.5347010803e+02
    6.8099273682e+01    1.5346809387e+02
    6.8197822571e+01    1.5346710205e+02
    6.8299186707e+01    1.5346510315e+02
    6.8397583008e+01    1.5346409607e+02
    6.8498878479e+01    1.5346209717e+02
    6.8597282410e+01    1.5346009827e+02
    6.8698577881e+01    1.5345910645e+02
    6.8796981812e+01    1.5345710754e+02
    6.8898292542e+01    1.5345610046e+02
    6.8996704102e+01    1.5345410156e+02
    6.9098014832e+01    1.5345210266e+02
    6.9199325562e+01    1.5345109558e+02
    6.9297744751e+01    1.5344909668e+02
    6.9399070740e+01    1.5344709778e+02
    6.9497497559e+01    1.5344509888e+02
    6.9598815918e+01    1.5344410706e+02
    6.9697250366e+01    1.5344209290e+02
    6.9798583984e+01    1.5344009399e+02
    6.9897018433e+01    1.5343809509e+02
    6.9998359680e+01    1.5343609619e+02
    7.0096801758e+01    1.5343409729e+02
    7.0198143005e+01    1.5343209839e+02
    7.0299484253e+01    1.5343009949e+02
    7.0397941589e+01    1.5342810059e+02
    7.0499290466e+01    1.5342610168e+02
    7.0597747803e+01    1.5342410278e+02
    7.0699104309e+01    1.5342210388e+02
    7.0797569275e+01    1.5342010498e+02
    7.0898933411e+01    1.5341810608e+02
    7.0997406006e+01    1.5341610718e+02
    7.1098777771e+01    1.5341409302e+02
    7.1197250366e+01    1.5341110229e+02
    7.1298629761e+01    1.5340910339e+02
    7.1397109985e+01    1.5340710449e+02
    7.1498497009e+01    1.5340409851e+02
    7.1596984863e+01    1.5340209961e+02
    7.1698371887e+01    1.5340010071e+02
    7.1796867371e+01    1.5339709473e+02
    7.1898269653e+01    1.5339509583e+02
    7.1996772766e+01    1.5339210510e+02
    7.2098175049e+01    1.5339010620e+02
    7.2196685791e+01    1.5338710022e+02
    7.2298095703e+01    1.5338510132e+02
    7.2396614075e+01    1.5338209534e+02
    7.2498031616e+01    1.5338009644e+02
    7.2599449158e+01    1.5337710571e+02
    7.2697975159e+01    1.5337409973e+02
    7.2799407959e+01    1.5337210083e+02
    7.2897941589e+01    1.5336909485e+02
    7.2999374390e+01    1.5336610413e+02
    7.3097915649e+01    1.5336309814e+02
    7.3199356079e+01    1.5336010742e+02
    7.3297904968e+01    1.5335710144e+02
    7.3399353027e+01    1.5335409546e+02
    7.3497909546e+01    1.5335110474e+02
    7.3599372864e+01    1.5334809875e+02
    7.3697929382e+01    1.5334510803e+02
    7.3799400330e+01    1.5334210205e+02
    7.3897972107e+01    1.5333909607e+02
    7.3996543884e+01    1.5333610535e+02
    7.4098022461e+01    1.5333309937e+02
    7.4196601868e+01    1.5333009338e+02
    7.4298088074e+01    1.5332609558e+02
    7.4396675110e+01    1.5332310486e+02
    7.4498168945e+01    1.5332009888e+02
    7.4596771240e+01    1.5331610107e+02
    7.4698272705e+01    1.5331309509e+02
    7.4796875000e+01    1.5330909729e+02
    7.4898384094e+01    1.5330610657e+02
    7.4997001648e+01    1.5330209351e+02
    7.5098518372e+01    1.5329809570e+02
    7.5197135925e+01    1.5329510498e+02
    7.5298660278e+01    1.5329110718e+02
    7.5397293091e+01    1.5328709412e+02
    7.5498825073e+01    1.5328309631e+02
    7.5597465515e+01    1.5327909851e+02
    7.5699005127e+01    1.5327510071e+02
    7.5797645569e+01    1.5327209473e+02
    7.5899200439e+01    1.5326710510e+02
    7.5997848511e+01    1.5326310730e+02
    7.6099403381e+01    1.5325909424e+02
    7.6198066711e+01    1.5325509644e+02
    7.6296730042e+01    1.5325109863e+02
    7.6398300171e+01    1.5324710083e+02
    7.6496971130e+01    1.5324209595e+02
    7.6598548889e+01    1.5323809814e+02
    7.6697227478e+01    1.5323309326e+02
    7.6798812866e+01    1.5322909546e+02
    7.6897506714e+01    1.5322410583e+02
    7.6999099731e+01    1.5322010803e+02
    7.7097793579e+01    1.5321510315e+02
    7.7196495056e+01    1.5321009827e+02
    7.7298095703e+01    1.5320509338e+02
    7.7396804810e+01    1.5320109558e+02
    7.7498420715e+01    1.5319610596e+02
    7.7597129822e+01    1.5319110107e+02
    7.7698753357e+01    1.5318609619e+02
    7.7797470093e+01    1.5318009949e+02
    7.7899101257e+01    1.5317509460e+02
    7.7997825623e+01    1.5317010498e+02
    7.8096557617e+01    1.5316510010e+02
    7.8198196411e+01    1.5315910339e+02
    7.8296936035e+01    1.5315409851e+02
    7.8398582458e+01    1.5314810181e+02
    7.8497329712e+01    1.5314309692e+02
    7.8598983765e+01    1.5313710022e+02
    7.8697738647e+01    1.5313110352e+02
    7.8796493530e+01    1.5312609863e+02
    7.8898155212e+01    1.5312010193e+02
    7.8996917725e+01    1.5311410522e+02
    7.9098587036e+01    1.5310710144e+02
    7.9197357178e+01    1.5310110474e+02
    7.9299034119e+01    1.5309510803e+02
    7.9397811890e+01    1.5308909607e+02
    7.9496589661e+01    1.5308309937e+02
    7.9598274231e+01    1.5307609558e+02
    7.9697059631e+01    1.5307009888e+02
    7.9798751831e+01    1.5306309509e+02
    7.9897537231e+01    1.5305610657e+02
    7.9999237061e+01    1.5304910278e+02
    8.0098037720e+01    1.5304209900e+02
    8.0196830750e+01    1.5303610229e+02
    8.0298538208e+01    1.5302810669e+02
    8.0397346497e+01    1.5302110291e+02
    8.0499061584e+01    1.5301409912e+02
    8.0597869873e+01    1.5300709534e+02
    8.0696685791e+01    1.5299909973e+02
    8.0798400879e+01    1.5299209595e+02
    8.0897216797e+01    1.5298410034e+02
    8.0998947144e+01    1.5297610474e+02
    8.1097770691e+01    1.5296809387e+02
    8.1196594238e+01    1.5296009827e+02
    8.1298324585e+01    1.5295210266e+02
    8.1397155762e+01    1.5294410706e+02
    8.1498893738e+01    1.5293609619e+02
    8.1597724915e+01    1.5292709351e+02
    8.1696556091e+01    1.5291909790e+02
    8.1798301697e+01    1.5291009521e+02
    8.1897132874e+01    1.5290209961e+02
    8.1998878479e+01    1.5289309692e+02
    8.2097717285e+01    1.5288409424e+02
    8.2196563721e+01    1.5287510681e+02
    8.2298309326e+01    1.5286509705e+02
    8.2397155762e+01    1.5285609436e+02
    8.2498908997e+01    1.5284609985e+02
    8.2597755432e+01    1.5283709717e+02
    8.2696601868e+01    1.5282710266e+02
    8.2798355103e+01    1.5281709290e+02
    8.2897209167e+01    1.5280709839e+02
    8.2998970032e+01    1.5279710388e+02
    8.3097816467e+01    1.5278709412e+02
    8.3196670532e+01    1.5277709961e+02
    8.3298431396e+01    1.5276609802e+02
    8.3397285461e+01    1.5275509644e+02
    8.3499046326e+01    1.5274409485e+02
    8.3597900391e+01    1.5273410034e+02
    8.3696754456e+01    1.5272309875e+02
    8.3798515320e+01    1.5271110535e+02
    8.3897377014e+01    1.5270010376e+02
    8.3999137878e+01    1.5268809509e+02
    8.4097991943e+01    1.5267709351e+02
    8.4196838379e+01    1.5266510010e+02
    8.4298599243e+01    1.5265310669e+02
    8.4397453308e+01    1.5264109802e+02
    8.4499214172e+01    1.5262809753e+02
    8.4598060608e+01    1.5261610413e+02
    8.4696907043e+01    1.5260310364e+02
    8.4798660278e+01    1.5259010315e+02
    8.4897506714e+01    1.5257710266e+02
    8.4999252319e+01    1.5256410217e+02
    8.5098098755e+01    1.5255009460e+02
    8.5196937561e+01    1.5253709412e+02
    8.5298675537e+01    1.5252310181e+02
    8.5397506714e+01    1.5250909424e+02
    8.5499244690e+01    1.5249510193e+02
    8.5598075867e+01    1.5248109436e+02
    8.5696899414e+01    1.5246609497e+02
    8.5798629761e+01    1.5245109558e+02
    8.5897445679e+01    1.5243710327e+02
    8.5999168396e+01    1.5242109680e+02
    8.6097976685e+01    1.5240609741e+02
    8.6196777344e+01    1.5239109802e+02
    8.6298484802e+01    1.5237510681e+02
    8.6397277832e+01    1.5235910034e+02
    8.6498970032e+01    1.5234309387e+02
    8.6597755432e+01    1.5232609558e+02
    8.6696533203e+01    1.5231010437e+02
    8.6798210144e+01    1.5229310608e+02
    8.6896972656e+01    1.5227610779e+02
    8.6998641968e+01    1.5225909424e+02
    8.7097389221e+01    1.5224110413e+02
    8.7199043274e+01    1.5222309875e+02
    8.7297782898e+01    1.5220509338e+02
    8.7396514893e+01    1.5218710327e+02
    8.7498146057e+01    1.5216909790e+02
    8.7596862793e+01    1.5215010071e+02
    8.7698471069e+01    1.5213110352e+02
    8.7797172546e+01    1.5211210632e+02
    8.7898773193e+01    1.5209210205e+02
    8.7997451782e+01    1.5207310486e+02
    8.8099029541e+01    1.5205310059e+02
    8.8197700500e+01    1.5203309631e+02
    8.8296356201e+01    1.5201210022e+02
    8.8397903442e+01    1.5199110413e+02
    8.8496536255e+01    1.5197010803e+02
    8.8598068237e+01    1.5194909668e+02
    8.8696678162e+01    1.5192810059e+02
    8.8798187256e+01    1.5190510559e+02
    8.8896781921e+01    1.5188310242e+02
    8.8998260498e+01    1.5186109924e+02
    8.9096832275e+01    1.5183810425e+02
    8.9198287964e+01    1.5181509399e+02
    8.9296836853e+01    1.5179209900e+02
    8.9398269653e+01    1.5176809692e+02
    8.9496795654e+01    1.5174409485e+02
    8.9598205566e+01    1.5171910095e+02
    8.9696701050e+01    1.5169509888e+02
    8.9798080444e+01    1.5167010498e+02
    8.9896553040e+01    1.5164509583e+02
    8.9997901917e+01    1.5161909485e+02
    9.0096343994e+01    1.5159309387e+02
    9.0197662354e+01    1.5156709290e+02
    9.0298965454e+01    1.5154010010e+02
    9.0397361755e+01    1.5151310730e+02
    9.0498634338e+01    1.5148609924e+02
    9.0597000122e+01    1.5145809937e+02
    9.0698234558e+01    1.5143009949e+02
    9.0796562195e+01    1.5140209961e+02
    9.0897766113e+01    1.5137310791e+02
    9.0998947144e+01    1.5134410095e+02
    9.1097229004e+01    1.5131509399e+02
    9.1198371887e+01    1.5128509521e+02
    9.1296615601e+01    1.5125509644e+02
    9.1397720337e+01    1.5122410583e+02
    9.1498817444e+01    1.5119309998e+02
    9.1597000122e+01    1.5116209412e+02
    9.1698051453e+01    1.5113009644e+02
    9.1799087524e+01    1.5109710693e+02
    9.1897216797e+01    1.5106509399e+02
    9.1998214722e+01    1.5103210449e+02
    9.2096305847e+01    1.5099909973e+02
    9.2197257996e+01    1.5096510315e+02
    9.2298194885e+01    1.5093110657e+02
    9.2399108887e+01    1.5089610291e+02
    9.2497116089e+01    1.5086109924e+02
    9.2597991943e+01    1.5082510376e+02
    9.2698844910e+01    1.5078909302e+02
    9.2796791077e+01    1.5075410461e+02
    9.2897598267e+01    1.5071609497e+02
    9.2998382568e+01    1.5067910767e+02
    9.3099151611e+01    1.5064109802e+02
    9.3197013855e+01    1.5060409546e+02
    9.3297729492e+01    1.5056509399e+02
    9.3398422241e+01    1.5052510071e+02
    9.3499092102e+01    1.5048510742e+02
    9.3596862793e+01    1.5044610596e+02
    9.3697494507e+01    1.5040609741e+02
    9.3798095703e+01    1.5036410522e+02
    9.3898666382e+01    1.5032310486e+02
    9.3996345520e+01    1.5028210449e+02
    9.4096878052e+01    1.5023910522e+02
    9.4197380066e+01    1.5019610596e+02
    9.4297859192e+01    1.5015209961e+02
    9.4398315430e+01    1.5010809326e+02
    9.4498748779e+01    1.5006309509e+02
    9.4596282959e+01    1.5002009583e+02
    9.4696662903e+01    1.4997410583e+02
    9.4797019958e+01    1.4992810059e+02
    9.4897346497e+01    1.4988110352e+02
    9.4997657776e+01    1.4983410645e+02
    9.5097938538e+01    1.4978610229e+02
    9.5198188782e+01    1.4973809814e+02
    9.5298416138e+01    1.4968910217e+02
    9.5398620605e+01    1.4964010620e+02
    9.5498794556e+01    1.4959010315e+02
    9.5598945618e+01    1.4954010010e+02
    9.5699066162e+01    1.4948910522e+02
    9.5796302795e+01    1.4943910217e+02
    9.5896377563e+01    1.4938710022e+02
    9.5996429443e+01    1.4933410645e+02
    9.6096450806e+01    1.4928109741e+02
    9.6196449280e+01    1.4922810364e+02
    9.6296417236e+01    1.4917309570e+02
    9.6396369934e+01    1.4911810303e+02
    9.6496292114e+01    1.4906309509e+02
    9.6599044800e+01    1.4900610352e+02
    9.6698913574e+01    1.4894909668e+02
    9.6798759460e+01    1.4889210510e+02
    9.6898582458e+01    1.4883410645e+02
    9.6998382568e+01    1.4877610779e+02
    9.7098152161e+01    1.4871710205e+02
    9.7197898865e+01    1.4865809631e+02
    9.7297622681e+01    1.4859710693e+02
    9.7397323608e+01    1.4853709412e+02
    9.7497001648e+01    1.4847610474e+02
    9.7596649170e+01    1.4841409302e+02
    9.7696281433e+01    1.4835110474e+02
    9.7798721313e+01    1.4828610229e+02
    9.7898300171e+01    1.4822309875e+02
    9.7997856140e+01    1.4815809631e+02
    9.8097389221e+01    1.4809309387e+02
    9.8196899414e+01    1.4802810669e+02
    9.8296379089e+01    1.4796110535e+02
    9.8398681641e+01    1.4789309692e+02
    9.8498115540e+01    1.4782510376e+02
    9.8597526550e+01    1.4775709534e+02
    9.8696914673e+01    1.4768809509e+02
    9.8796279907e+01    1.4761909485e+02
    9.8898460388e+01    1.4754710388e+02
    9.8997779846e+01    1.4747610474e+02
    9.9097068787e+01    1.4740510559e+02
    9.9196342468e+01    1.4733309937e+02
    9.9298423767e+01    1.4725810242e+02
    9.9397644043e+01    1.4718510437e+02
    9.9496841431e+01    1.4711109924e+02
    9.9598854065e+01    1.4703410339e+02
    9.9697998047e+01    1.4695809937e+02
    9.9797126770e+01    1.4688211060e+02
    9.9896232605e+01    1.4680609131e+02
    9.9998138428e+01    1.4672610474e+02
    1.0009719086e+02    1.4664810181e+02
    1.0019622040e+02    1.4656909180e+02
    1.0029805756e+02    1.4648809814e+02
    1.0039704132e+02    1.4640811157e+02
    1.0049883270e+02    1.4632510376e+02
    1.0059777069e+02    1.4624310303e+02
    1.0069667816e+02    1.4616110229e+02
    1.0079840088e+02    1.4607611084e+02
    1.0089727020e+02    1.4599209595e+02
    1.0099893951e+02    1.4590609741e+02
    1.0109777069e+02    1.4582110596e+02
    1.0119657135e+02    1.4573510742e+02
    1.0129817200e+02    1.4564610291e+02
    1.0139710236e+02    1.4555909729e+02
    1.0149865723e+02    1.4546910095e+02
    1.0159738159e+02    1.4538009644e+02
    1.0169889069e+02    1.4528810120e+02
    1.0179756165e+02    1.4519808960e+02
    1.0189620972e+02    1.4510809326e+02
    1.0199765778e+02    1.4501409912e+02
    1.0209626770e+02    1.4492210388e+02
    1.0219766998e+02    1.4482611084e+02
    1.0229624176e+02    1.4473309326e+02
    1.0239759064e+02    1.4463610840e+02
    1.0249893188e+02    1.4453810120e+02
    1.0259742737e+02    1.4444210815e+02
    1.0269872284e+02    1.4434310913e+02
    1.0279718018e+02    1.4424510193e+02
    1.0289842987e+02    1.4414511108e+02
    1.0299684906e+02    1.4404609680e+02
    1.0309805298e+02    1.4394309998e+02
    1.0319641876e+02    1.4384310913e+02
    1.0329757690e+02    1.4373910522e+02
    1.0339871979e+02    1.4363409424e+02
    1.0349703217e+02    1.4353210449e+02
    1.0359812164e+02    1.4342610168e+02
    1.0369656372e+02    1.4332110596e+02
    1.0379760742e+02    1.4321411133e+02
    1.0389862823e+02    1.4310510254e+02
    1.0399683380e+02    1.4299909973e+02
    1.0409780884e+02    1.4288809204e+02
    1.0419876862e+02    1.4277709961e+02
    1.0429689789e+02    1.4266909790e+02
    1.0439821625e+02    1.4255609131e+02
    1.0449630737e+02    1.4244509888e+02
    1.0459718323e+02    1.4233110046e+02
    1.0469802856e+02    1.4221609497e+02
    1.0479885101e+02    1.4210009766e+02
    1.0489685822e+02    1.4198709106e+02
    1.0499764252e+02    1.4187010193e+02
    1.0509839630e+02    1.4175109863e+02
    1.0519634247e+02    1.4163610840e+02
    1.0529705048e+02    1.4151609802e+02
    1.0539775085e+02    1.4139511108e+02
    1.0549842072e+02    1.4127410889e+02
    1.0559645081e+02    1.4115509033e+02
    1.0569706726e+02    1.4103109741e+02
    1.0579792786e+02    1.4090710449e+02
    1.0589852142e+02    1.4078210449e+02
    1.0599629211e+02    1.4066009521e+02
    1.0609751129e+02    1.4053311157e+02
    1.0619819641e+02    1.4040509033e+02
    1.0629869843e+02    1.4027709961e+02
    1.0639724731e+02    1.4015109253e+02
    1.0649822235e+02    1.4002011108e+02
    1.0659866333e+02    1.3989010620e+02
    1.0669663239e+02    1.3976210022e+02
    1.0679701996e+02    1.3962908936e+02
    1.0689826202e+02    1.3949510193e+02
    1.0699861145e+02    1.3936109924e+02
    1.0709616089e+02    1.3923010254e+02
    1.0719741821e+02    1.3909310913e+02
    1.0729821014e+02    1.3895610046e+02
    1.0739681244e+02    1.3882110596e+02
    1.0749741364e+02    1.3868209839e+02
    1.0759683228e+02    1.3854409790e+02
    1.0769705200e+02    1.3840409851e+02
    1.0779728699e+02    1.3826309204e+02
    1.0789882660e+02    1.3811911011e+02
    1.0799620819e+02    1.3798110962e+02
    1.0809702301e+02    1.3783609009e+02
    1.0819876862e+02    1.3769009399e+02
    1.0829702759e+02    1.3754710388e+02
    1.0839874268e+02    1.3739910889e+02
    1.0849669647e+02    1.3725509644e+02
    1.0859786224e+02    1.3710610962e+02
    1.0869699097e+02    1.3695809937e+02
    1.0879802704e+02    1.3680709839e+02
    1.0889711761e+02    1.3665811157e+02
    1.0899812317e+02    1.3650509644e+02
    1.0909700012e+02    1.3635510254e+02
    1.0919692230e+02    1.3620210266e+02
    1.0929888916e+02    1.3604510498e+02
    1.0939736938e+02    1.3589208984e+02
    1.0949809265e+02    1.3573510742e+02
    1.0959844971e+02    1.3557809448e+02
    1.0969827271e+02    1.3542010498e+02
    1.0979807281e+02    1.3526210022e+02
    1.0989785004e+02    1.3510310364e+02
    1.0999620819e+02    1.3494509888e+02
    1.1009662628e+02    1.3478311157e+02
    1.1019756317e+02    1.3461911011e+02
    1.1029778290e+02    1.3445610046e+02
    1.1039830780e+02    1.3429110718e+02
    1.1049797058e+02    1.3412609863e+02
    1.1059828949e+02    1.3396009827e+02
    1.1069843292e+02    1.3379309082e+02
    1.1079802704e+02    1.3362509155e+02
    1.1089620972e+02    1.3346009827e+02
    1.1099620819e+02    1.3329010010e+02
    1.1109677887e+02    1.3311911011e+02
    1.1119741821e+02    1.3294610596e+02
    1.1129692841e+02    1.3277410889e+02
    1.1139642334e+02    1.3260211182e+02
    1.1149623108e+02    1.3242810059e+02
    1.1159622192e+02    1.3225210571e+02
    1.1169651031e+02    1.3207611084e+02
    1.1179869080e+02    1.3189511108e+02
    1.1189808655e+02    1.3171810913e+02
    1.1199797821e+02    1.3153909302e+02
    1.1209735107e+02    1.3136010742e+02
    1.1219730377e+02    1.3117910767e+02
    1.1229663849e+02    1.3099810791e+02
    1.1239665985e+02    1.3081509399e+02
    1.1249871826e+02    1.3062809753e+02
    1.1259799957e+02    1.3044409180e+02
    1.1269789886e+02    1.3025909424e+02
    1.1279827118e+02    1.3007209778e+02
    1.1289766693e+02    1.2988510132e+02
    1.1299688721e+02    1.2969808960e+02
    1.1309609222e+02    1.2951010132e+02
    1.1319631195e+02    1.2931909180e+02
    1.1329620361e+02    1.2912809753e+02
    1.1339810944e+02    1.2893209839e+02
    1.1349844360e+02    1.2873809814e+02
    1.1359851074e+02    1.2854409790e+02
    1.1369828033e+02    1.2834909058e+02
    1.1379811096e+02    1.2815409851e+02
    1.1389736176e+02    1.2795809937e+02
    1.1399677277e+02    1.2776110077e+02
    1.1409710693e+02    1.2756110382e+02
    1.1419770050e+02    1.2736009979e+02
    1.1429783630e+02    1.2715910339e+02
    1.1439720917e+02    1.2695909882e+02
    1.1449786377e+02    1.2675510406e+02
    1.1459684753e+02    1.2655310059e+02
    1.1469663239e+02    1.2634909821e+02
    1.1479833221e+02    1.2613909912e+02
    1.1489778137e+02    1.2593409729e+02
    1.1499851227e+02    1.2572509766e+02
    1.1509780121e+02    1.2551809692e+02
    1.1519670105e+02    1.2531110382e+02
    1.1529833221e+02    1.2509709930e+02
    1.1539737701e+02    1.2488809967e+02
    1.1549755859e+02    1.2467510223e+02
    1.1559725952e+02    1.2446209717e+02
    1.1569609833e+02    1.2425009918e+02
    1.1579766846e+02    1.2403209686e+02
    1.1589647675e+02    1.2381809998e+02
    1.1599770355e+02    1.2359909821e+02
    1.1609681702e+02    1.2338210297e+02
    1.1619677734e+02    1.2316410065e+02
    1.1629828644e+02    1.2294010162e+02
    1.1639794159e+02    1.2272010040e+02
    1.1649701691e+02    1.2250009918e+02
    1.1659710693e+02    1.2227709961e+02
    1.1669683838e+02    1.2205410004e+02
    1.1679692841e+02    1.2182910156e+02
    1.1689613342e+02    1.2160610199e+02
    1.1699755859e+02    1.2137609863e+02
    1.1709673309e+02    1.2115010071e+02
    1.1719712830e+02    1.2092109680e+02
    1.1729666901e+02    1.2069210052e+02
    1.1739852905e+02    1.2045809937e+02
    1.1749669647e+02    1.2023110199e+02
    1.1759786224e+02    1.1999610138e+02
    1.1769689178e+02    1.1976509857e+02
    1.1779673004e+02    1.1953109741e+02
    1.1789759064e+02    1.1929409790e+02
    1.1799849701e+02    1.1905609894e+02
    1.1809808350e+02    1.1882019806e+02
    1.1819769287e+02    1.1858319855e+02
    1.1829691315e+02    1.1834629822e+02
    1.1839697266e+02    1.1810649872e+02
    1.1849652863e+02    1.1786689758e+02
    1.1859748840e+02    1.1762300110e+02
    1.1869719696e+02    1.1738120270e+02
    1.1879631042e+02    1.1713990021e+02
    1.1889640808e+02    1.1689530182e+02
    1.1899645996e+02    1.1664980316e+02
    1.1909855652e+02    1.1639839935e+02
    1.1919814301e+02    1.1615229797e+02
    1.1929701996e+02    1.1590699768e+02
    1.1939695740e+02    1.1565810394e+02
    1.1949694061e+02    1.1540830231e+02
    1.1959832764e+02    1.1515399933e+02
    1.1969602203e+02    1.1490799713e+02
    1.1979749298e+02    1.1465160370e+02
    1.1989601898e+02    1.1440170288e+02
    1.1999794769e+02    1.1414230347e+02
    1.2009647369e+02    1.1389060211e+02
    1.2019602203e+02    1.1363549805e+02
    1.2029753876e+02    1.1337429810e+02
    1.2039631653e+02    1.1311930084e+02
    1.2049783325e+02    1.1285630035e+02
    1.2059649658e+02    1.1259980011e+02
    1.2069833374e+02    1.1233409882e+02
    1.2079682922e+02    1.1207630157e+02
    1.2089862061e+02    1.1180879974e+02
    1.2099735260e+02    1.1154859924e+02
    1.2109857178e+02    1.1128079987e+02
    1.2119705963e+02    1.1101950073e+02
    1.2129827118e+02    1.1074990082e+02
    1.2139675140e+02    1.1048680115e+02
    1.2149796295e+02    1.1021549988e+02
    1.2159718323e+02    1.0994860077e+02
    1.2169599152e+02    1.0968190002e+02
    1.2179756927e+02    1.0940689850e+02
    1.2189617157e+02    1.0913909912e+02
    1.2199780273e+02    1.0886209869e+02
    1.2209667969e+02    1.0859179688e+02
    1.2219786835e+02    1.0831420135e+02
    1.2229631805e+02    1.0804329681e+02
    1.2239794922e+02    1.0776270294e+02
    1.2249678040e+02    1.0748909760e+02
    1.2259832001e+02    1.0720700073e+02
    1.2269716644e+02    1.0693150330e+02
    1.2279605103e+02    1.0665509796e+02
    1.2289723206e+02    1.0637139893e+02
    1.2299841309e+02    1.0608679962e+02
    1.2309710693e+02    1.0580830383e+02
    1.2319841003e+02    1.0552159882e+02
    1.2329685211e+02    1.0524220276e+02
    1.2339833069e+02    1.0495330048e+02
    1.2349696350e+02    1.0467160034e+02
    1.2359838104e+02    1.0438110352e+02
    1.2369712830e+02    1.0409750366e+02
    1.2379853058e+02    1.0380529785e+02
    1.2389714813e+02    1.0352030182e+02
    1.2399859619e+02    1.0322630310e+02
    1.2409751129e+02    1.0293890381e+02
    1.2419615936e+02    1.0265129852e+02
    1.2429752350e+02    1.0235500336e+02
    1.2439626312e+02    1.0206559753e+02
    1.2449761200e+02    1.0176770020e+02
    1.2459631348e+02    1.0147669983e+02
    1.2469763184e+02    1.0117710114e+02
    1.2479633331e+02    1.0088449860e+02
    1.2489771271e+02    1.0058319855e+02
    1.2499629211e+02    1.0028929901e+02
    1.2509764099e+02    9.9986396790e+01
    1.2519622040e+02    9.9690902710e+01
    1.2529750824e+02    9.9386497498e+01
    1.2539608002e+02    9.9089500427e+01
    1.2549736786e+02    9.8783401489e+01
    1.2559591675e+02    9.8484901428e+01
    1.2569718170e+02    9.8177299500e+01
    1.2579840851e+02    9.7869003296e+01
    1.2589685059e+02    9.7568397522e+01
    1.2599796295e+02    9.7258796692e+01
    1.2609629822e+02    9.6957000732e+01
    1.2619731140e+02    9.6646202087e+01
    1.2629826355e+02    9.6334701538e+01
    1.2639643860e+02    9.6031097412e+01
    1.2649729156e+02    9.5718299866e+01
    1.2659808350e+02    9.5404998779e+01
    1.2669611359e+02    9.5099502563e+01
    1.2679679871e+02    9.4784896851e+01
    1.2689743805e+02    9.4469802856e+01
    1.2699801636e+02    9.4153999329e+01
    1.2709855652e+02    9.3837501526e+01
    1.2719632721e+02    9.3529098511e+01
    1.2729676056e+02    9.3211502075e+01
    1.2739714050e+02    9.2893302917e+01
    1.2749748230e+02    9.2574501038e+01
    1.2759776306e+02    9.2255104065e+01
    1.2769798279e+02    9.1935096741e+01
    1.2779815674e+02    9.1614501953e+01
    1.2789830017e+02    9.1293296814e+01
    1.2799838257e+02    9.0971504211e+01
    1.2809840393e+02    9.0649200439e+01
    1.2819839478e+02    9.0326301575e+01
    1.2829832458e+02    9.0002799988e+01
    1.2839822388e+02    8.9678703308e+01
    1.2849807739e+02    8.9354103088e+01
    1.2859786987e+02    8.9028900146e+01
    1.2869761658e+02    8.8703102112e+01
    1.2879733276e+02    8.8376701355e+01
    1.2889698792e+02    8.8049797058e+01
    1.2899661255e+02    8.7722396851e+01
    1.2909619141e+02    8.7394302368e+01
    1.2919842529e+02    8.7056900024e+01
    1.2929791260e+02    8.6727699280e+01
    1.2939735413e+02    8.6398002625e+01
    1.2949678040e+02    8.6067802429e+01
    1.2959614563e+02    8.5736999512e+01
    1.2969816589e+02    8.5396598816e+01
    1.2979745483e+02    8.5064697266e+01
    1.2989671326e+02    8.4732299805e+01
    1.2999841309e+02    8.4390899658e+01
    1.3009759521e+02    8.4057403564e+01
    1.3019674683e+02    8.3723297119e+01
    1.3029852295e+02    8.3379600525e+01
    1.3039759827e+02    8.3044403076e+01
    1.3049664307e+02    8.2708702087e+01
    1.3059747314e+02    8.2366195679e+01
    1.3069645691e+02    8.2029403687e+01
    1.3079780579e+02    8.1683898926e+01
    1.3089645386e+02    8.1347000122e+01
    1.3099783325e+02    8.1000000000e+01
    1.3109837341e+02    8.0655303955e+01
    1.3119647217e+02    8.0318405151e+01
    1.3129652405e+02    7.9973999023e+01
    1.3139750671e+02    7.9625900269e+01
    1.3149780273e+02    7.9279403687e+01
    1.3159779358e+02    7.8933502197e+01
    1.3169764709e+02    7.8587402344e+01
    1.3179768372e+02    7.8239898682e+01
    1.3189796448e+02    7.7891098022e+01
    1.3199778748e+02    7.7543304443e+01
    1.3209642029e+02    7.7198898315e+01
    1.3219639587e+02    7.6849304199e+01
    1.3229791260e+02    7.6493698120e+01
    1.3239770508e+02    7.6143501282e+01
    1.3249642944e+02    7.5796501160e+01
    1.3259796143e+02    7.5438995361e+01
    1.3269752502e+02    7.5087905884e+01
    1.3279809570e+02    7.4732696533e+01
    1.3289642334e+02    7.4384704590e+01
    1.3299754333e+02    7.4026397705e+01
    1.3309857178e+02    7.3667701721e+01
    1.3319740295e+02    7.3316299438e+01
    1.3329864502e+02    7.2955795288e+01
    1.3339735413e+02    7.2603698730e+01
    1.3349885559e+02    7.2241104126e+01
    1.3359776306e+02    7.1887298584e+01
    1.3369886780e+02    7.1524902344e+01
    1.3379708862e+02    7.1172500610e+01
    1.3389797974e+02    7.0809799194e+01
    1.3399891663e+02    7.0446502686e+01
    1.3409759521e+02    7.0090805054e+01
    1.3419784546e+02    6.9728897095e+01
    1.3429815674e+02    6.9366195679e+01
    1.3439851379e+02    6.9002899170e+01
    1.3449815369e+02    6.8641601562e+01
    1.3459742737e+02    6.8281097412e+01
    1.3469786072e+02    6.7916000366e+01
    1.3479763794e+02    6.7552703857e+01
    1.3489729309e+02    6.7189300537e+01
    1.3499705505e+02    6.6825103760e+01
    1.3509718323e+02    6.6458999634e+01
    1.3519876099e+02    6.6087203979e+01
    1.3529772949e+02    6.5724395752e+01
    1.3539668274e+02    6.5361206055e+01
    1.3549794006e+02    6.4989105225e+01
    1.3559881592e+02    6.4617904663e+01
    1.3569755554e+02    6.4254104614e+01
    1.3579861450e+02    6.3881301880e+01
    1.3589675903e+02    6.3518798828e+01
    1.3599726868e+02    6.3147102356e+01
    1.3609776306e+02    6.2775001526e+01
    1.3619888306e+02    6.2400100708e+01
    1.3629676819e+02    6.2036899567e+01
    1.3639688110e+02    6.1664901733e+01
    1.3649708557e+02    6.1292098999e+01
    1.3659709167e+02    6.0919700623e+01
    1.3669708252e+02    6.0546798706e+01
    1.3679713440e+02    6.0173400879e+01
    1.3689709473e+02    5.9799900055e+01
    1.3699673462e+02    5.9427101135e+01
    1.3709669495e+02    5.9052799225e+01
    1.3719860840e+02    5.8670700073e+01
    1.3729823303e+02    5.8296798706e+01
    1.3739779663e+02    5.7922801971e+01
    1.3749696350e+02    5.7549900055e+01
    1.3759861755e+02    5.7167201996e+01
    1.3769837952e+02    5.6791301727e+01
    1.3779725647e+02    5.6418399811e+01
    1.3789857483e+02    5.6035800934e+01
    1.3799740601e+02    5.5662300110e+01
    1.3809817505e+02    5.5281200409e+01
    1.3819703674e+02    5.4906902313e+01
    1.3829815674e+02    5.4523700714e+01
    1.3839706421e+02    5.4148601532e+01
    1.3849783325e+02    5.3765899658e+01
    1.3859797668e+02    5.3385501862e+01
    1.3869900513e+02    5.3001300812e+01
    1.3879913330e+02    5.2620201111e+01
    1.3889898682e+02    5.2239799500e+01
    1.3899700928e+02    5.1866100311e+01
    1.3909904480e+02    5.1476902008e+01
    1.3919865417e+02    5.1096500397e+01
    1.3929833984e+02    5.0715599060e+01
    1.3939770508e+02    5.0335601807e+01
    1.3949697876e+02    4.9955699921e+01
    1.3959909058e+02    4.9564701080e+01
    1.3969837952e+02    4.9184200287e+01
    1.3979742432e+02    4.8804298401e+01
    1.3989883423e+02    4.8415199280e+01
    1.3999786377e+02    4.8034900665e+01
    1.4009912109e+02    4.7645797729e+01
    1.4019789124e+02    4.7265998840e+01
    1.4029902649e+02    4.6876899719e+01
    1.4039767456e+02    4.6497100830e+01
    1.4049865723e+02    4.6108100891e+01
    1.4059718323e+02    4.5728401184e+01
    1.4069804382e+02    4.5339401245e+01
    1.4079885864e+02    4.4950401306e+01
    1.4089721680e+02    4.4570701599e+01
    1.4099790955e+02    4.4181800842e+01
    1.4109855652e+02    4.3792900085e+01
    1.4119912720e+02    4.3403999329e+01
    1.4129727173e+02    4.3024398804e+01
    1.4139775085e+02    4.2635601044e+01
    1.4149818420e+02    4.2246803284e+01
    1.4159855652e+02    4.1858001709e+01
    1.4169888306e+02    4.1469299316e+01
    1.4179931641e+02    4.1080001831e+01
    1.4189715576e+02    4.0700599670e+01
    1.4199734497e+02    4.0312000275e+01
    1.4209750366e+02    3.9923400879e+01
    1.4219761658e+02    3.9534797668e+01
    1.4229797363e+02    3.9145099640e+01
    1.4239830017e+02    3.8755500793e+01
    1.4249829102e+02    3.8367099762e+01
    1.4259823608e+02    3.7978698730e+01
    1.4269871521e+02    3.7588199615e+01
    1.4279875183e+02    3.7199302673e+01
    1.4289860535e+02    3.6811100006e+01
    1.4299873352e+02    3.6421600342e+01
    1.4309919739e+02    3.6030899048e+01
    1.4319720459e+02    3.5649600983e+01
    1.4329930115e+02    3.5252403259e+01
    1.4339901733e+02    3.4864402771e+01
    1.4349867249e+02    3.4476501465e+01
    1.4359832764e+02    3.4088699341e+01
    1.4369810486e+02    3.3700401306e+01
    1.4379771423e+02    3.3312698364e+01
    1.4389729309e+02    3.2924999237e+01
    1.4399923706e+02    3.2528301239e+01
    1.4409878540e+02    3.2140800476e+01
    1.4419830322e+02    3.1753400803e+01
    1.4429783630e+02    3.1366100311e+01
    1.4439732361e+02    3.0978801727e+01
    1.4449919128e+02    3.0582401276e+01
    1.4459866333e+02    3.0195400238e+01
    1.4469813538e+02    2.9808399200e+01
    1.4479757690e+02    2.9421501160e+01
    1.4489939880e+02    2.9025501251e+01
    1.4499884033e+02    2.8638771057e+01
    1.4509826660e+02    2.8252159119e+01
    1.4519770813e+02    2.7865640640e+01
    1.4529949951e+02    2.7470020294e+01
    1.4539892578e+02    2.7083709717e+01
    1.4549894714e+02    2.6695220947e+01
    1.4559837341e+02    2.6309110641e+01
    1.4569781494e+02    2.5923110962e+01
    1.4579960632e+02    2.5528049469e+01
    1.4589904785e+02    2.5142290115e+01
    1.4599864197e+02    2.4756071091e+01
    1.4609808350e+02    2.4370550156e+01
    1.4619755554e+02    2.3985149384e+01
    1.4629939270e+02    2.3590709686e+01
    1.4639886475e+02    2.3205579758e+01
    1.4649836731e+02    2.2820579529e+01
    1.4659786987e+02    2.2435720444e+01
    1.4669737244e+02    2.2051010132e+01
    1.4679928589e+02    2.1657291412e+01
    1.4689883423e+02    2.1272871017e+01
    1.4699868774e+02    2.0887479782e+01
    1.4709945679e+02    2.0498861313e+01
    1.4719905090e+02    2.0114919662e+01
    1.4729867554e+02    1.9731163025e+01
    1.4739831543e+02    1.9347576141e+01
    1.4749798584e+02    1.8964164734e+01
    1.4759767151e+02    1.8580928802e+01
    1.4769975281e+02    1.8188760757e+01
    1.4779948425e+02    1.7805910110e+01
    1.4789926147e+02    1.7423259735e+01
    1.4799905396e+02    1.7040809631e+01
    1.4809974670e+02    1.6655189514e+01
    1.4819958496e+02    1.6273151398e+01
    1.4829946899e+02    1.5891330719e+01
    1.4839938354e+02    1.5509730339e+01
    1.4849931335e+02    1.5128350258e+01
    1.4859928894e+02    1.4747210503e+01
    1.4869929504e+02    1.4366300583e+01
    1.4879934692e+02    1.3985620499e+01
    1.4889942932e+02    1.3605190277e+01
    1.4899955750e+02    1.3225000381e+01
    1.4909971619e+02    1.2845080376e+01
    1.4919752502e+02    1.2474451065e+01
    1.4929774475e+02    1.2095040321e+01
    1.4939817810e+02    1.1715351105e+01
    1.4949850464e+02    1.1336490631e+01
    1.4959887695e+02    1.0957901001e+01
    1.4969943237e+02    1.0579050064e+01
    1.4979989624e+02    1.0201040268e+01
    1.4989830017e+02    9.8312101364e+00
    1.4999885559e+02    9.4537906647e+00
    1.5009947205e+02    9.0766706467e+00
    1.5019772339e+02    8.7088003159e+00
    1.5029917908e+02    8.3296003342e+00
    1.5039993286e+02    7.9534006119e+00
    1.5049836731e+02    7.5865001678e+00
    1.5059924316e+02    7.2110004425e+00
    1.5069776917e+02    6.8447008133e+00
    1.5079876709e+02    6.4697999954e+00
    1.5089981079e+02    6.0953006744e+00
    1.5099850464e+02    5.7301006317e+00
    1.5109968567e+02    5.3563003540e+00
    1.5119865417e+02    4.9912004471e+00
    1.5129995728e+02    4.6181001663e+00
    1.5139889526e+02    4.2543001175e+00
    1.5149789429e+02    3.8909006119e+00
    1.5159939575e+02    3.5190000534e+00
    1.5169851685e+02    3.1563005447e+00
    1.5179771423e+02    2.7940998077e+00
    1.5189939880e+02    2.4234008789e+00
    1.5199873352e+02    2.0620002747e+00
    1.5209812927e+02    1.7010002136e+00
    1.5220002747e+02    1.3316001892e+00
    1.5229954529e+02    9.7140121460e-01
    1.5239915466e+02    6.1170005798e-01
    1.5249880981e+02    2.5250053406e-01
    1.5259855652e+02   -1.0630035400e-01
    1.5269834900e+02   -4.6459960938e-01
    1.5279823303e+02   -8.2239913940e-01
    1.5289816284e+02   -1.1798000336e+00
    1.5299818420e+02   -1.5366001129e+00
    1.5309826660e+02   -1.8929996490e+00
    1.5319842529e+02   -2.2488002777e+00
    1.5329864502e+02   -2.6040992737e+00
    1.5339895630e+02   -2.9589004517e+00
    1.5349932861e+02   -3.3130989075e+00
    1.5359977722e+02   -3.6667995453e+00
    1.5369786072e+02   -4.0112991333e+00
    1.5379846191e+02   -4.3638000488e+00
    1.5389912415e+02   -4.7157993317e+00
    1.5399987793e+02   -5.0671997070e+00
    1.5409825134e+02   -5.4095001221e+00
    1.5419914246e+02   -5.7596988678e+00
    1.5430012512e+02   -6.1092987061e+00
    1.5439872742e+02   -6.4496994019e+00
    1.5449775696e+02   -6.7908000946e+00
    1.5459910583e+02   -7.1389999390e+00
    1.5469792175e+02   -7.4776000977e+00
    1.5479930115e+02   -7.8239994049e+00
    1.5489828491e+02   -8.1612987518e+00
    1.5499981689e+02   -8.5063991547e+00
    1.5509895325e+02   -8.8423004150e+00
    1.5519816589e+02   -9.1777000427e+00
    1.5529994202e+02   -9.5205993652e+00
    1.5539932251e+02   -9.8545989990e+00
    1.5549876404e+02   -1.0187799454e+01
    1.5559831238e+02   -1.0520299911e+01
    1.5569793701e+02   -1.0852100372e+01
    1.5580012512e+02   -1.1191398621e+01
    1.5589990234e+02   -1.1521699905e+01
    1.5599977112e+02   -1.1851200104e+01
    1.5609971619e+02   -1.2180000305e+01
    1.5619973755e+02   -1.2507999420e+01
    1.5629985046e+02   -1.2835199356e+01
    1.5640003967e+02   -1.3161701202e+01
    1.5650030518e+02   -1.3487300873e+01
    1.5659814453e+02   -1.3804000854e+01
    1.5669859314e+02   -1.4127899170e+01
    1.5679910278e+02   -1.4451099396e+01
    1.5689970398e+02   -1.4773300171e+01
    1.5699786377e+02   -1.5086601257e+01
    1.5709863281e+02   -1.5406997681e+01
    1.5719949341e+02   -1.5726398468e+01
    1.5729789734e+02   -1.6036800385e+01
    1.5739889526e+02   -1.6354400635e+01
    1.5750000000e+02   -1.6670898438e+01
    1.5759864807e+02   -1.6978599548e+01
    1.5769990540e+02   -1.7293197632e+01
    1.5779872131e+02   -1.7599098206e+01
    1.5790014648e+02   -1.7911701202e+01
    1.5799911499e+02   -1.8215400696e+01
    1.5809815979e+02   -1.8518199921e+01
    1.5819982910e+02   -1.8827598572e+01
    1.5829904175e+02   -1.9128299713e+01
    1.5839833069e+02   -1.9428001404e+01
    1.5850024414e+02   -1.9734199524e+01
    1.5859968567e+02   -2.0031700134e+01
    1.5869921875e+02   -2.0328201294e+01
    1.5879882812e+02   -2.0623500824e+01
    1.5889851379e+02   -2.0917697906e+01
    1.5899829102e+02   -2.1210899353e+01
    1.5909812927e+02   -2.1502899170e+01
    1.5919805908e+02   -2.1793800354e+01
    1.5929806519e+02   -2.2083400726e+01
    1.5939814758e+02   -2.2371898651e+01
    1.5949830627e+02   -2.2659297943e+01
    1.5959855652e+02   -2.2945499420e+01
    1.5969888306e+02   -2.3230400085e+01
    1.5979930115e+02   -2.3514099121e+01
    1.5989979553e+02   -2.3796600342e+01
    1.6000036621e+02   -2.4077800751e+01
    1.6009843445e+02   -2.4350601196e+01
    1.6019915771e+02   -2.4629299164e+01
    1.6029995728e+02   -2.4906700134e+01
    1.6039816284e+02   -2.5175598145e+01
    1.6049903870e+02   -2.5450199127e+01
    1.6059994507e+02   -2.5723300934e+01
    1.6069850159e+02   -2.5988597870e+01
    1.6079963684e+02   -2.6259300232e+01
    1.6089828491e+02   -2.6521900177e+01
    1.6099955750e+02   -2.6789798737e+01
    1.6109815979e+02   -2.7049098969e+01
    1.6119938660e+02   -2.7313598633e+01
    1.6129827881e+02   -2.7570400238e+01
    1.6139967346e+02   -2.7832000732e+01
    1.6149844360e+02   -2.8085300446e+01
    1.6159986877e+02   -2.8343498230e+01
    1.6169874573e+02   -2.8593601227e+01
    1.6179962158e+02   -2.8847000122e+01
    1.6189857483e+02   -2.9093799591e+01
    1.6199986267e+02   -2.9344600677e+01
    1.6209852600e+02   -2.9587200165e+01
    1.6219960022e+02   -2.9833999634e+01
    1.6230018616e+02   -3.0077598572e+01
    1.6239883423e+02   -3.0314899445e+01
    1.6249966431e+02   -3.0555500031e+01
    1.6260026550e+02   -3.0793498993e+01
    1.6269827271e+02   -3.1023700714e+01
    1.6279887390e+02   -3.1257900238e+01
    1.6289947510e+02   -3.1490200043e+01
    1.6300018311e+02   -3.1720798492e+01
    1.6309916687e+02   -3.1945400238e+01
    1.6319851685e+02   -3.2168899536e+01
    1.6329913330e+02   -3.2393299103e+01
    1.6339973450e+02   -3.2615600586e+01
    1.6350050354e+02   -3.2836200714e+01
    1.6359907532e+02   -3.3049999237e+01
    1.6369970703e+02   -3.3266201019e+01
    1.6380033875e+02   -3.3480400085e+01
    1.6389840698e+02   -3.3687000275e+01
    1.6399903870e+02   -3.3896999359e+01
    1.6409994507e+02   -3.4105499268e+01
    1.6419892883e+02   -3.4307800293e+01
    1.6429905701e+02   -3.4510398865e+01
    1.6439886475e+02   -3.4710201263e+01
    1.6449978638e+02   -3.4909900665e+01
    1.6460075378e+02   -3.5107601166e+01
    1.6469874573e+02   -3.5297199249e+01
    1.6480038452e+02   -3.5491600037e+01
    1.6489883423e+02   -3.5677799225e+01
    1.6499955750e+02   -3.5865898132e+01
    1.6509974670e+02   -3.6050701141e+01
    1.6519894409e+02   -3.6231399536e+01
    1.6529820251e+02   -3.6409900665e+01
    1.6540022278e+02   -3.6590999603e+01
    1.6549957275e+02   -3.6765098572e+01
    1.6559899902e+02   -3.6937000275e+01
    1.6569845581e+02   -3.7106498718e+01
    1.6580065918e+02   -3.7278400421e+01
    1.6590022278e+02   -3.7443298340e+01
    1.6599984741e+02   -3.7606098175e+01
    1.6609942627e+02   -3.7766300201e+01
    1.6619920349e+02   -3.7924400330e+01
    1.6629899597e+02   -3.8080101013e+01
    1.6639846802e+02   -3.8232898712e+01
    1.6649829102e+02   -3.8383701324e+01
    1.6660083008e+02   -3.8535999298e+01
    1.6670066833e+02   -3.8681697845e+01
    1.6680053711e+02   -3.8825000763e+01
    1.6690042114e+02   -3.8965698242e+01
    1.6700030518e+02   -3.9104000092e+01
    1.6710021973e+02   -3.9239799500e+01
    1.6720013428e+02   -3.9373001099e+01
    1.6730007935e+02   -3.9503700256e+01
    1.6740003967e+02   -3.9631900787e+01
    1.6750001526e+02   -3.9757400513e+01
    1.6759999084e+02   -3.9880397797e+01
    1.6769999695e+02   -4.0000801086e+01
    1.6780001831e+02   -4.0118598938e+01
    1.6790005493e+02   -4.0233798981e+01
    1.6800010681e+02   -4.0346401215e+01
    1.6810018921e+02   -4.0456398010e+01
    1.6820028687e+02   -4.0563800812e+01
    1.6830039978e+02   -4.0668598175e+01
    1.6840052795e+02   -4.0770698547e+01
    1.6850068665e+02   -4.0870201111e+01
    1.6860086060e+02   -4.0966999054e+01
    1.6870106506e+02   -4.1061199188e+01
    1.6879855347e+02   -4.1150398254e+01
    1.6889880371e+02   -4.1239398956e+01
    1.6899905396e+02   -4.1325798035e+01
    1.6909933472e+02   -4.1409599304e+01
    1.6919966125e+02   -4.1490898132e+01
    1.6930018616e+02   -4.1569801331e+01
    1.6940080261e+02   -4.1646301270e+01
    1.6949873352e+02   -4.1718299866e+01
    1.6959939575e+02   -4.1789699554e+01
    1.6970007324e+02   -4.1858699799e+01
    1.6980076599e+02   -4.1925098419e+01
    1.6989874268e+02   -4.1987400055e+01
    1.6999948120e+02   -4.2048900604e+01
    1.7010020447e+02   -4.2107799530e+01
    1.7020097351e+02   -4.2164199829e+01
    1.7029901123e+02   -4.2216400146e+01
    1.7039979553e+02   -4.2267398834e+01
    1.7050057983e+02   -4.2315399170e+01
    1.7059866333e+02   -4.2359298706e+01
    1.7069946289e+02   -4.2401500702e+01
    1.7080029297e+02   -4.2440700531e+01
    1.7090112305e+02   -4.2476799011e+01
    1.7099923706e+02   -4.2508899689e+01
    1.7110008240e+02   -4.2538497925e+01
    1.7120092773e+02   -4.2564800262e+01
    1.7129907227e+02   -4.2586997986e+01
    1.7139993286e+02   -4.2606399536e+01
    1.7150085449e+02   -4.2622299194e+01
    1.7160096741e+02   -4.2634597778e+01
    1.7170118713e+02   -4.2643299103e+01
    1.7179876709e+02   -4.2648399353e+01
    1.7189900208e+02   -4.2650199890e+01
    1.7199940491e+02   -4.2648498535e+01
    1.7209895325e+02   -4.2643501282e+01
    1.7220054626e+02   -4.2635101318e+01
    1.7230090332e+02   -4.2623600006e+01
    1.7240126038e+02   -4.2609100342e+01
    1.7249897766e+02   -4.2592201233e+01
    1.7259931946e+02   -4.2572097778e+01
    1.7269964600e+02   -4.2549499512e+01
    1.7280053711e+02   -4.2524398804e+01
    1.7290081787e+02   -4.2496997833e+01
    1.7300106812e+02   -4.2467399597e+01
    1.7310127258e+02   -4.2435699463e+01
    1.7319880676e+02   -4.2402698517e+01
    1.7329893494e+02   -4.2366901398e+01
    1.7339900208e+02   -4.2328998566e+01
    1.7349902344e+02   -4.2288997650e+01
    1.7359887695e+02   -4.2247100830e+01
    1.7370097351e+02   -4.2202198029e+01
    1.7380036926e+02   -4.2156299591e+01
    1.7389970398e+02   -4.2108398438e+01
    1.7399899292e+02   -4.2058399200e+01
    1.7410086060e+02   -4.2005001068e+01
    1.7420004272e+02   -4.1950798035e+01
    1.7429919434e+02   -4.1894599915e+01
    1.7440089417e+02   -4.1834800720e+01
    1.7449995422e+02   -4.1774497986e+01
    1.7459898376e+02   -4.1712200165e+01
    1.7470057678e+02   -4.1646301270e+01
    1.7479951477e+02   -4.1579998016e+01
    1.7490104675e+02   -4.1509899139e+01
    1.7499995422e+02   -4.1439701080e+01
    1.7510145569e+02   -4.1365798950e+01
    1.7520031738e+02   -4.1291797638e+01
    1.7529919434e+02   -4.1216098785e+01
    1.7540066528e+02   -4.1136398315e+01
    1.7549955750e+02   -4.1056900024e+01
    1.7560104370e+02   -4.0973400116e+01
    1.7569993591e+02   -4.0890197754e+01
    1.7580148315e+02   -4.0802898407e+01
    1.7590029907e+02   -4.0716098785e+01
    1.7600061035e+02   -4.0626197815e+01
    1.7610090637e+02   -4.0534400940e+01
    1.7620115662e+02   -4.0440799713e+01
    1.7630136108e+02   -4.0345397949e+01
    1.7640077209e+02   -4.0248901367e+01
    1.7650035095e+02   -4.0150398254e+01
    1.7659962463e+02   -4.0050399780e+01
    1.7670158386e+02   -3.9945899963e+01
    1.7680096436e+02   -3.9842201233e+01
    1.7690037537e+02   -3.9736698151e+01
    1.7699984741e+02   -3.9629299164e+01
    1.7709936523e+02   -3.9520198822e+01
    1.7720155334e+02   -3.9406200409e+01
    1.7730116272e+02   -3.9293399811e+01
    1.7740080261e+02   -3.9178699493e+01
    1.7750050354e+02   -3.9062297821e+01
    1.7760023499e+02   -3.8944000244e+01
    1.7770001221e+02   -3.8823898315e+01
    1.7779981995e+02   -3.8702098846e+01
    1.7789967346e+02   -3.8578399658e+01
    1.7799955750e+02   -3.8452999115e+01
    1.7809948730e+02   -3.8325901031e+01
    1.7819943237e+02   -3.8196998596e+01
    1.7829942322e+02   -3.8066299438e+01
    1.7839944458e+02   -3.7933898926e+01
    1.7849951172e+02   -3.7799697876e+01
    1.7859960938e+02   -3.7663799286e+01
    1.7869973755e+02   -3.7526199341e+01
    1.7879989624e+02   -3.7386798859e+01
    1.7890010071e+02   -3.7245700836e+01
    1.7900033569e+02   -3.7102897644e+01
    1.7910060120e+02   -3.6958400726e+01
    1.7919958496e+02   -3.6814098358e+01
    1.7930148315e+02   -3.6663898468e+01
    1.7940069580e+02   -3.6515899658e+01
    1.7949993896e+02   -3.6366298676e+01
    1.7959919739e+02   -3.6215099335e+01
    1.7970109558e+02   -3.6058097839e+01
    1.7980029297e+02   -3.5903697968e+01
    1.7989944458e+02   -3.5747699738e+01
    1.8000129700e+02   -3.5585800171e+01
    1.8010040283e+02   -3.5426601410e+01
    1.8019949341e+02   -3.5265899658e+01
    1.8030122375e+02   -3.5099201202e+01
    1.8040025330e+02   -3.4935298920e+01
    1.8049923706e+02   -3.4769798279e+01
    1.8060104370e+02   -3.4597999573e+01
    1.8070039368e+02   -3.4428600311e+01
    1.8079945374e+02   -3.4258197784e+01
    1.8090083313e+02   -3.4082099915e+01
    1.8099981689e+02   -3.3908500671e+01
    1.8110177612e+02   -3.3728000641e+01
    1.8120007324e+02   -3.3552398682e+01
    1.8130104065e+02   -3.3370399475e+01
    1.8139933777e+02   -3.3191600800e+01
    1.8150027466e+02   -3.3006401062e+01
    1.8160118103e+02   -3.2819599152e+01
    1.8169941711e+02   -3.2636199951e+01
    1.8180029297e+02   -3.2446201324e+01
    1.8189996338e+02   -3.2256900787e+01
    1.8200045776e+02   -3.2064399719e+01
    1.8210046387e+02   -3.1871299744e+01
    1.8219981384e+02   -3.1677898407e+01
    1.8230094910e+02   -3.1479297638e+01
    1.8240042114e+02   -3.1282501221e+01
    1.8250051880e+02   -3.1082901001e+01
    1.8259959412e+02   -3.0883800507e+01
    1.8270079041e+02   -3.0678798676e+01
    1.8279981995e+02   -3.0476699829e+01
    1.8290095520e+02   -3.0268798828e+01
    1.8299923706e+02   -3.0065200806e+01
    1.8310031128e+02   -2.9854297638e+01
    1.8320133972e+02   -2.9641899109e+01
    1.8329954529e+02   -2.9433998108e+01
    1.8340184021e+02   -2.9215801239e+01
    1.8350044250e+02   -2.9004100800e+01
    1.8360176086e+02   -2.8784900665e+01
    1.8370045471e+02   -2.8569999695e+01
    1.8380180359e+02   -2.8347801208e+01
    1.8390025330e+02   -2.8130500793e+01
    1.8400123596e+02   -2.7906101227e+01
    1.8410194397e+02   -2.7680801392e+01
    1.8420001221e+02   -2.7459999084e+01
    1.8430070496e+02   -2.7231800079e+01
    1.8440139771e+02   -2.7002201080e+01
    1.8450199890e+02   -2.6771301270e+01
    1.8459991455e+02   -2.6545101166e+01
    1.8470039368e+02   -2.6311599731e+01
    1.8480070496e+02   -2.6077098846e+01
    1.8490101624e+02   -2.5841197968e+01
    1.8500112915e+02   -2.5604297638e+01
    1.8510125732e+02   -2.5365898132e+01
    1.8520140076e+02   -2.5126197815e+01
    1.8530152893e+02   -2.4884998322e+01
    1.8540165710e+02   -2.4642498016e+01
    1.8550178528e+02   -2.4398700714e+01
    1.8560191345e+02   -2.4153400421e+01
    1.8570205688e+02   -2.3906799316e+01
    1.8579956055e+02   -2.3665298462e+01
    1.8589971924e+02   -2.3415901184e+01
    1.8599987793e+02   -2.3165199280e+01
    1.8610006714e+02   -2.2913101196e+01
    1.8620025635e+02   -2.2659599304e+01
    1.8630047607e+02   -2.2404701233e+01
    1.8640072632e+02   -2.2148399353e+01
    1.8650100708e+02   -2.1890701294e+01
    1.8660128784e+02   -2.1631599426e+01
    1.8670187378e+02   -2.1370399475e+01
    1.8680036926e+02   -2.1113300323e+01
    1.8690170288e+02   -2.0847599030e+01
    1.8700120544e+02   -2.0585300446e+01
    1.8710092163e+02   -2.0321201324e+01
    1.8720065308e+02   -2.0055698395e+01
    1.8730038452e+02   -1.9788997650e+01
    1.8740013123e+02   -1.9520999908e+01
    1.8749986267e+02   -1.9251701355e+01
    1.8759957886e+02   -1.8981201172e+01
    1.8770198059e+02   -1.8702198029e+01
    1.8780168152e+02   -1.8429199219e+01
    1.8790136719e+02   -1.8155097961e+01
    1.8800103760e+02   -1.7879798889e+01
    1.8810069275e+02   -1.7603298187e+01
    1.8820034790e+02   -1.7325698853e+01
    1.8830000305e+02   -1.7046897888e+01
    1.8839964294e+02   -1.6766899109e+01
    1.8850161743e+02   -1.6479297638e+01
    1.8860043335e+02   -1.6199298859e+01
    1.8870146179e+02   -1.5911998749e+01
    1.8879971313e+02   -1.5631401062e+01
    1.8890089417e+02   -1.5341300964e+01
    1.8899984741e+02   -1.5056598663e+01
    1.8910084534e+02   -1.4764900208e+01
    1.8920222473e+02   -1.4470897675e+01
    1.8930061340e+02   -1.4184600830e+01
    1.8940153503e+02   -1.3889801025e+01
    1.8949981689e+02   -1.3601699829e+01
    1.8960073853e+02   -1.3304798126e+01
    1.8970167542e+02   -1.3006898880e+01
    1.8979995728e+02   -1.2715799332e+01
    1.8990087891e+02   -1.2415800095e+01
    1.9000181580e+02   -1.2114700317e+01
    1.9010008240e+02   -1.1820598602e+01
    1.9020101929e+02   -1.1517599106e+01
    1.9030195618e+02   -1.1213499069e+01
    1.9040022278e+02   -1.0916500092e+01
    1.9050117493e+02   -1.0610500336e+01
    1.9060209656e+02   -1.0303600311e+01
    1.9070033264e+02   -1.0003898621e+01
    1.9080120850e+02   -9.6951999664e+00
    1.9090217590e+02   -9.3851985931e+00
    1.9100033569e+02   -9.0828990936e+00
    1.9110107422e+02   -8.7716999054e+00
    1.9120179749e+02   -8.4596004486e+00
    1.9130244446e+02   -8.1467990875e+00
    1.9140040588e+02   -7.8414001465e+00
    1.9150094604e+02   -7.5270996094e+00
    1.9160142517e+02   -7.2119998932e+00
    1.9170184326e+02   -6.8960990906e+00
    1.9180220032e+02   -6.5795993805e+00
    1.9190249634e+02   -6.2622985840e+00
    1.9200010681e+02   -5.9526004791e+00
    1.9210028076e+02   -5.6337985992e+00
    1.9220039368e+02   -5.3143997192e+00
    1.9230046082e+02   -4.9941997528e+00
    1.9240045166e+02   -4.6732997894e+00
    1.9250038147e+02   -4.3516998291e+00
    1.9260025024e+02   -4.0294990540e+00
    1.9270005798e+02   -3.7064990997e+00
    1.9280244446e+02   -3.3743991852e+00
    1.9290217590e+02   -3.0499992371e+00
    1.9300184631e+02   -2.7248992920e+00
    1.9310147095e+02   -2.3990993500e+00
    1.9320106506e+02   -2.0725994110e+00
    1.9330108643e+02   -1.7437992096e+00
    1.9340170288e+02   -1.4121990204e+00
    1.9350143433e+02   -1.0827999115e+00
    1.9360116577e+02   -7.5249862671e-01
    1.9370031738e+02   -4.2339897156e-01
    1.9380143738e+02   -8.6999893188e-02
    1.9390138245e+02    2.4640083313e-01
    1.9400213623e+02    5.8320045471e-01
    1.9410224915e+02    9.1860008240e-01
    1.9420213318e+02    1.2541007996e+00
    1.9430171204e+02    1.5890998840e+00
    1.9440019226e+02    1.9211997986e+00
    1.9450262451e+02    2.2674007416e+00
    1.9460188293e+02    2.6035003662e+00
    1.9470114136e+02    2.9402999878e+00
    1.9480041504e+02    3.2778005600e+00
    1.9490229797e+02    3.6249008179e+00
    1.9500158691e+02    3.9637002945e+00
    1.9510087585e+02    4.3032007217e+00
    1.9520014954e+02    4.6433000565e+00
    1.9530203247e+02    4.9929008484e+00
    1.9540129089e+02    5.3341007233e+00
    1.9550053406e+02    5.6759004593e+00
    1.9560238647e+02    6.0272006989e+00
    1.9570161438e+02    6.3701000214e+00
    1.9580082703e+02    6.7134008408e+00
    1.9590263367e+02    7.0664005280e+00
    1.9600181580e+02    7.4109001160e+00
    1.9610101318e+02    7.7558002472e+00
    1.9620019531e+02    8.1013002396e+00
    1.9630198669e+02    8.4565000534e+00
    1.9640116882e+02    8.8030004501e+00
    1.9650035095e+02    9.1500701904e+00
    1.9660214233e+02    9.5068101883e+00
    1.9670132446e+02    9.8549108505e+00
    1.9680050659e+02    1.0203550339e+01
    1.9690231323e+02    1.0561910629e+01
    1.9700152588e+02    1.0911650658e+01
    1.9710075378e+02    1.1261930466e+01
    1.9720277405e+02    1.1622570038e+01
    1.9730105591e+02    1.1970390320e+01
    1.9740025330e+02    1.2322031021e+01
    1.9750047302e+02    1.2677690506e+01
    1.9760055542e+02    1.3033349991e+01
    1.9770141602e+02    1.3392230988e+01
    1.9780145264e+02    1.3748650551e+01
    1.9790098572e+02    1.4103640556e+01
    1.9800080872e+02    1.4460140228e+01
    1.9810061646e+02    1.4816989899e+01
    1.9820240784e+02    1.5181300163e+01
    1.9830157471e+02    1.5536670685e+01
    1.9840072632e+02    1.5892290115e+01
    1.9850244141e+02    1.6257480621e+01
    1.9860148621e+02    1.6613491058e+01
    1.9870048523e+02    1.6969640732e+01
    1.9880203247e+02    1.7335290909e+01
    1.9890089417e+02    1.7691659927e+01
    1.9900230408e+02    1.8057498932e+01
    1.9910101318e+02    1.8414009094e+01
    1.9920225525e+02    1.8779945374e+01
    1.9930084229e+02    1.9136569977e+01
    1.9940194702e+02    1.9502643585e+01
    1.9950039673e+02    1.9859394073e+01
    1.9960134888e+02    2.0225561142e+01
    1.9970222473e+02    2.0591720581e+01
    1.9980044556e+02    2.0948490143e+01
    1.9990113831e+02    2.1314599991e+01
endcurve
