Curveplot
LS-DYNA keyword deck by LS-PrePost
Z-displ
Resultant Force
Mat/Node Ids
1 #pts=1000
* Minval=    -6.4978875220e-02 at time=        -0.0000397378
* Maxval=     5.3999682617e+02 at time=        20.0010452271
   -3.9737777115e-05   -6.4978875220e-02
   -5.0299280701e-05   -4.5935560018e-02
   -6.1057362473e-05   -1.9508114085e-02
   -7.2192582593e-05    1.7206614837e-02
   -8.2551705418e-05    6.2997341156e-02
   -9.1769805294e-05    1.1989258975e-01
   -9.9131466413e-05    1.9106647372e-01
   -1.0328331700e-04    2.7302253246e-01
   -1.0325527546e-04    3.6838188767e-01
   -9.7331641882e-05    4.8108866811e-01
   -8.4436069301e-05    6.0497045517e-01
   -6.2654959038e-05    7.4348461628e-01
   -2.8776268664e-05    9.0149468184e-01
    1.7193187887e-05    1.0700374842e+00
    7.8553493950e-05    1.2536402941e+00
    1.6061322822e-04    1.4582527876e+00
    2.6114151115e-04    1.6722455025e+00
    3.8539228262e-04    1.9013469219e+00
    5.4158852436e-04    2.1526517868e+00
    7.2683545295e-04    2.4156188965e+00
    9.4637443544e-04    2.6935853958e+00
    1.2017206755e-03    2.9830675125e+00
    1.4965991722e-03    3.2859308720e+00
    1.8409427721e-03    3.6062569618e+00
    2.2462839261e-03    3.9496891499e+00
    2.6930032764e-03    4.2970561981e+00
    3.2069592271e-03    4.6636395454e+00
    3.7798264530e-03    5.0406174660e+00
    4.4234083034e-03    5.4322376251e+00
    5.1383799873e-03    5.8368554115e+00
    5.9433062561e-03    6.2597870827e+00
    6.8244454451e-03    6.6917815208e+00
    7.8289089724e-03    7.1519937515e+00
    8.8995397091e-03    7.6125164032e+00
    1.0077526793e-02    8.0876483917e+00
    1.1362414807e-02    8.5749530792e+00
    1.2767210603e-02    9.0777463913e+00
    1.4292524196e-02    9.5937404633e+00
    1.5946121886e-02    1.0122543335e+01
    1.7736531794e-02    1.0664990425e+01
    1.9649652764e-02    1.1214859009e+01
    2.1719003096e-02    1.1780554771e+01
    2.4004878476e-02    1.2374671936e+01
    2.6390472427e-02    1.2965975761e+01
    2.8923250735e-02    1.3564270020e+01
    3.1704124063e-02    1.4192380905e+01
    3.4578792751e-02    1.4813164711e+01
    3.7684522569e-02    1.5455348969e+01
    4.1077166796e-02    1.6127040863e+01
    4.4608782977e-02    1.6797262192e+01
    4.8316523433e-02    1.7473289490e+01
    5.2245233208e-02    1.8163381577e+01
    5.6403946131e-02    1.8866407394e+01
    6.0911521316e-02    1.9598333359e+01
    6.5469771624e-02    2.0314086914e+01
    7.0423960686e-02    2.1063577652e+01
    7.5571730733e-02    2.1817525864e+01
    8.1024855375e-02    2.2587402344e+01
    8.6853049695e-02    2.3383037567e+01
    9.2790544033e-02    2.4168346405e+01
    9.9186174572e-02    2.4987667084e+01
    1.0577052832e-01    2.5806493759e+01
    1.1265920103e-01    2.6635852814e+01
    1.1983241141e-01    2.7472833633e+01
    1.2746557593e-01    2.8339035034e+01
    1.3526546955e-01    2.9199554443e+01
    1.4364412427e-01    3.0096429825e+01
    1.5222659707e-01    3.0991699219e+01
    1.6101182997e-01    3.1882240295e+01
    1.7032657564e-01    3.2801147461e+01
    1.7999018729e-01    3.3729381561e+01
    1.9020634890e-01    3.4685039520e+01
    2.0051883161e-01    3.5625221252e+01
    2.1137881279e-01    3.6590229034e+01
    2.2269862890e-01    3.7569850922e+01
    2.3418630660e-01    3.8542804718e+01
    2.4646893144e-01    3.9556171417e+01
    2.5891190767e-01    4.0558544159e+01
    2.7177804708e-01    4.1570980072e+01
    2.8544548154e-01    4.2621135712e+01
    2.9927703738e-01    4.3658561707e+01
    3.1321227551e-01    4.4682369232e+01
    3.2799774408e-01    4.5744968414e+01
    3.4346777201e-01    4.6834262848e+01
    3.5915142298e-01    4.7913181305e+01
    3.7520718575e-01    4.8994403839e+01
    3.9196011424e-01    5.0097774506e+01
    4.0936222672e-01    5.1223701477e+01
    4.2700323462e-01    5.2340187073e+01
    4.4527563453e-01    5.3472164154e+01
    4.6407788992e-01    5.4617641449e+01
    4.8341131210e-01    5.5770717621e+01
    5.0301051140e-01    5.6916282654e+01
    5.2304023504e-01    5.8068840027e+01
    5.4418563843e-01    5.9261295319e+01
    5.6561380625e-01    6.0447875977e+01
    5.8758622408e-01    6.1643016815e+01
    6.1003249884e-01    6.2842414856e+01
    6.3325411081e-01    6.4060455322e+01
    6.5721958876e-01    6.5299537659e+01
    6.8147486448e-01    6.6528869629e+01
    7.0616328716e-01    6.7762214661e+01
    7.3149287701e-01    6.9009490967e+01
    7.5757527351e-01    7.0270828247e+01
    7.8425592184e-01    7.1539993286e+01
    8.1174272299e-01    7.2830886841e+01
    8.3916372061e-01    7.4095672607e+01
    8.6765092611e-01    7.5394744873e+01
    8.9688187838e-01    7.6705833435e+01
    9.2636877298e-01    7.8009109497e+01
    9.5683014393e-01    7.9335632324e+01
    9.8774123192e-01    8.0666221619e+01
    1.0190405846e+00    8.1992179871e+01
    1.0510596037e+00    8.3333610535e+01
    1.0836751461e+00    8.4678062439e+01
    1.1171441078e+00    8.6041496277e+01
    1.1516972780e+00    8.7432434082e+01
    1.1864802837e+00    8.8812477112e+01
    1.2216691971e+00    9.0189849854e+01
    1.2574251890e+00    9.1572647095e+01
    1.2940938473e+00    9.2975990295e+01
    1.3315373659e+00    9.4389106750e+01
    1.3687516451e+00    9.5776573181e+01
    1.4073414803e+00    9.7197303772e+01
    1.4467216730e+00    9.8630233765e+01
    1.4864981174e+00    1.0005933380e+02
    1.5272541046e+00    1.0150972748e+02
    1.5685091019e+00    1.0295828247e+02
    1.6094148159e+00    1.0437635040e+02
    1.6525671482e+00    1.0585740662e+02
    1.6956036091e+00    1.0732054901e+02
    1.7388066053e+00    1.0876961517e+02
    1.7832394838e+00    1.1024462128e+02
    1.8274879456e+00    1.1169641876e+02
    1.8733221292e+00    1.1318574524e+02
    1.9202470779e+00    1.1469359589e+02
    1.9665007591e+00    1.1616474915e+02
    2.0145833492e+00    1.1768005371e+02
    2.0620093346e+00    1.1915659332e+02
    2.1105971336e+00    1.2065932465e+02
    2.1603016853e+00    1.2218433380e+02
    2.2100801468e+00    1.2369538116e+02
    2.2610616684e+00    1.2522938538e+02
    2.3117313385e+00    1.2674059296e+02
    2.3638639450e+00    1.2828230286e+02
    2.4167354107e+00    1.2983351135e+02
    2.4691538811e+00    1.3135740662e+02
    2.5222294331e+00    1.3289274597e+02
    2.5773773193e+00    1.3447221375e+02
    2.6318511963e+00    1.3602026367e+02
    2.6873726845e+00    1.3758653259e+02
    2.7429149151e+00    1.3914195251e+02
    2.7994213104e+00    1.4071247864e+02
    2.8560476303e+00    1.4227276611e+02
    2.9144048691e+00    1.4387255859e+02
    2.9728519917e+00    1.4546591187e+02
    3.0311856270e+00    1.4704351807e+02
    3.0903241634e+00    1.4862905884e+02
    3.1507992744e+00    1.5024490356e+02
    3.2114288807e+00    1.5185343933e+02
    3.2718024254e+00    1.5344401550e+02
    3.3337328434e+00    1.5506575012e+02
    3.3953323364e+00    1.5666934204e+02
    3.4585096836e+00    1.5830599976e+02
    3.5206513405e+00    1.5990307617e+02
    3.5847499371e+00    1.6154505920e+02
    3.6483285427e+00    1.6316743469e+02
    3.7124164104e+00    1.6479142761e+02
    3.7773647308e+00    1.6642883301e+02
    3.8436915874e+00    1.6809428406e+02
    3.9086258411e+00    1.6971592712e+02
    3.9751646519e+00    1.7136877441e+02
    4.0424332619e+00    1.7303121948e+02
    4.1091413498e+00    1.7467617798e+02
    4.1766185760e+00    1.7633058167e+02
    4.2449750900e+00    1.7799862671e+02
    4.3144812584e+00    1.7968601990e+02
    4.3827695847e+00    1.8133999634e+02
    4.4518651962e+00    1.8300532532e+02
    4.5223093033e+00    1.8469641113e+02
    4.5917124748e+00    1.8635575867e+02
    4.6623020172e+00    1.8803594971e+02
    4.7338624001e+00    1.8973771667e+02
    4.8045945168e+00    1.9141519165e+02
    4.8754320145e+00    1.9308827209e+02
    4.9484848976e+00    1.9480883789e+02
    5.0203218460e+00    1.9649931335e+02
    5.0930428505e+00    1.9820843506e+02
    5.1657571793e+00    1.9991175842e+02
    5.2388424873e+00    2.0162159729e+02
    5.3129186630e+00    2.0335389709e+02
    5.3864817619e+00    2.0507020569e+02
    5.4610257149e+00    2.0680674744e+02
    5.5353903770e+00    2.0854148865e+02
    5.6091732979e+00    2.1025878906e+02
    5.6839947701e+00    2.1199896240e+02
    5.7597093582e+00    2.1375872803e+02
    5.8356246948e+00    2.1552261353e+02
    5.9106273651e+00    2.1726394653e+02
    5.9870505333e+00    2.1903756714e+02
    6.0631814003e+00    2.2080131531e+02
    6.1391315460e+00    2.2256370544e+02
    6.2156348228e+00    2.2434173584e+02
    6.2934427261e+00    2.2614750671e+02
    6.3705768585e+00    2.2793690491e+02
    6.4475274086e+00    2.2972074890e+02
    6.5250725746e+00    2.3152490234e+02
    6.6025657654e+00    2.3332510376e+02
    6.6800031662e+00    2.3512826538e+02
    6.7580499649e+00    2.3694593811e+02
    6.8349585533e+00    2.3873783875e+02
    6.9137473106e+00    2.4058056641e+02
    6.9926090240e+00    2.4242417908e+02
    7.0709309578e+00    2.4425735474e+02
    7.1485624313e+00    2.4607620239e+02
    7.2277402878e+00    2.4793843079e+02
    7.3068714142e+00    2.4979936218e+02
    7.3862323761e+00    2.5166964722e+02
    7.4650197029e+00    2.5353033447e+02
    7.5448055267e+00    2.5541650391e+02
    7.6236667633e+00    2.5728903198e+02
    7.7023510933e+00    2.5915921021e+02
    7.7812457085e+00    2.6103686523e+02
    7.8605651855e+00    2.6293148804e+02
    7.9408807755e+00    2.6485284424e+02
    8.0207910538e+00    2.6677386475e+02
    8.1003408432e+00    2.6868945312e+02
    8.1791515350e+00    2.7058874512e+02
    8.2599592209e+00    2.7254666138e+02
    8.3385944366e+00    2.7446026611e+02
    8.4188156128e+00    2.7641726685e+02
    8.4996099472e+00    2.7839379883e+02
    8.5795183182e+00    2.8035632324e+02
    8.6593704224e+00    2.8233004761e+02
    8.7386732101e+00    2.8429440308e+02
    8.8192129135e+00    2.8629962158e+02
    8.8981590271e+00    2.8827478027e+02
    8.9788227081e+00    2.9030172729e+02
    9.0584287643e+00    2.9231072998e+02
    9.1398220062e+00    2.9437390137e+02
    9.2191514969e+00    2.9639843750e+02
    9.2986497879e+00    2.9843258667e+02
    9.3791837692e+00    3.0050241089e+02
    9.4590482712e+00    3.0256228638e+02
    9.5395479202e+00    3.0464526367e+02
    9.6193675995e+00    3.0671701050e+02
    9.7000370026e+00    3.0881570435e+02
    9.7788801193e+00    3.1086605835e+02
    9.8589859009e+00    3.1295355225e+02
    9.9403047562e+00    3.1507546997e+02
    1.0019658089e+01    3.1713995361e+02
    1.0100438118e+01    3.1923443604e+02
    1.0179873466e+01    3.2128662109e+02
    1.0260361671e+01    3.2336135864e+02
    1.0339564323e+01    3.2538693237e+02
    1.0420896530e+01    3.2745349121e+02
    1.0500876427e+01    3.2946798706e+02
    1.0580724716e+01    3.3146594238e+02
    1.0661106110e+01    3.3345761108e+02
    1.0741169930e+01    3.3542254639e+02
    1.0820688248e+01    3.3735278320e+02
    1.0900181770e+01    3.3926208496e+02
    1.0980386734e+01    3.4116741943e+02
    1.1060078621e+01    3.4303894043e+02
    1.1140800476e+01    3.4491113281e+02
    1.1221473694e+01    3.4676138306e+02
    1.1300862312e+01    3.4856350708e+02
    1.1381320000e+01    3.5036712646e+02
    1.1461106300e+01    3.5213430786e+02
    1.1539752007e+01    3.5385482788e+02
    1.1619633675e+01    3.5558200073e+02
    1.1699417114e+01    3.5728652954e+02
    1.1779471397e+01    3.5897784424e+02
    1.1859015465e+01    3.6063845825e+02
    1.1939483643e+01    3.6229721069e+02
    1.2019925117e+01    3.6393670654e+02
    1.2099403381e+01    3.6554049683e+02
    1.2178741455e+01    3.6712063599e+02
    1.2257500648e+01    3.6867483521e+02
    1.2336148262e+01    3.7020825195e+02
    1.2415371895e+01    3.7173425293e+02
    1.2495053291e+01    3.7325357056e+02
    1.2573923111e+01    3.7474380493e+02
    1.2652969360e+01    3.7621997070e+02
    1.2732280731e+01    3.7768414307e+02
    1.2811452866e+01    3.7913137817e+02
    1.2888696671e+01    3.8053021240e+02
    1.2967378616e+01    3.8193890381e+02
    1.3045847893e+01    3.8332968140e+02
    1.3124869347e+01    3.8471618652e+02
    1.3203454971e+01    3.8608050537e+02
    1.3281342506e+01    3.8741931152e+02
    1.3358954430e+01    3.8873931885e+02
    1.3436414719e+01    3.9004367065e+02
    1.3514319420e+01    3.9134722900e+02
    1.3590686798e+01    3.9261114502e+02
    1.3668627739e+01    3.9389031982e+02
    1.3745549202e+01    3.9514147949e+02
    1.3822642326e+01    3.9638604736e+02
    1.3898337364e+01    3.9759793091e+02
    1.3974108696e+01    3.9880163574e+02
    1.4050171852e+01    4.0000274658e+02
    1.4126626968e+01    4.0119973755e+02
    1.4201773643e+01    4.0236694336e+02
    1.4277071953e+01    4.0353137207e+02
    1.4352581978e+01    4.0468920898e+02
    1.4427852631e+01    4.0583480835e+02
    1.4501932144e+01    4.0695596313e+02
    1.4576758385e+01    4.0808200073e+02
    1.4650640488e+01    4.0918557739e+02
    1.4724626541e+01    4.1028265381e+02
    1.4797799110e+01    4.1136035156e+02
    1.4870471001e+01    4.1242578125e+02
    1.4943444252e+01    4.1348757935e+02
    1.5015619278e+01    4.1453103638e+02
    1.5087352753e+01    4.1556134033e+02
    1.5159421921e+01    4.1658947754e+02
    1.5231150627e+01    4.1760772705e+02
    1.5301973343e+01    4.1860592651e+02
    1.5372618675e+01    4.1959805298e+02
    1.5442524910e+01    4.2057247925e+02
    1.5512948990e+01    4.2154971313e+02
    1.5581686974e+01    4.2249822998e+02
    1.5651261330e+01    4.2345404053e+02
    1.5720006943e+01    4.2439627075e+02
    1.5788141251e+01    4.2532504272e+02
    1.5856993675e+01    4.2626080322e+02
    1.5924197197e+01    4.2717199707e+02
    1.5990880013e+01    4.2807534790e+02
    1.6057853699e+01    4.2897921753e+02
    1.6123806000e+01    4.2986785889e+02
    1.6188827515e+01    4.3074203491e+02
    1.6254642487e+01    4.3162646484e+02
    1.6319631577e+01    4.3249951172e+02
    1.6383760452e+01    4.3336035156e+02
    1.6446990967e+01    4.3420910645e+02
    1.6510536194e+01    4.3506433105e+02
    1.6573461533e+01    4.3591104126e+02
    1.6635986328e+01    4.3675460815e+02
    1.6697046280e+01    4.3757989502e+02
    1.6758304596e+01    4.3840991211e+02
    1.6819808960e+01    4.3924673462e+02
    1.6880004883e+01    4.4006863403e+02
    1.6939153671e+01    4.4087982178e+02
    1.6998510361e+01    4.4170016479e+02
    1.7057182312e+01    4.4251513672e+02
    1.7114536285e+01    4.4331668091e+02
    1.7172101974e+01    4.4412728882e+02
    1.7228969574e+01    4.4493585205e+02
    1.7284805298e+01    4.4573541260e+02
    1.7340740204e+01    4.4654333496e+02
    1.7396429062e+01    4.4735665894e+02
    1.7450637817e+01    4.4815524292e+02
    1.7503971100e+01    4.4894906616e+02
    1.7557882309e+01    4.4975851440e+02
    1.7611066818e+01    4.5056488037e+02
    1.7662805557e+01    4.5135797119e+02
    1.7713699341e+01    4.5214538574e+02
    1.7764991760e+01    4.5294754028e+02
    1.7815530777e+01    4.5374774170e+02
    1.7864759445e+01    4.5453662109e+02
    1.7913383484e+01    4.5532373047e+02
    1.7962053299e+01    4.5612161255e+02
    1.8010126114e+01    4.5692098999e+02
    1.8057180405e+01    4.5771343994e+02
    1.8103921890e+01    4.5851266479e+02
    1.8149726868e+01    4.5930538940e+02
    1.8195131302e+01    4.6010287476e+02
    1.8239358902e+01    4.6089050293e+02
    1.8283273697e+01    4.6168289185e+02
    1.8326892853e+01    4.6248165894e+02
    1.8369602203e+01    4.6327395630e+02
    1.8411840439e+01    4.6407009888e+02
    1.8453102112e+01    4.6485971069e+02
    1.8493820190e+01    4.6564962769e+02
    1.8533737183e+01    4.6643600464e+02
    1.8573375702e+01    4.6723022461e+02
    1.8612239838e+01    4.6802035522e+02
    1.8650598526e+01    4.6881323242e+02
    1.8687810898e+01    4.6959649658e+02
    1.8724708557e+01    4.7038638306e+02
    1.8761121750e+01    4.7117834473e+02
    1.8796934128e+01    4.7197189331e+02
    1.8831850052e+01    4.7276116943e+02
    1.8865842819e+01    4.7354290771e+02
    1.8899627686e+01    4.7433529663e+02
    1.8932853699e+01    4.7513018799e+02
    1.8965373993e+01    4.7592407227e+02
    1.8997133255e+01    4.7671572876e+02
    1.9028333664e+01    4.7750903320e+02
    1.9059251785e+01    4.7831182861e+02
    1.9089088440e+01    4.7910278320e+02
    1.9118301392e+01    4.7989483643e+02
    1.9147079468e+01    4.8069256592e+02
    1.9175230026e+01    4.8149081421e+02
    1.9202787399e+01    4.8228884888e+02
    1.9229946136e+01    4.8309460449e+02
    1.9256168365e+01    4.8389178467e+02
    1.9281629562e+01    4.8468273926e+02
    1.9306709290e+01    4.8548065186e+02
    1.9331470490e+01    4.8628945923e+02
    1.9355476379e+01    4.8709152222e+02
    1.9378944397e+01    4.8789599609e+02
    1.9401748657e+01    4.8869821167e+02
    1.9424152374e+01    4.8950650024e+02
    1.9445722580e+01    4.9030441284e+02
    1.9466724396e+01    4.9110183716e+02
    1.9487522125e+01    4.9191452026e+02
    1.9507688522e+01    4.9272363281e+02
    1.9527198792e+01    4.9352761841e+02
    1.9546293259e+01    4.9433639526e+02
    1.9564746857e+01    4.9514010620e+02
    1.9582540512e+01    4.9593814087e+02
    1.9599939346e+01    4.9674060059e+02
    1.9616987228e+01    4.9754824829e+02
    1.9633445740e+01    4.9834982300e+02
    1.9649438858e+01    4.9915283203e+02
    1.9664823532e+01    4.9994708252e+02
    1.9679788589e+01    5.0074041748e+02
    1.9694387436e+01    5.0153881836e+02
    1.9708335876e+01    5.0232385254e+02
    1.9722076416e+01    5.0311901855e+02
    1.9735307693e+01    5.0390704346e+02
    1.9748041153e+01    5.0468942261e+02
    1.9760221481e+01    5.0545965576e+02
    1.9772048950e+01    5.0622955322e+02
    1.9783563614e+01    5.0700344849e+02
    1.9794519424e+01    5.0776126099e+02
    1.9805120468e+01    5.0851745605e+02
    1.9815334320e+01    5.0926809692e+02
    1.9825143814e+01    5.1001223755e+02
    1.9834688187e+01    5.1076089478e+02
    1.9843839645e+01    5.1150161743e+02
    1.9852529526e+01    5.1222814941e+02
    1.9860979080e+01    5.1295794678e+02
    1.9869056702e+01    5.1367950439e+02
    1.9876766205e+01    5.1439245605e+02
    1.9884126663e+01    5.1509680176e+02
    1.9891149521e+01    5.1579193115e+02
    1.9897859573e+01    5.1648101807e+02
    1.9904273987e+01    5.1716339111e+02
    1.9910449982e+01    5.1784442139e+02
    1.9916322708e+01    5.1851727295e+02
    1.9921905518e+01    5.1918060303e+02
    1.9927248001e+01    5.1984008789e+02
    1.9932312012e+01    5.2049023438e+02
    1.9937143326e+01    5.2113635254e+02
    1.9941694260e+01    5.2176947021e+02
    1.9946004868e+01    5.2239440918e+02
    1.9950088501e+01    5.2301403809e+02
    1.9953916550e+01    5.2361981201e+02
    1.9957574844e+01    5.2422430420e+02
    1.9961008072e+01    5.2481939697e+02
    1.9964239120e+01    5.2540698242e+02
    1.9967269897e+01    5.2598510742e+02
    1.9970115662e+01    5.2655462646e+02
    1.9972745895e+01    5.2710803223e+02
    1.9975217819e+01    5.2765539551e+02
    1.9977537155e+01    5.2819732666e+02
    1.9979698181e+01    5.2872943115e+02
    1.9981693268e+01    5.2924774170e+02
    1.9983554840e+01    5.2975799561e+02
    1.9985296249e+01    5.3026251221e+02
    1.9986883163e+01    5.3075067139e+02
    1.9988361359e+01    5.3123339844e+02
    1.9989727020e+01    5.3170660400e+02
    1.9990974426e+01    5.3216662598e+02
    1.9992105484e+01    5.3261175537e+02
    1.9993143082e+01    5.3304724121e+02
    1.9994091034e+01    5.3347399902e+02
    1.9994943619e+01    5.3388641357e+02
    1.9995716095e+01    5.3429107666e+02
    1.9996412277e+01    5.3468457031e+02
    1.9997020721e+01    5.3506036377e+02
    1.9997560501e+01    5.3542272949e+02
    1.9998037338e+01    5.3577557373e+02
    1.9998456955e+01    5.3611779785e+02
    1.9998819351e+01    5.3644677734e+02
    1.9999132156e+01    5.3676171875e+02
    1.9999397278e+01    5.3706121826e+02
    1.9999622345e+01    5.3734619141e+02
    1.9999811172e+01    5.3761938477e+02
    1.9999967575e+01    5.3787579346e+02
    2.0000097275e+01    5.3811761475e+02
    2.0000202179e+01    5.3834521484e+02
    2.0000289917e+01    5.3855706787e+02
    2.0000366211e+01    5.3875524902e+02
    2.0000431061e+01    5.3893841553e+02
    2.0000490189e+01    5.3910833740e+02
    2.0000547409e+01    5.3926208496e+02
    2.0000606537e+01    5.3940118408e+02
    2.0000665665e+01    5.3952557373e+02
    2.0000726700e+01    5.3963488770e+02
    2.0000787735e+01    5.3973028564e+02
    2.0000843048e+01    5.3981060791e+02
    2.0000896454e+01    5.3987744141e+02
    2.0000944138e+01    5.3992901611e+02
    2.0000984192e+01    5.3996606445e+02
    2.0001018524e+01    5.3998883057e+02
    2.0001045227e+01    5.3999682617e+02
    2.0001064301e+01    5.3999035645e+02
    2.0001075745e+01    5.3996923828e+02
    2.0001079559e+01    5.3993383789e+02
    2.0001075745e+01    5.3988439941e+02
    2.0001062393e+01    5.3982025146e+02
    2.0001041412e+01    5.3974188232e+02
    2.0001012802e+01    5.3965002441e+02
    2.0000976562e+01    5.3954516602e+02
    2.0000932693e+01    5.3942706299e+02
    2.0000881195e+01    5.3929461670e+02
    2.0000822067e+01    5.3914849854e+02
    2.0000759125e+01    5.3899206543e+02
    2.0000688553e+01    5.3882122803e+02
    2.0000612259e+01    5.3863629150e+02
    2.0000526428e+01    5.3844067383e+02
    2.0000427246e+01    5.3823114014e+02
    2.0000308990e+01    5.3800518799e+02
    2.0000169754e+01    5.3776806641e+02
    2.0000007629e+01    5.3751922607e+02
    1.9999811172e+01    5.3725506592e+02
    1.9999580383e+01    5.3697857666e+02
    1.9999313354e+01    5.3669073486e+02
    1.9999004364e+01    5.3639312744e+02
    1.9998643875e+01    5.3607891846e+02
    1.9998231888e+01    5.3575219727e+02
    1.9997762680e+01    5.3541278076e+02
    1.9997226715e+01    5.3505639648e+02
    1.9996633530e+01    5.3469390869e+02
    1.9995971680e+01    5.3431994629e+02
    1.9995223999e+01    5.3393103027e+02
    1.9994394302e+01    5.3352935791e+02
    1.9993469238e+01    5.3311291504e+02
    1.9992454529e+01    5.3268908691e+02
    1.9991344452e+01    5.3225610352e+02
    1.9990110397e+01    5.3180523682e+02
    1.9988767624e+01    5.3134503174e+02
    1.9987316132e+01    5.3087792969e+02
    1.9985725403e+01    5.3039489746e+02
    1.9983995438e+01    5.2989923096e+02
    1.9982141495e+01    5.2939764404e+02
    1.9980127335e+01    5.2888018799e+02
    1.9977943420e+01    5.2834820557e+02
    1.9975608826e+01    5.2780859375e+02
    1.9973108292e+01    5.2725726318e+02
    1.9970441818e+01    5.2669586182e+02
    1.9967618942e+01    5.2612805176e+02
    1.9964605331e+01    5.2554901123e+02
    1.9961393356e+01    5.2495794678e+02
    1.9958000183e+01    5.2435906982e+02
    1.9954397202e+01    5.2374975586e+02
    1.9950521469e+01    5.2312164307e+02
    1.9946435928e+01    5.2248620605e+02
    1.9942146301e+01    5.2184619141e+02
    1.9937606812e+01    5.2119677734e+02
    1.9932826996e+01    5.2054077148e+02
    1.9927774429e+01    5.1987493896e+02
    1.9922468185e+01    5.1920361328e+02
    1.9916898727e+01    5.1852606201e+02
    1.9911062241e+01    5.1784332275e+02
    1.9904928207e+01    5.1715161133e+02
    1.9898511887e+01    5.1645568848e+02
    1.9891710281e+01    5.1574597168e+02
    1.9884626389e+01    5.1503210449e+02
    1.9877271652e+01    5.1431805420e+02
    1.9869539261e+01    5.1359564209e+02
    1.9861444473e+01    5.1286627197e+02
    1.9852987289e+01    5.1213104248e+02
    1.9844308853e+01    5.1140182495e+02
    1.9835220337e+01    5.1066519165e+02
    1.9825719833e+01    5.0992181396e+02
    1.9815723419e+01    5.0916592407e+02
    1.9805448532e+01    5.0841375732e+02
    1.9794906616e+01    5.0766809082e+02
    1.9783752441e+01    5.0690521240e+02
    1.9772268295e+01    5.0614312744e+02
    1.9760478973e+01    5.0538626099e+02
    1.9748229980e+01    5.0462448120e+02
    1.9735366821e+01    5.0384854126e+02
    1.9722108841e+01    5.0307192993e+02
    1.9708545685e+01    5.0230239868e+02
    1.9694486618e+01    5.0152862549e+02
    1.9679901123e+01    5.0074859619e+02
    1.9664955139e+01    4.9997158813e+02
    1.9649354935e+01    4.9918280029e+02
    1.9633438110e+01    4.9839990234e+02
    1.9617048264e+01    4.9761721802e+02
    1.9600091934e+01    4.9682846069e+02
    1.9582653046e+01    4.9603790283e+02
    1.9564617157e+01    4.9524081421e+02
    1.9546100616e+01    4.9444396973e+02
    1.9527168274e+01    4.9365020752e+02
    1.9507713318e+01    4.9285476685e+02
    1.9487455368e+01    4.9204650879e+02
    1.9466878891e+01    4.9124539185e+02
    1.9445703506e+01    4.9044299316e+02
    1.9423912048e+01    4.8963632202e+02
    1.9401573181e+01    4.8882925415e+02
    1.9378816605e+01    4.8802749634e+02
    1.9355543137e+01    4.8722634888e+02
    1.9331687927e+01    4.8642294312e+02
    1.9307174683e+01    4.8561636353e+02
    1.9281864166e+01    4.8480416870e+02
    1.9256061554e+01    4.8399346924e+02
    1.9229570389e+01    4.8318017578e+02
    1.9202701569e+01    4.8237322998e+02
    1.9175125122e+01    4.8156259155e+02
    1.9146932602e+01    4.8075149536e+02
    1.9118255615e+01    4.7994424438e+02
    1.9088907242e+01    4.7913580322e+02
    1.9059152603e+01    4.7833377075e+02
    1.9028724670e+01    4.7752993774e+02
    1.8997537613e+01    4.7672390747e+02
    1.8965595245e+01    4.7591580200e+02
    1.8932754517e+01    4.7510202026e+02
    1.8899797440e+01    4.7430166626e+02
    1.8866092682e+01    4.7350012207e+02
    1.8831705093e+01    4.7269738770e+02
    1.8796430588e+01    4.7189117432e+02
    1.8760877609e+01    4.7109387207e+02
    1.8724889755e+01    4.7030120850e+02
    1.8687597275e+01    4.6949545288e+02
    1.8649875641e+01    4.6869686890e+02
    1.8612085342e+01    4.6791146851e+02
    1.8573417664e+01    4.6712136841e+02
    1.8534088135e+01    4.6633291626e+02
    1.8494081497e+01    4.6554663086e+02
    1.8453310013e+01    4.6475790405e+02
    1.8411663055e+01    4.6396636963e+02
    1.8369737625e+01    4.6318441772e+02
    1.8326841354e+01    4.6239694214e+02
    1.8283395767e+01    4.6161267090e+02
    1.8239059448e+01    4.6082608032e+02
    1.8194707870e+01    4.6005035400e+02
    1.8149759293e+01    4.5927627563e+02
    1.8103559494e+01    4.5849166870e+02
    1.8056774139e+01    4.5770907593e+02
    1.8010374069e+01    4.5694326782e+02
    1.7962518692e+01    4.5616250610e+02
    1.7913684845e+01    4.5537625122e+02
    1.7864728928e+01    4.5459747314e+02
    1.7815526962e+01    4.5382199097e+02
    1.7765684128e+01    4.5304614258e+02
    1.7714923859e+01    4.5226312256e+02
    1.7662693024e+01    4.5146542358e+02
    1.7610322952e+01    4.5067367554e+02
    1.7558097839e+01    4.4989144897e+02
    1.7505079269e+01    4.4910369873e+02
    1.7450691223e+01    4.4830133057e+02
    1.7396062851e+01    4.4750082397e+02
    1.7341003418e+01    4.4669903564e+02
    1.7285890579e+01    4.4590078735e+02
    1.7229421616e+01    4.4508792114e+02
    1.7172428131e+01    4.4427304077e+02
    1.7115520477e+01    4.4346343994e+02
    1.7057521820e+01    4.4264172363e+02
    1.6998725891e+01    4.4181170654e+02
    1.6939523697e+01    4.4097915649e+02
    1.6880153656e+01    4.4014758301e+02
    1.6820234299e+01    4.3931094360e+02
    1.6759706497e+01    4.3846984863e+02
    1.6697980881e+01    4.3761532593e+02
    1.6635801315e+01    4.3675665283e+02
    1.6574312210e+01    4.3590927124e+02
    1.6511627197e+01    4.3504879761e+02
    1.6448554993e+01    4.3418444824e+02
    1.6384119034e+01    4.3330307007e+02
    1.6320499420e+01    4.3243380737e+02
    1.6255432129e+01    4.3154733276e+02
    1.6189773560e+01    4.3065206909e+02
    1.6125028610e+01    4.2977014160e+02
    1.6058198929e+01    4.2886080933e+02
    1.5992193222e+01    4.2796145630e+02
    1.5925717354e+01    4.2705618286e+02
    1.5858190536e+01    4.2613552856e+02
    1.5789414406e+01    4.2519689941e+02
    1.5721446991e+01    4.2426794434e+02
    1.5652143478e+01    4.2331921387e+02
    1.5582715988e+01    4.2236776733e+02
    1.5513699532e+01    4.2141888428e+02
    1.5444626808e+01    4.2046658325e+02
    1.5374232292e+01    4.1949502563e+02
    1.5303541183e+01    4.1851562500e+02
    1.5232593536e+01    4.1752825928e+02
    1.5160388947e+01    4.1651925659e+02
    1.5088655472e+01    4.1551101685e+02
    1.5016445160e+01    4.1449166870e+02
    1.4944552422e+01    4.1347042847e+02
    1.4871837616e+01    4.1243099976e+02
    1.4799171448e+01    4.1138467407e+02
    1.4725454330e+01    4.1031820679e+02
    1.4651898384e+01    4.0924569702e+02
    1.4578232765e+01    4.0816241455e+02
    1.4503202438e+01    4.0705325317e+02
    1.4428108215e+01    4.0593353271e+02
    1.4353390694e+01    4.0480944824e+02
    1.4278658867e+01    4.0367596436e+02
    1.4203284264e+01    4.0252313232e+02
    1.4127671242e+01    4.0135656738e+02
    1.4052712440e+01    4.0018923950e+02
    1.3976351738e+01    3.9898757935e+02
    1.3899587631e+01    3.9776992798e+02
    1.3823368073e+01    3.9654940796e+02
    1.3746164322e+01    3.9530023193e+02
    1.3668926239e+01    3.9403762817e+02
    1.3593044281e+01    3.9278259277e+02
    1.3515193939e+01    3.9148529053e+02
    1.3438281059e+01    3.9018914795e+02
    1.3359892845e+01    3.8885482788e+02
    1.3282292366e+01    3.8751940918e+02
    1.3205002785e+01    3.8617483521e+02
    1.3126023293e+01    3.8478909302e+02
    1.3047219276e+01    3.8338970947e+02
    1.2968946457e+01    3.8198675537e+02
    1.2891608238e+01    3.8058605957e+02
    1.2812910080e+01    3.7914517212e+02
    1.2734062195e+01    3.7768664551e+02
    1.2654260635e+01    3.7619793701e+02
    1.2575167656e+01    3.7470495605e+02
    1.2497397423e+01    3.7322076416e+02
    1.2418686867e+01    3.7170480347e+02
    1.2338921547e+01    3.7015136719e+02
    1.2258397102e+01    3.6856759644e+02
    1.2179938316e+01    3.6700653076e+02
    1.2099889755e+01    3.6540176392e+02
    1.2021296501e+01    3.6380862427e+02
    1.1941870689e+01    3.6218304443e+02
    1.1860857010e+01    3.6050796509e+02
    1.1780823708e+01    3.5883581543e+02
    1.1702020645e+01    3.5717288208e+02
    1.1622260094e+01    3.5547268677e+02
    1.1541523933e+01    3.5373364258e+02
    1.1462732315e+01    3.5201477051e+02
    1.1382749557e+01    3.5025750732e+02
    1.1301960945e+01    3.4845880127e+02
    1.1221771240e+01    3.4665713501e+02
    1.1141559601e+01    3.4483551025e+02
    1.1062804222e+01    3.4302590942e+02
    1.0983390808e+01    3.4118222046e+02
    1.0903232574e+01    3.3930108643e+02
    1.0822667122e+01    3.3738656616e+02
    1.0742218018e+01    3.3545718384e+02
    1.0661641121e+01    3.3350350952e+02
    1.0582665443e+01    3.3156875610e+02
    1.0502545357e+01    3.2958721924e+02
    1.0422133446e+01    3.2757830811e+02
    1.0341952324e+01    3.2555947876e+02
    1.0261833191e+01    3.2352651978e+02
    1.0182167053e+01    3.2148858643e+02
    1.0101512909e+01    3.1941751099e+02
    1.0020704269e+01    3.1733038330e+02
    9.9416685104e+00    3.1527947998e+02
    9.8620567322e+00    3.1321008301e+02
    9.7813606262e+00    3.1110690308e+02
    9.7007627487e+00    3.0900390625e+02
    9.6207113266e+00    3.0691503906e+02
    9.5403928757e+00    3.0481887817e+02
    9.4611434937e+00    3.0275762939e+02
    9.3810281754e+00    3.0067861938e+02
    9.3010559082e+00    2.9860617065e+02
    9.2209739685e+00    2.9653839111e+02
    9.1404085159e+00    2.9446514893e+02
    9.0596323013e+00    2.9239028931e+02
    8.9804744720e+00    2.9037075806e+02
    8.9002342224e+00    2.8833245850e+02
    8.8209457397e+00    2.8632510376e+02
    8.7411565781e+00    2.8431625366e+02
    8.6599416733e+00    2.8227789307e+02
    8.5803890228e+00    2.8029406738e+02
    8.5003547668e+00    2.7830795288e+02
    8.4198493958e+00    2.7631909180e+02
    8.3414926529e+00    2.7439205933e+02
    8.2622232437e+00    2.7245422363e+02
    8.1824455261e+00    2.7051208496e+02
    8.1015233994e+00    2.6855087280e+02
    8.0216484070e+00    2.6661962891e+02
    7.9425473213e+00    2.6472100830e+02
    7.8637084961e+00    2.6283554077e+02
    7.7831325531e+00    2.6091497803e+02
    7.7039017677e+00    2.5903009033e+02
    7.6249017715e+00    2.5716165161e+02
    7.5450353622e+00    2.5527694702e+02
    7.4660310745e+00    2.5341993713e+02
    7.3876018524e+00    2.5158032227e+02
    7.3085889816e+00    2.4973294067e+02
    7.2292857170e+00    2.4788223267e+02
    7.1506004333e+00    2.4605415344e+02
    7.0730686188e+00    2.4425393677e+02
    6.9935245514e+00    2.4241096497e+02
    6.9161310196e+00    2.4061830139e+02
    6.8381853104e+00    2.3881704712e+02
    6.7595052719e+00    2.3700106812e+02
    6.6821584702e+00    2.3521524048e+02
    6.6040725708e+00    2.3341432190e+02
    6.5267024040e+00    2.3163101196e+02
    6.4484586716e+00    2.2982678223e+02
    6.3717331886e+00    2.2805604553e+02
    6.2949948311e+00    2.2628184509e+02
    6.2180976868e+00    2.2450732422e+02
    6.1410484314e+00    2.2272592163e+02
    6.0653433800e+00    2.2097068787e+02
    5.9879975319e+00    2.1917524719e+02
    5.9118041992e+00    2.1740043640e+02
    5.8364067078e+00    2.1564361572e+02
    5.7618365288e+00    2.1390446472e+02
    5.6869215965e+00    2.1215298462e+02
    5.6119952202e+00    2.1039642334e+02
    5.5365624428e+00    2.0862501526e+02
    5.4628610611e+00    2.0689038086e+02
    5.3873672485e+00    2.0511094666e+02
    5.3134760857e+00    2.0336561584e+02
    5.2405991554e+00    2.0164129639e+02
    5.1676845551e+00    1.9991183472e+02
    5.0948090553e+00    1.9818557739e+02
    5.0217103958e+00    1.9644921875e+02
    4.9499869347e+00    1.9474092102e+02
    4.8780550957e+00    1.9302641296e+02
    4.8055667877e+00    1.9129653931e+02
    4.7351870537e+00    1.8961311340e+02
    4.6647653580e+00    1.8792672729e+02
    4.5929937363e+00    1.8620343018e+02
    4.5227756500e+00    1.8451672363e+02
    4.4531493187e+00    1.8284068298e+02
    4.3842186928e+00    1.8117826843e+02
    4.3157701492e+00    1.7952252197e+02
    4.2473568916e+00    1.7786453247e+02
    4.1779851913e+00    1.7618336487e+02
    4.1115245819e+00    1.7456340027e+02
    4.0442614555e+00    1.7292103577e+02
    3.9770977497e+00    1.7127627563e+02
    3.9110057354e+00    1.6965083313e+02
    3.8446207047e+00    1.6801213074e+02
    3.7788405418e+00    1.6638185120e+02
    3.7142052650e+00    1.6477418518e+02
    3.6497907639e+00    1.6316345215e+02
    3.5855925083e+00    1.6155062866e+02
    3.5230951309e+00    1.5997109985e+02
    3.4588832855e+00    1.5834014893e+02
    3.3965327740e+00    1.5674555969e+02
    3.3344419003e+00    1.5514598083e+02
    3.2737555504e+00    1.5357498169e+02
    3.2124526501e+00    1.5197605896e+02
    3.1527130604e+00    1.5040487671e+02
    3.0919423103e+00    1.4879556274e+02
    3.0329384804e+00    1.4721771240e+02
    2.9744746685e+00    1.4564300537e+02
    2.9155719280e+00    1.4404072571e+02
    2.8576948643e+00    1.4245358276e+02
    2.8005650043e+00    1.4087669373e+02
    2.7451357841e+00    1.3933013916e+02
    2.6884882450e+00    1.3773657227e+02
    2.6332330704e+00    1.3616696167e+02
    2.5781016350e+00    1.3458651733e+02
    2.5237312317e+00    1.3301052856e+02
    2.4703471661e+00    1.3145275879e+02
    2.4178671837e+00    1.2990396118e+02
    2.3658111095e+00    1.2835488892e+02
    2.3127758503e+00    1.2676451874e+02
    2.2614836693e+00    1.2520824432e+02
    2.2107996941e+00    1.2365701294e+02
    2.1620571613e+00    1.2214921570e+02
    2.1123683453e+00    1.2060330200e+02
    2.0638067722e+00    1.1907705688e+02
    2.0156519413e+00    1.1754905701e+02
    1.9684091806e+00    1.1603971863e+02
    1.9215264320e+00    1.1453205872e+02
    1.8745565414e+00    1.1300950623e+02
    1.8291914463e+00    1.1152511597e+02
    1.7840156555e+00    1.1003427124e+02
    1.7400287390e+00    1.0857278442e+02
    1.6968929768e+00    1.0712776947e+02
    1.6530252695e+00    1.0564747620e+02
    1.6106615067e+00    1.0420168304e+02
    1.5689609051e+00    1.0276963043e+02
    1.5279344320e+00    1.0134790802e+02
    1.4874541759e+00    9.9931236267e+01
    1.4476506710e+00    9.8523612976e+01
    1.4089161158e+00    9.7138656616e+01
    1.3707269430e+00    9.5758308411e+01
    1.3328304291e+00    9.4374816895e+01
    1.2949001789e+00    9.2969581604e+01
    1.2583320141e+00    9.1597755432e+01
    1.2227560282e+00    9.0247695923e+01
    1.1871702671e+00    8.8878662109e+01
    1.1524373293e+00    8.7522186279e+01
    1.1183364391e+00    8.6169937134e+01
    1.0851057768e+00    8.4833007812e+01
    1.0521227121e+00    8.3483207703e+01
    1.0199223757e+00    8.2146415710e+01
    9.8895174265e-01    8.0840126038e+01
    9.5808541775e-01    7.9517555237e+01
    9.2703223228e-01    7.8164276123e+01
    8.9805430174e-01    7.6878913879e+01
    8.6844849586e-01    7.5544250488e+01
    8.3988195658e-01    7.4231155396e+01
    8.1212168932e-01    7.2934570312e+01
    7.8486526012e-01    7.1639862061e+01
    7.5855016708e-01    7.0367912292e+01
    7.3258417845e-01    6.9089859009e+01
    7.0719516277e-01    6.7819412231e+01
    6.8225681782e-01    6.6549217224e+01
    6.5786325932e-01    6.5285331726e+01
    6.3423079252e-01    6.4040336609e+01
    6.1110317707e-01    6.2799667358e+01
    5.8849453926e-01    6.1567340851e+01
    5.6644880772e-01    6.0346885681e+01
    5.4504179955e-01    5.9142059326e+01
    5.2416056395e-01    5.7945159912e+01
    5.0380063057e-01    5.6760860443e+01
    4.8399966955e-01    5.5589126587e+01
    4.6459490061e-01    5.4421604156e+01
    4.4584771991e-01    5.3275543213e+01
    4.2751961946e-01    5.2135356903e+01
    4.1001650691e-01    5.1027751923e+01
    3.9282539487e-01    4.9920200348e+01
    3.7606766820e-01    4.8822113037e+01
    3.5980474949e-01    4.7736877441e+01
    3.4414088726e-01    4.6672321320e+01
    3.2894894481e-01    4.5620254517e+01
    3.1413364410e-01    4.4574802399e+01
    2.9977723956e-01    4.3540077209e+01
    2.8583094478e-01    4.2514358521e+01
    2.7240797877e-01    4.1504844666e+01
    2.5954559445e-01    4.0515289307e+01
    2.4699637294e-01    3.9527263641e+01
    2.3487752676e-01    3.8550933838e+01
    2.2320964932e-01    3.7588775635e+01
    2.1191568673e-01    3.6632686615e+01
    2.0123240352e-01    3.5704498291e+01
    1.9078539312e-01    3.4772048950e+01
    1.8072341383e-01    3.3849563599e+01
    1.7105141282e-01    3.2936592102e+01
    1.6175374389e-01    3.2032913208e+01
    1.5278445184e-01    3.1134996414e+01
    1.4414528012e-01    3.0243240356e+01
    1.3593962789e-01    2.9367515564e+01
    1.2801599503e-01    2.8496309280e+01
    1.2033382803e-01    2.7620513916e+01
    1.1309578270e-01    2.6767465591e+01
    1.0633381456e-01    2.5942243576e+01
    9.9677912891e-02    2.5102771759e+01
    9.3341037631e-02    2.4274782181e+01
    8.7281167507e-02    2.3453229904e+01
    8.1616163254e-02    2.2657903671e+01
    7.6149530709e-02    2.1861612320e+01
    7.0908159018e-02    2.1070760727e+01
    6.6020749509e-02    2.0305807114e+01
    6.1353404075e-02    1.9549686432e+01
    5.6910313666e-02    1.8802743912e+01
    5.2746910602e-02    1.8075567245e+01
    4.8811715096e-02    1.7363962173e+01
    4.5060023665e-02    1.6658836365e+01
    4.1563902050e-02    1.5977288246e+01
    3.8190003484e-02    1.5294060707e+01
    3.5079520196e-02    1.4639852524e+01
    3.2206162810e-02    1.4010866165e+01
    2.9399940744e-02    1.3373639107e+01
    2.6833657175e-02    1.2765192032e+01
    2.4432649836e-02    1.2172237396e+01
    2.2202892229e-02    1.1598087311e+01
    2.0120529458e-02    1.1036673546e+01
    1.8177701160e-02    1.0490001678e+01
    1.6392745078e-02    9.9636669159e+00
    1.4750628732e-02    9.4553194046e+00
    1.3223249465e-02    8.9577636719e+00
    1.1814397760e-02    8.4749593735e+00
    1.0527103208e-02    8.0077390671e+00
    9.3344049528e-03    7.5500426292e+00
    8.2651441917e-03    7.1143169403e+00
    7.2837965563e-03    6.6874699593e+00
    6.3965437002e-03    6.2751297951e+00
    5.5916425772e-03    5.8744564056e+00
    4.8509957269e-03    5.4770369530e+00
    4.2131072842e-03    5.1050662994e+00
    3.6375483032e-03    4.7417364120e+00
    3.1291742343e-03    4.3906931877e+00
    2.6777018793e-03    4.0489301682e+00
    2.2753176745e-03    3.7135474682e+00
    1.9305786118e-03    3.3940253258e+00
    1.6314085806e-03    3.0858325958e+00
    1.3775039697e-03    2.7914881706e+00
    1.1613341048e-03    2.5104029179e+00
    9.7897707019e-04    2.2405896187e+00
    8.2418660168e-04    1.9804787636e+00
    7.0074934047e-04    1.7404916286e+00
    5.9746054467e-04    1.5082683563e+00
    5.1644427003e-04    1.2942830324e+00
    4.5377915376e-04    1.0978738070e+00
    4.0677390643e-04    9.2102783918e-01
    3.7177698687e-04    7.6074707508e-01
    3.4689356107e-04    6.1844605207e-01
    3.3036363311e-04    4.9648803473e-01
    3.1984760426e-04    3.9198976755e-01
    3.1410661177e-04    3.0739611387e-01
    3.1157396734e-04    2.4203586578e-01
    3.1097029569e-04    1.9200956821e-01
    3.1141826184e-04    1.5835878253e-01
    3.1219050288e-04    1.3748593628e-01
    3.1282639247e-04    1.2681035697e-01
    3.1315631350e-04    1.2260529399e-01
    3.1323489384e-04    1.2175651640e-01
endcurve
