Curveplot
LS-DYNA keyword deck by LS-PrePost
Abscissa
Ordinate
XY data
CHOP_NASZ_mo-1 #pts=3000
* Minval=    -1.4110699463e+02 at time=       237.1049346924
* Maxval=     1.8318499997e-06 at time=         3.6990442276
    0.0000000000e+00    0.0000000000e+00
    9.9515393376e-02    2.6258701348e-35
    1.9926306605e-01    1.2728999670e-27
    2.9929459095e-01    5.2812099476e-22
    3.9880996943e-01    1.7977500064e-16
    4.9985638261e-01    3.3962099626e-12
    5.9905362129e-01    1.2385999781e-08
    6.9987636805e-01    7.0012298181e-08
    7.9954648018e-01    1.3235900553e-07
    8.9864903688e-01    1.8368899646e-07
    9.9966126680e-01    2.2063200333e-07
    1.0996326208e+00    2.4878198701e-07
    1.1992081404e+00    2.7138199243e-07
    1.2992560863e+00    2.6326898706e-07
    1.3984533548e+00    1.7960300625e-07
    1.4998453856e+00    9.5381899712e-08
    1.5994231701e+00    2.1921900384e-07
    1.6985268593e+00    6.6241898367e-07
    1.7997437716e+00    1.2967200291e-06
    1.8993321657e+00    1.7270999706e-06
    1.9997705221e+00    1.6232600046e-06
    2.0991508961e+00    8.0103598066e-07
    2.1989893913e+00   -7.2532498052e-07
    2.2993984222e+00   -2.8182100777e-06
    2.3992598057e+00   -5.2262398640e-06
    2.4991235733e+00   -7.6174101196e-06
    2.5987050533e+00   -9.5790501291e-06
    2.6996295452e+00   -1.0784299775e-05
    2.7984552383e+00   -1.1062799786e-05
    2.8999648094e+00   -1.0477099750e-05
    2.9995646477e+00   -9.1756401162e-06
    3.0999040604e+00   -7.3401201917e-06
    3.1995027065e+00   -5.2415598475e-06
    3.2985928059e+00   -3.0901999253e-06
    3.3985512257e+00   -1.0974699762e-06
    3.4984316826e+00    5.1883699825e-07
    3.5994479656e+00    1.5625699916e-06
    3.6990442276e+00    1.8318499997e-06
    3.7992246151e+00    1.1301400491e-06
    3.8993701935e+00   -6.4736798322e-07
    3.9994227886e+00   -3.3893099953e-06
    4.0995702744e+00   -6.8144499892e-06
    4.1997194290e+00   -1.0622399714e-05
    4.2992067337e+00   -1.4625100448e-05
    4.3998479843e+00   -1.8948399884e-05
    4.4984693527e+00   -2.3602899091e-05
    4.5991115570e+00   -2.9043900213e-05
    4.6995639801e+00   -3.5366898373e-05
    4.7992572784e+00   -4.2703199142e-05
    4.8994216919e+00   -5.1278999308e-05
    4.9986214638e+00   -6.1115802964e-05
    5.0999350548e+00   -7.2776201705e-05
    5.1995096207e+00   -8.6105203081e-05
    5.2987051010e+00   -1.0166800348e-04
    5.3990669250e+00   -1.2025899923e-04
    5.4996919632e+00   -1.4221599849e-04
    5.5998415947e+00   -1.6757400590e-04
    5.6989326477e+00   -1.9624699780e-04
    5.7985906601e+00   -2.2883199563e-04
    5.8998737335e+00   -2.6596398675e-04
    5.9998154640e+00   -3.0669500120e-04
    6.0996627808e+00   -3.5148800816e-04
    6.1989426613e+00   -4.0002699825e-04
    6.2983975410e+00   -4.5250699623e-04
    6.3997802734e+00   -5.0973799080e-04
    6.4992542267e+00   -5.6944199605e-04
    6.5996904373e+00   -6.3331797719e-04
    6.6996359825e+00   -7.0069998037e-04
    6.7985401154e+00   -7.7152397716e-04
    6.8986897469e+00   -8.4788299864e-04
    6.9997239113e+00   -9.3001098139e-04
    7.0992083549e+00   -1.0161000537e-03
    7.1986923218e+00   -1.1074499926e-03
    7.2996892929e+00   -1.2056600535e-03
    7.3985881805e+00   -1.3072700240e-03
    7.4985284805e+00   -1.4154600212e-03
    7.5995121002e+00   -1.5303200344e-03
    7.6986827850e+00   -1.6483300133e-03
    7.7998762131e+00   -1.7737400485e-03
    7.8998236656e+00   -1.9021700136e-03
    7.9989199638e+00   -2.0335400477e-03
    8.0998153687e+00   -2.1710500587e-03
    8.1998615265e+00   -2.3110499606e-03
    8.2990570068e+00   -2.4534799159e-03
    8.3988990784e+00   -2.6005199179e-03
    8.4998006821e+00   -2.7527899947e-03
    8.5999631882e+00   -2.9073900077e-03
    8.6987676620e+00   -3.0630200636e-03
    8.7995939255e+00   -3.2248098869e-03
    8.8990020752e+00   -3.3871699125e-03
    8.9996566772e+00   -3.5544401035e-03
    9.0994253159e+00   -3.7231401075e-03
    9.1989107132e+00   -3.8941900712e-03
    9.2986021042e+00   -4.0682600811e-03
    9.3995208740e+00   -4.2469198816e-03
    9.4999656677e+00   -4.4268597849e-03
    9.5991315842e+00   -4.6063298360e-03
    9.6984272003e+00   -4.7876699828e-03
    9.7983865738e+00   -4.9719200470e-03
    9.8995943069e+00   -5.1603098400e-03
    9.9990644455e+00   -5.3474497981e-03
    1.0098740578e+01   -5.5371499620e-03
    1.0199964523e+01   -5.7321800850e-03
    1.0299671173e+01   -5.9268199839e-03
    1.0399828911e+01   -6.1251199804e-03
    1.0499686241e+01   -6.3258898444e-03
    1.0598957062e+01   -6.5288799815e-03
    1.0699192047e+01   -6.7374999635e-03
    1.0799160004e+01   -6.9494699128e-03
    1.0898541451e+01   -7.1641798131e-03
    1.0999831200e+01   -7.3871398345e-03
    1.1099590302e+01   -7.6106600463e-03
    1.1199539185e+01   -7.8384904191e-03
    1.1298731804e+01   -8.0684702843e-03
    1.1399438858e+01   -8.3060199395e-03
    1.1499849319e+01   -8.5467696190e-03
    1.1598558426e+01   -8.7869204581e-03
    1.1699192047e+01   -9.0350303799e-03
    1.1798781395e+01   -9.2840697616e-03
    1.1898856163e+01   -9.5385303721e-03
    1.1999099731e+01   -9.7983004525e-03
    1.2098836899e+01   -1.0061999783e-02
    1.2198673248e+01   -1.0331399739e-02
    1.2299571037e+01   -1.0608799756e-02
    1.2399525642e+01   -1.0888500139e-02
    1.2499297142e+01   -1.1171800084e-02
    1.2598771095e+01   -1.1457599699e-02
    1.2698864937e+01   -1.1748200282e-02
    1.2799510002e+01   -1.2043099850e-02
    1.2899018288e+01   -1.2337599881e-02
    1.2999300957e+01   -1.2637499720e-02
    1.3099866867e+01   -1.2941599824e-02
    1.3199278831e+01   -1.3245799579e-02
    1.3299127579e+01   -1.3554999605e-02
    1.3399185181e+01   -1.3868800364e-02
    1.3498596191e+01   -1.4184700325e-02
    1.3599918365e+01   -1.4511300251e-02
    1.3698760033e+01   -1.4834799804e-02
    1.3799416542e+01   -1.5169699676e-02
    1.3899566650e+01   -1.5508599579e-02
    1.3999134064e+01   -1.5851199627e-02
    1.4099665642e+01   -1.6202200204e-02
    1.4198574066e+01   -1.6552200541e-02
    1.4299221039e+01   -1.6912899911e-02
    1.4399885178e+01   -1.7278600484e-02
    1.4498701096e+01   -1.7642499879e-02
    1.4599349976e+01   -1.8018899485e-02
    1.4699978828e+01   -1.8401499838e-02
    1.4799977303e+01   -1.8788300455e-02
    1.4899495125e+01   -1.9180100411e-02
    1.4999355316e+01   -1.9580500200e-02
    1.5098661423e+01   -1.9986499101e-02
    1.5198907852e+01   -2.0405199379e-02
    1.5299245834e+01   -2.0834000781e-02
    1.5398726463e+01   -2.1270200610e-02
    1.5499447823e+01   -2.1723799407e-02
    1.5598524094e+01   -2.2182399407e-02
    1.5699790955e+01   -2.2664099932e-02
    1.5799527168e+01   -2.3151900619e-02
    1.5899530411e+01   -2.3654799908e-02
    1.5999344826e+01   -2.4170599878e-02
    1.6099838257e+01   -2.4704299867e-02
    1.6199182510e+01   -2.5245700032e-02
    1.6298717499e+01   -2.5801800191e-02
    1.6399026871e+01   -2.6375599205e-02
    1.6499639511e+01   -2.6964500546e-02
    1.6599966049e+01   -2.7565099299e-02
    1.6699516296e+01   -2.8174700215e-02
    1.6799160004e+01   -2.8799299151e-02
    1.6898914337e+01   -2.9439700767e-02
    1.6998966217e+01   -3.0097700655e-02
    1.7099979401e+01   -3.0778100714e-02
    1.7198873520e+01   -3.1460098922e-02
    1.7299186707e+01   -3.2167900354e-02
    1.7399387360e+01   -3.2890900970e-02
    1.7498723984e+01   -3.3623401076e-02
    1.7598539352e+01   -3.4375101328e-02
    1.7699022293e+01   -3.5147100687e-02
    1.7799432755e+01   -3.5933200270e-02
    1.7899370193e+01   -3.6729298532e-02
    1.7999597549e+01   -3.7540499121e-02
    1.8099447250e+01   -3.8360700011e-02
    1.8199300766e+01   -3.9192698896e-02
    1.8299535751e+01   -4.0039699525e-02
    1.8399299622e+01   -4.0894500911e-02
    1.8499729156e+01   -4.1766598821e-02
    1.8599893570e+01   -4.2647600174e-02
    1.8699567795e+01   -4.3534900993e-02
    1.8799831390e+01   -4.4437501580e-02
    1.8899637222e+01   -4.5345801860e-02
    1.8998748779e+01   -4.6257298440e-02
    1.9099582672e+01   -4.7194398940e-02
    1.9199359894e+01   -4.8131000251e-02
    1.9299434662e+01   -4.9079399556e-02
    1.9398958206e+01   -5.0030898303e-02
    1.9499582291e+01   -5.1000699401e-02
    1.9598772049e+01   -5.1963601261e-02
    1.9699968338e+01   -5.2952900529e-02
    1.9798786163e+01   -5.3925499320e-02
    1.9899040222e+01   -5.4918900132e-02
    1.9999559402e+01   -5.5922001600e-02
    2.0099245071e+01   -5.6923899800e-02
    2.0199890137e+01   -5.7942900807e-02
    2.0299772263e+01   -5.8962099254e-02
    2.0399650574e+01   -5.9989698231e-02
    2.0499698639e+01   -6.1028398573e-02
    2.0599178314e+01   -6.2071301043e-02
    2.0698671341e+01   -6.3125297427e-02
    2.0798824310e+01   -6.4198002219e-02
    2.0898784637e+01   -6.5280698240e-02
    2.0999406815e+01   -6.6382996738e-02
    2.1098482132e+01   -6.7480400205e-02
    2.1199199677e+01   -6.8608202040e-02
    2.1300012589e+01   -6.9749303162e-02
    2.1399957657e+01   -7.0892997086e-02
    2.1499794006e+01   -7.2047501802e-02
    2.1599159241e+01   -7.3208302259e-02
    2.1699502945e+01   -7.4391998351e-02
    2.1798704147e+01   -7.5573898852e-02
    2.1898960114e+01   -7.6780803502e-02
    2.1998720169e+01   -7.7995203435e-02
    2.2098939896e+01   -7.9229101539e-02
    2.2199617386e+01   -8.0482997000e-02
    2.2299827576e+01   -8.1745103002e-02
    2.2399114609e+01   -8.3009101450e-02
    2.2499444962e+01   -8.4299601614e-02
    2.2598722458e+01   -8.5588902235e-02
    2.2699853897e+01   -8.6914703250e-02
    2.2798582077e+01   -8.8221102953e-02
    2.2899238586e+01   -8.9565500617e-02
    2.2999137878e+01   -9.0912401676e-02
    2.3098657608e+01   -9.2266596854e-02
    2.3199026108e+01   -9.3644902110e-02
    2.3299343109e+01   -9.5035001636e-02
    2.3398542404e+01   -9.6421897411e-02
    2.3498989105e+01   -9.7838796675e-02
    2.3598775864e+01   -9.9259100854e-02
    2.3698747635e+01   -1.0069499910e-01
    2.3799365997e+01   -1.0215400159e-01
    2.3899591446e+01   -1.0362199694e-01
    2.3998765945e+01   -1.0508800298e-01
    2.4099773407e+01   -1.0659399629e-01
    2.4199552536e+01   -1.0809600353e-01
    2.4298782349e+01   -1.0960199684e-01
    2.4399843216e+01   -1.1114999652e-01
    2.4498678207e+01   -1.1267799884e-01
    2.4598945618e+01   -1.1424399912e-01
    2.4699495316e+01   -1.1583100259e-01
    2.4799011230e+01   -1.1741700023e-01
    2.4900051117e+01   -1.1904600263e-01
    2.4999332428e+01   -1.2066400051e-01
    2.5099761963e+01   -1.2231999636e-01
    2.5199033737e+01   -1.2397500128e-01
    2.5300035477e+01   -1.2568099797e-01
    2.5399406433e+01   -1.2738199532e-01
    2.5499134064e+01   -1.2911100686e-01
    2.5599613190e+01   -1.3087899983e-01
    2.5699163437e+01   -1.3265499473e-01
    2.5798503876e+01   -1.3445200026e-01
    2.5899248123e+01   -1.3630199432e-01
    2.5999994278e+01   -1.3817900419e-01
    2.6099037170e+01   -1.4005100727e-01
    2.6200025558e+01   -1.4198699594e-01
    2.6299936295e+01   -1.4393000305e-01
    2.6399944305e+01   -1.4590099454e-01
    2.6498910904e+01   -1.4787800610e-01
    2.6599910736e+01   -1.4992199838e-01
    2.6698696136e+01   -1.5194800496e-01
    2.6799938202e+01   -1.5405200422e-01
    2.6899932861e+01   -1.5615800023e-01
    2.6999673843e+01   -1.5828700364e-01
    2.7099128723e+01   -1.6043800116e-01
    2.7198656082e+01   -1.6261899471e-01
    2.7298643112e+01   -1.6483899951e-01
    2.7399482727e+01   -1.6710600257e-01
    2.7498590469e+01   -1.6936199367e-01
    2.7599332809e+01   -1.7168299854e-01
    2.7698459625e+01   -1.7399199307e-01
    2.7799516678e+01   -1.7637200654e-01
    2.7899650574e+01   -1.7875400186e-01
    2.7999504089e+01   -1.8115399778e-01
    2.8098585129e+01   -1.8355700374e-01
    2.8199771881e+01   -1.8603299558e-01
    2.8298843384e+01   -1.8847900629e-01
    2.8399639130e+01   -1.9098900259e-01
    2.8499494553e+01   -1.9349700212e-01
    2.8599842072e+01   -1.9603699446e-01
    2.8699117661e+01   -1.9856899977e-01
    2.8798791885e+01   -2.0113000274e-01
    2.8899847031e+01   -2.0374399424e-01
    2.8999639511e+01   -2.0634299517e-01
    2.9099418640e+01   -2.0895999670e-01
    2.9198518753e+01   -2.1157400310e-01
    2.9299543381e+01   -2.1425700188e-01
    2.9399906158e+01   -2.1693700552e-01
    2.9498832703e+01   -2.1959400177e-01
    2.9599447250e+01   -2.2231100500e-01
    2.9699592590e+01   -2.2502900660e-01
    2.9798889160e+01   -2.2773799300e-01
    2.9898960114e+01   -2.3048099875e-01
    2.9999504089e+01   -2.3325100541e-01
    3.0098531723e+01   -2.3599199951e-01
    3.0199562073e+01   -2.3880299926e-01
    3.0298788071e+01   -2.4157899618e-01
    3.0398969650e+01   -2.4439699948e-01
    3.0498847961e+01   -2.4722300470e-01
    3.0599874496e+01   -2.5009900331e-01
    3.0698890686e+01   -2.5293600559e-01
    3.0799699783e+01   -2.5584399700e-01
    3.0899259567e+01   -2.5873699784e-01
    3.0999967575e+01   -2.6168501377e-01
    3.1099996567e+01   -2.6463401318e-01
    3.1198886871e+01   -2.6756900549e-01
    3.1299573898e+01   -2.7057999372e-01
    3.1399017334e+01   -2.7357399464e-01
    3.1499788284e+01   -2.7663001418e-01
    3.1599523544e+01   -2.7967500687e-01
    3.1699588776e+01   -2.8275001049e-01
    3.1799076080e+01   -2.8582799435e-01
    3.1900079727e+01   -2.8897699714e-01
    3.1999242783e+01   -2.9209199548e-01
    3.2099510193e+01   -2.9526698589e-01
    3.2198631287e+01   -2.9843100905e-01
    3.2299388885e+01   -3.0167299509e-01
    3.2399307251e+01   -3.0491200089e-01
    3.2498889923e+01   -3.0816298723e-01
    3.2599979401e+01   -3.1148600578e-01
    3.2698627472e+01   -3.1475099921e-01
    3.2799640656e+01   -3.1811499596e-01
    3.2898746490e+01   -3.2143801451e-01
    3.2999019623e+01   -3.2482200861e-01
    3.3100063324e+01   -3.2825499773e-01
    3.3199569702e+01   -3.3166000247e-01
    3.3299873352e+01   -3.3511498570e-01
    3.3399551392e+01   -3.3857199550e-01
    3.3499988556e+01   -3.4207999706e-01
    3.3598609924e+01   -3.4554898739e-01
    3.3699157715e+01   -3.4911099076e-01
    3.3799007416e+01   -3.5267400742e-01
    3.3899604797e+01   -3.5628899932e-01
    3.3998775482e+01   -3.5987898707e-01
    3.4099689484e+01   -3.6355701089e-01
    3.4199836731e+01   -3.6723101139e-01
    3.4298866272e+01   -3.7088701129e-01
    3.4399936676e+01   -3.7464401126e-01
    3.4498493195e+01   -3.7833198905e-01
    3.4599922180e+01   -3.8215601444e-01
    3.4698947906e+01   -3.8591700792e-01
    3.4799991608e+01   -3.8978600502e-01
    3.4899494171e+01   -3.9362600446e-01
    3.4998970032e+01   -3.9749601483e-01
    3.5099967957e+01   -4.0145900846e-01
    3.5199047089e+01   -4.0537899733e-01
    3.5299457550e+01   -4.0938898921e-01
    3.5398910522e+01   -4.1339799762e-01
    3.5498916626e+01   -4.1747000813e-01
    3.5599937439e+01   -4.2162701488e-01
    3.5699329376e+01   -4.2576000094e-01
    3.5799266815e+01   -4.2996099591e-01
    3.5899963379e+01   -4.3423900008e-01
    3.5999042511e+01   -4.3849399686e-01
    3.6098529816e+01   -4.4281199574e-01
    3.6199169159e+01   -4.4722700119e-01
    3.6299892426e+01   -4.5169100165e-01
    3.6399749756e+01   -4.5616200566e-01
    3.6499153137e+01   -4.6065801382e-01
    3.6598678589e+01   -4.6520298719e-01
    3.6699142456e+01   -4.6983799338e-01
    3.6799869537e+01   -4.7453099489e-01
    3.6899379730e+01   -4.7921499610e-01
    3.6998783112e+01   -4.8394200206e-01
    3.7099712372e+01   -4.8879298568e-01
    3.7199489594e+01   -4.9363699555e-01
    3.7299419403e+01   -4.9853900075e-01
    3.7399810791e+01   -5.0351297855e-01
    3.7499927521e+01   -5.0852197409e-01
    3.7599002838e+01   -5.1352399588e-01
    3.7699714661e+01   -5.1865601540e-01
    3.7798812866e+01   -5.2374899387e-01
    3.7899372101e+01   -5.2895897627e-01
    3.7999195099e+01   -5.3417301178e-01
    3.8099407196e+01   -5.3944498301e-01
    3.8199340820e+01   -5.4474198818e-01
    3.8299354553e+01   -5.5008000135e-01
    3.8399074554e+01   -5.5544000864e-01
    3.8499275208e+01   -5.6086200476e-01
    3.8599330902e+01   -5.6631201506e-01
    3.8698486328e+01   -5.7174402475e-01
    3.8799770355e+01   -5.7732599974e-01
    3.8899299622e+01   -5.8284002542e-01
    3.8998828888e+01   -5.8838301897e-01
    3.9099857330e+01   -5.9403902292e-01
    3.9199832916e+01   -5.9966301918e-01
    3.9299045563e+01   -6.0527098179e-01
    3.9398574829e+01   -6.1092197895e-01
    3.9499298096e+01   -6.1666601896e-01
    3.9598480225e+01   -6.2234401703e-01
    3.9699295044e+01   -6.2813901901e-01
    3.9798488617e+01   -6.3386201859e-01
    3.9899307251e+01   -6.3970100880e-01
    3.9998508453e+01   -6.4546799660e-01
    4.0099330902e+01   -6.5135300159e-01
    4.0199234009e+01   -6.5720897913e-01
    4.0298763275e+01   -6.6306698322e-01
    4.0399806976e+01   -6.6904097795e-01
    4.0499313354e+01   -6.7495101690e-01
    4.0598815918e+01   -6.8089002371e-01
    4.0698593140e+01   -6.8687498569e-01
    4.0799499512e+01   -6.9296097755e-01
    4.0899147034e+01   -6.9900602102e-01
    4.0999248505e+01   -7.0511102676e-01
    4.1099441528e+01   -7.1125698090e-01
    4.1199047089e+01   -7.1740001440e-01
    4.1299789429e+01   -7.2364801168e-01
    4.1398914337e+01   -7.2983002663e-01
    4.1499668121e+01   -7.3614901304e-01
    4.1599575043e+01   -7.4244898558e-01
    4.1699714661e+01   -7.4879801273e-01
    4.1799175262e+01   -7.5513899326e-01
    4.1898616791e+01   -7.6151698828e-01
    4.1999458313e+01   -7.6802700758e-01
    4.2098537445e+01   -7.7446502447e-01
    4.2199249268e+01   -7.8105199337e-01
    4.2298347473e+01   -7.8757500648e-01
    4.2398628235e+01   -7.9421901703e-01
    4.2499031067e+01   -8.0091100931e-01
    4.2598461151e+01   -8.0757802725e-01
    4.2699275970e+01   -8.1437498331e-01
    4.2799488068e+01   -8.2117098570e-01
    4.2899055481e+01   -8.2796102762e-01
    4.2998535156e+01   -8.3478498459e-01
    4.3099548340e+01   -8.4175497293e-01
    4.3199115753e+01   -8.4866601229e-01
    4.3299861908e+01   -8.5570001602e-01
    4.3398906708e+01   -8.6265701056e-01
    4.3499126434e+01   -8.6973702908e-01
    4.3598388672e+01   -8.7679201365e-01
    4.3699779510e+01   -8.8404101133e-01
    4.3799228668e+01   -8.9119499922e-01
    4.3898277283e+01   -8.9836299419e-01
    4.3999061584e+01   -9.0570002794e-01
    4.4098529816e+01   -9.1298198700e-01
    4.4199535370e+01   -9.2041701078e-01
    4.4298385620e+01   -9.2773300409e-01
    4.4399440765e+01   -9.3525302410e-01
    4.4499725342e+01   -9.4275701046e-01
    4.4599327087e+01   -9.5025402308e-01
    4.4699378967e+01   -9.5783102512e-01
    4.4798877716e+01   -9.6541297436e-01
    4.4899887085e+01   -9.7315901518e-01
    4.4998939514e+01   -9.8080497980e-01
    4.5099704742e+01   -9.8863399029e-01
    4.5199317932e+01   -9.9642699957e-01
    4.5298744202e+01   -1.0042599440e+00
    4.5399871826e+01   -1.0122900009e+00
    4.5498485565e+01   -1.0201799870e+00
    4.5598773956e+01   -1.0282700062e+00
    4.5699344635e+01   -1.0364500284e+00
    4.5799720764e+01   -1.0446799994e+00
    4.5898738861e+01   -1.0528700352e+00
    4.5999389648e+01   -1.0612599850e+00
    4.6098636627e+01   -1.0696099997e+00
    4.6199424744e+01   -1.0781600475e+00
    4.6298450470e+01   -1.0866299868e+00
    4.6399097443e+01   -1.0953099728e+00
    4.6499595642e+01   -1.1040400267e+00
    4.6598964691e+01   -1.1127500534e+00
    4.6699855804e+01   -1.1216599941e+00
    4.6798965454e+01   -1.1304899454e+00
    4.6899520874e+01   -1.1395100355e+00
    4.6998859406e+01   -1.1485099792e+00
    4.7099712372e+01   -1.1577099562e+00
    4.7199031830e+01   -1.1668499708e+00
    4.7298431396e+01   -1.1760799885e+00
    4.7399028778e+01   -1.1854799986e+00
    4.7499637604e+01   -1.1949700117e+00
    4.7598648071e+01   -1.2043700218e+00
    4.7699302673e+01   -1.2139999866e+00
    4.7798351288e+01   -1.2235399485e+00
    4.7899353027e+01   -1.2333300114e+00
    4.7999153137e+01   -1.2430700064e+00
    4.8098453522e+01   -1.2528200150e+00
    4.8198909760e+01   -1.2627400160e+00
    4.8299633026e+01   -1.2727400064e+00
    4.8398738861e+01   -1.2826399803e+00
    4.8499198914e+01   -1.2927299738e+00
    4.8598854065e+01   -1.3028000593e+00
    4.8699150085e+01   -1.3129800558e+00
    4.8799079895e+01   -1.3231699467e+00
    4.8898597717e+01   -1.3333599567e+00
    4.8999652863e+01   -1.3437500000e+00
    4.9099071503e+01   -1.3540199995e+00
    4.9199214935e+01   -1.3644000292e+00
    4.9298885345e+01   -1.3747700453e+00
    4.9398395538e+01   -1.3851599693e+00
    4.9499343872e+01   -1.3957400322e+00
    4.9599201202e+01   -1.4062299728e+00
    4.9698394775e+01   -1.4166899920e+00
    4.9798366547e+01   -1.4272600412e+00
    4.9899192810e+01   -1.4379500151e+00
    4.9998390198e+01   -1.4485000372e+00
    5.0099800110e+01   -1.4593100548e+00
    5.0198532104e+01   -1.4698799849e+00
    5.0299587250e+01   -1.4807300568e+00
    5.0399093628e+01   -1.4914499521e+00
    5.0498950958e+01   -1.5022499561e+00
    5.0599006653e+01   -1.5131200552e+00
    5.0698478699e+01   -1.5239599943e+00
    5.0799171448e+01   -1.5349800587e+00
    5.0898323059e+01   -1.5458899736e+00
    5.0998867035e+01   -1.5570000410e+00
    5.1099498749e+01   -1.5681699514e+00
    5.1199752808e+01   -1.5793499947e+00
    5.1298835754e+01   -1.5904400349e+00
    5.1398994446e+01   -1.6017099619e+00
    5.1499706268e+01   -1.6131000519e+00
    5.1599384308e+01   -1.6244200468e+00
    5.1698520660e+01   -1.6357300282e+00
    5.1799461365e+01   -1.6473000050e+00
    5.1898849487e+01   -1.6587500572e+00
    5.1999725342e+01   -1.6704399586e+00
    5.2098739624e+01   -1.6819700003e+00
    5.2199386597e+01   -1.6937500238e+00
    5.2298427582e+01   -1.7054100037e+00
    5.2398551941e+01   -1.7172700167e+00
    5.2499275208e+01   -1.7292499542e+00
    5.2598937988e+01   -1.7411700487e+00
    5.2698734283e+01   -1.7531599998e+00
    5.2798408508e+01   -1.7652000189e+00
    5.2899562836e+01   -1.7774800062e+00
    5.2998989105e+01   -1.7896100283e+00
    5.3098411560e+01   -1.8018000126e+00
    5.3199359894e+01   -1.8142399788e+00
    5.3298328400e+01   -1.8265000582e+00
    5.3398296356e+01   -1.8389500380e+00
    5.3499610901e+01   -1.8516199589e+00
    5.3598720551e+01   -1.8640899658e+00
    5.3698627472e+01   -1.8767100573e+00
    5.3798198700e+01   -1.8893599510e+00
    5.3898925781e+01   -1.9022200108e+00
    5.3999671936e+01   -1.9151500463e+00
    5.4098808289e+01   -1.9279299974e+00
    5.4199142456e+01   -1.9409199953e+00
    5.4298648834e+01   -1.9538700581e+00
    5.4399677277e+01   -1.9670699835e+00
    5.4499649048e+01   -1.9801900387e+00
    5.4599693298e+01   -1.9933899641e+00
    5.4698577881e+01   -2.0065100193e+00
    5.4799564362e+01   -2.0199599266e+00
    5.4898994446e+01   -2.0332798958e+00
    5.4999210358e+01   -2.0467801094e+00
    5.5098278046e+01   -2.0601899624e+00
    5.5199554443e+01   -2.0739800930e+00
    5.5298919678e+01   -2.0875899792e+00
    5.5398529053e+01   -2.1013100147e+00
    5.5498878479e+01   -2.1152200699e+00
    5.5599460602e+01   -2.1292500496e+00
    5.5698905945e+01   -2.1432199478e+00
    5.5798271179e+01   -2.1572599411e+00
    5.5898849487e+01   -2.1715700626e+00
    5.5999435425e+01   -2.1859900951e+00
    5.6098999023e+01   -2.2003500462e+00
    5.6199249268e+01   -2.2149000168e+00
    5.6298202515e+01   -2.2293701172e+00
    5.6398120880e+01   -2.2440600395e+00
    5.6499198914e+01   -2.2590301037e+00
    5.6598491669e+01   -2.2738299370e+00
    5.6699291229e+01   -2.2889499664e+00
    5.6799270630e+01   -2.3040499687e+00
    5.6898563385e+01   -2.3191399574e+00
    5.6999332428e+01   -2.3345599174e+00
    5.7098556519e+01   -2.3498399258e+00
    5.7199298859e+01   -2.3654599190e+00
    5.7299049377e+01   -2.3810200691e+00
    5.7399551392e+01   -2.3968100548e+00
    5.7498447418e+01   -2.4124400616e+00
    5.7598999023e+01   -2.4284200668e+00
    5.7699577332e+01   -2.4445099831e+00
    5.7798553467e+01   -2.4604198933e+00
    5.7898429871e+01   -2.4765601158e+00
    5.7999313354e+01   -2.4929599762e+00
    5.8099056244e+01   -2.5092399120e+00
    5.8199077606e+01   -2.5256500244e+00
    5.8299358368e+01   -2.5421800613e+00
    5.8398315430e+01   -2.5585699081e+00
    5.8499008179e+01   -2.5753200054e+00
    5.8599185944e+01   -2.5920500755e+00
    5.8698398590e+01   -2.6086800098e+00
    5.8799144745e+01   -2.6256399155e+00
    5.8899295807e+01   -2.6425499916e+00
    5.8998798370e+01   -2.6594200134e+00
    5.9099071503e+01   -2.6764600277e+00
    5.9198818207e+01   -2.6934700012e+00
    5.9299606323e+01   -2.7107100487e+00
    5.9398818970e+01   -2.7277300358e+00
    5.9498332977e+01   -2.7448399067e+00
    5.9598651886e+01   -2.7621300220e+00
    5.9699459076e+01   -2.7795500755e+00
    5.9798648834e+01   -2.7967300415e+00
    5.9899463654e+01   -2.8142399788e+00
    5.9998657227e+01   -2.8315000534e+00
    6.0099468231e+01   -2.8490900993e+00
    6.0199417114e+01   -2.8665699959e+00
    6.0298927307e+01   -2.8840100765e+00
    6.0398414612e+01   -2.9014999866e+00
    6.0498451233e+01   -2.9191401005e+00
    6.0599441528e+01   -2.9370000362e+00
    6.0698879242e+01   -2.9546499252e+00
    6.0798358917e+01   -2.9723598957e+00
    6.0898712158e+01   -2.9902899265e+00
    6.0998638153e+01   -3.0082099438e+00
    6.1098850250e+01   -3.0262498856e+00
    6.1198661804e+01   -3.0442800522e+00
    6.1299304962e+01   -3.0625400543e+00
    6.1398910522e+01   -3.0806701183e+00
    6.1499561310e+01   -3.0990600586e+00
    6.1599170685e+01   -3.1173300743e+00
    6.1699386597e+01   -3.1357800961e+00
    6.1798725128e+01   -3.1541399956e+00
    6.1899555206e+01   -3.1728599072e+00
    6.1998531342e+01   -3.1913099289e+00
    6.2099079132e+01   -3.2101399899e+00
    6.2198017120e+01   -3.2287499905e+00
    6.2298595428e+01   -3.2477500439e+00
    6.2399600983e+01   -3.2669200897e+00
    6.2499008179e+01   -3.2858700752e+00
    6.2599357605e+01   -3.3050799370e+00
    6.2699073792e+01   -3.3242499828e+00
    6.2798751831e+01   -3.3434998989e+00
    6.2898178101e+01   -3.3627800941e+00
    6.2999042511e+01   -3.3824200630e+00
    6.3098369598e+01   -3.4018399715e+00
    6.3199218750e+01   -3.4216499329e+00
    6.3299423218e+01   -3.4414300919e+00
    6.3399105072e+01   -3.4611799717e+00
    6.3499263763e+01   -3.4811100960e+00
    6.3598846436e+01   -3.5010099411e+00
    6.3699417114e+01   -3.5211999416e+00
    6.3798416138e+01   -3.5411601067e+00
    6.3899059296e+01   -3.5615301132e+00
    6.3998111725e+01   -3.5816600323e+00
    6.4098808289e+01   -3.6022100449e+00
    6.4198616028e+01   -3.6226499081e+00
    6.4298065186e+01   -3.6431000233e+00
    6.4399047852e+01   -3.6639399529e+00
    6.4498497009e+01   -3.6845400333e+00
    6.4598205566e+01   -3.7052800655e+00
    6.4698471069e+01   -3.7262299061e+00
    6.4799392700e+01   -3.7474000454e+00
    6.4898757935e+01   -3.7683300972e+00
    6.4998992920e+01   -3.7895400524e+00
    6.5098457336e+01   -3.8106799126e+00
    6.5199485779e+01   -3.8322401047e+00
    6.5298767090e+01   -3.8535299301e+00
    6.5398094177e+01   -3.8749299049e+00
    6.5498542786e+01   -3.8966801167e+00
    6.5599021912e+01   -3.9185600281e+00
    6.5698654175e+01   -3.9403600693e+00
    6.5798309326e+01   -3.9622800350e+00
    6.5898796082e+01   -3.9844999313e+00
    6.5999298096e+01   -4.0068402290e+00
    6.6099357605e+01   -4.0292100906e+00
    6.6198089600e+01   -4.0513901711e+00
    6.6298568726e+01   -4.0740799904e+00
    6.6399055481e+01   -4.0968899727e+00
    6.6499374390e+01   -4.1197800636e+00
    6.6598571777e+01   -4.1425299644e+00
    6.6699279785e+01   -4.1657400131e+00
    6.6798873901e+01   -4.1888198853e+00
    6.6898162842e+01   -4.2119398117e+00
    6.6998817444e+01   -4.2355098724e+00
    6.7099456787e+01   -4.2591900826e+00
    6.7198554993e+01   -4.2826399803e+00
    6.7298095703e+01   -4.3063101768e+00
    6.7398475647e+01   -4.3302998543e+00
    6.7498878479e+01   -4.3544201851e+00
    6.7599319458e+01   -4.3786602020e+00
    6.7698173523e+01   -4.4026198387e+00
    6.7798675537e+01   -4.4270901680e+00
    6.7898078918e+01   -4.4513998032e+00
    6.7998870850e+01   -4.4761500359e+00
    6.8098144531e+01   -4.5006198883e+00
    6.8198066711e+01   -4.5253601074e+00
    6.8298637390e+01   -4.5503401756e+00
    6.8399040222e+01   -4.5753798485e+00
    6.8498031616e+01   -4.6001501083e+00
    6.8599357605e+01   -4.6255898476e+00
    6.8698394775e+01   -4.6505398750e+00
    6.8799079895e+01   -4.6759700775e+00
    6.8898124695e+01   -4.7010598183e+00
    6.8999107361e+01   -4.7267098427e+00
    6.9098579407e+01   -4.7520399094e+00
    6.9198295593e+01   -4.7774901390e+00
    6.9299041748e+01   -4.8032598495e+00
    6.9399078369e+01   -4.8289098740e+00
    6.9498542786e+01   -4.8544597626e+00
    6.9599403381e+01   -4.8804202080e+00
    6.9698539734e+01   -4.9059901237e+00
    6.9799308777e+01   -4.9320201874e+00
    6.9898460388e+01   -4.9576897621e+00
    6.9999237061e+01   -4.9838199615e+00
    7.0098388672e+01   -5.0095801353e+00
    7.0198394775e+01   -5.0356101990e+00
    7.0298057556e+01   -5.0616002083e+00
    7.0399032593e+01   -5.0879998207e+00
    7.0498466492e+01   -5.1140398979e+00
    7.0599403381e+01   -5.1405501366e+00
    7.0698791504e+01   -5.1666998863e+00
    7.0798881531e+01   -5.1931200027e+00
    7.0898231506e+01   -5.2194099426e+00
    7.0999336243e+01   -5.2462401390e+00
    7.1098709106e+01   -5.2726898193e+00
    7.1198707581e+01   -5.2993798256e+00
    7.1299278259e+01   -5.3263001442e+00
    7.1398231506e+01   -5.3528599739e+00
    7.1498794556e+01   -5.3799400330e+00
    7.1598716736e+01   -5.4069199562e+00
    7.1697982788e+01   -5.4338197708e+00
    7.1798751831e+01   -5.4612002373e+00
    7.1897949219e+01   -5.4882597923e+00
    7.1998519897e+01   -5.5157799721e+00
    7.2098945618e+01   -5.5433697701e+00
    7.2199378967e+01   -5.5710601807e+00
    7.2298210144e+01   -5.5984101295e+00
    7.2398147583e+01   -5.6261601448e+00
    7.2498870850e+01   -5.6542301178e+00
    7.2598121643e+01   -5.6819901466e+00
    7.2698532104e+01   -5.7101798058e+00
    7.2799018860e+01   -5.7384901047e+00
    7.2898773193e+01   -5.7666997910e+00
    7.2997962952e+01   -5.7948598862e+00
    7.3098670959e+01   -5.8235502243e+00
    7.3199371338e+01   -5.8523402214e+00
    7.3298095703e+01   -5.8806800842e+00
    7.3398689270e+01   -5.9096598625e+00
    7.3498687744e+01   -5.9385800362e+00
    7.3597930908e+01   -5.9673800468e+00
    7.3698081970e+01   -5.9965500832e+00
    7.3798294067e+01   -6.0258398056e+00
    7.3898818970e+01   -6.0553297997e+00
    7.3999389648e+01   -6.0849199295e+00
    7.4098358154e+01   -6.1141500473e+00
    7.4198646545e+01   -6.1438498497e+00
    7.4297996521e+01   -6.1733698845e+00
    7.4398872375e+01   -6.2034401894e+00
    7.4498786926e+01   -6.2333202362e+00
    7.4598777771e+01   -6.2633099556e+00
    7.4698471069e+01   -6.2933101654e+00
    7.4799293518e+01   -6.3237600327e+00
    7.4898551941e+01   -6.3538398743e+00
    7.4998977661e+01   -6.3843698502e+00
    7.5099006653e+01   -6.4148797989e+00
    7.5198219299e+01   -6.4452500343e+00
    7.5298927307e+01   -6.4761900902e+00
    7.5399108887e+01   -6.5070900917e+00
    7.5498382568e+01   -6.5378098488e+00
    7.5598762512e+01   -6.5690097809e+00
    7.5699150085e+01   -6.6003298759e+00
    7.5798500061e+01   -6.6314501762e+00
    7.5898895264e+01   -6.6630201340e+00
    7.5999313354e+01   -6.6947298050e+00
    7.6099197388e+01   -6.7263998985e+00
    7.6198791504e+01   -6.7581000328e+00
    7.6298805237e+01   -6.7900500298e+00
    7.6399192810e+01   -6.8222498894e+00
    7.6499221802e+01   -6.8544697762e+00
    7.6598320007e+01   -6.8864998817e+00
    7.6698913574e+01   -6.9191498756e+00
    7.6799156189e+01   -6.9517998695e+00
    7.6899078369e+01   -6.9844799042e+00
    7.6998100281e+01   -7.0169901848e+00
    7.7098617554e+01   -7.0501298904e+00
    7.7199111938e+01   -7.0833902359e+00
    7.7298439026e+01   -7.1163902283e+00
    7.7398689270e+01   -7.1498298645e+00
    7.7498970032e+01   -7.1834101677e+00
    7.7599281311e+01   -7.2171101570e+00
    7.7698013306e+01   -7.2503900528e+00
    7.7798393250e+01   -7.2843499184e+00
    7.7898521423e+01   -7.3183298111e+00
    7.7999191284e+01   -7.3526000977e+00
    7.8098335266e+01   -7.3864598274e+00
    7.8197845459e+01   -7.4205498695e+00
    7.8298294067e+01   -7.4550600052e+00
    7.8398773193e+01   -7.4896798134e+00
    7.8499282837e+01   -7.5244097710e+00
    7.8598693848e+01   -7.5588397980e+00
    7.8699264526e+01   -7.5937600136e+00
    7.8798240662e+01   -7.6282000542e+00
    7.8898727417e+01   -7.6632399559e+00
    7.8998100281e+01   -7.6979598999e+00
    7.9099014282e+01   -7.7332801819e+00
    7.9198646545e+01   -7.7682199478e+00
    7.9299301147e+01   -7.8035697937e+00
    7.9398857117e+01   -7.8385901451e+00
    7.9498237610e+01   -7.8736000061e+00
    7.9598648071e+01   -7.9090199471e+00
    7.9699325562e+01   -7.9445800781e+00
    7.9798385620e+01   -7.9796099663e+00
    7.9899085999e+01   -8.0152702332e+00
    7.9998161316e+01   -8.0503997803e+00
    8.0098861694e+01   -8.0861597061e+00
    8.0197929382e+01   -8.1213798523e+00
    8.0298751831e+01   -8.1572704315e+00
    8.0398132324e+01   -8.1927099228e+00
    8.0499023438e+01   -8.2287302017e+00
    8.0598365784e+01   -8.2642698288e+00
    8.0699211121e+01   -8.3003997803e+00
    8.0798362732e+01   -8.3359899521e+00
    8.0899169922e+01   -8.3722496033e+00
    8.0998023987e+01   -8.4078903198e+00
    8.1099250793e+01   -8.4444503784e+00
    8.1198242188e+01   -8.4802703857e+00
    8.1298713684e+01   -8.5167102814e+00
    8.1399169922e+01   -8.5532197952e+00
    8.1498008728e+01   -8.5892295837e+00
    8.1599243164e+01   -8.6261901855e+00
    8.1698394775e+01   -8.6624803543e+00
    8.1799026489e+01   -8.6993999481e+00
    8.1898094177e+01   -8.7358503342e+00
    8.1998344421e+01   -8.7728300095e+00
    8.2098625183e+01   -8.8099298477e+00
    8.2198913574e+01   -8.8471403122e+00
    8.2299217224e+01   -8.8844604492e+00
    8.2397872925e+01   -8.9212703705e+00
    8.2498443604e+01   -8.9589099884e+00
    8.2598587036e+01   -8.9964895248e+00
    8.2698928833e+01   -9.0342597961e+00
    8.2799247742e+01   -9.0721197128e+00
    8.2898834229e+01   -9.1098299026e+00
    8.2997856140e+01   -9.1474304199e+00
    8.3098388672e+01   -9.1857299805e+00
    8.3198905945e+01   -9.2241401672e+00
    8.3298507690e+01   -9.2623100281e+00
    8.3398628235e+01   -9.3008098602e+00
    8.3498840332e+01   -9.3394498825e+00
    8.3598663330e+01   -9.3780603409e+00
    8.3698081970e+01   -9.4166297913e+00
    8.3798988342e+01   -9.4558897018e+00
    8.3897727966e+01   -9.4944095612e+00
    8.3998138428e+01   -9.5336904526e+00
    8.4098587036e+01   -9.5730895996e+00
    8.4198059082e+01   -9.6121997833e+00
    8.4298797607e+01   -9.6519098282e+00
    8.4398010254e+01   -9.6911096573e+00
    8.4498764038e+01   -9.7310199738e+00
    8.4597770691e+01   -9.7703304291e+00
    8.4698585510e+01   -9.8104600906e+00
    8.4797760010e+01   -9.8500404358e+00
    8.4898429871e+01   -9.8903198242e+00
    8.4998825073e+01   -9.9305801392e+00
    8.5098945618e+01   -9.9708404541e+00
    8.5198036194e+01   -1.0010800362e+01
    8.5298629761e+01   -1.0051500320e+01
    8.5398887634e+01   -1.0092100143e+01
    8.5498062134e+01   -1.0132399559e+01
    8.5598335266e+01   -1.0173299789e+01
    8.5698608398e+01   -1.0214300156e+01
    8.5798507690e+01   -1.0255200386e+01
    8.5898803711e+01   -1.0296500206e+01
    8.5999130249e+01   -1.0337800026e+01
    8.6098640442e+01   -1.0378999710e+01
    8.6199195862e+01   -1.0420700073e+01
    8.6298072815e+01   -1.0461799622e+01
    8.6398361206e+01   -1.0503600121e+01
    8.6498855591e+01   -1.0545700073e+01
    8.6597862244e+01   -1.0587200165e+01
    8.6698356628e+01   -1.0629400253e+01
    8.6798484802e+01   -1.0671699524e+01
    8.6898498535e+01   -1.0713999748e+01
    8.6998924255e+01   -1.0756600380e+01
    8.7097801208e+01   -1.0798600197e+01
    8.7198173523e+01   -1.0841500282e+01
    8.7298309326e+01   -1.0884300232e+01
    8.7398429871e+01   -1.0927300453e+01
    8.7498573303e+01   -1.0970299721e+01
    8.7598747253e+01   -1.1013500214e+01
    8.7698951721e+01   -1.1056900024e+01
    8.7799179077e+01   -1.1100299835e+01
    8.7897918701e+01   -1.1143199921e+01
    8.7998443604e+01   -1.1187000275e+01
    8.8098976135e+01   -1.1230899811e+01
    8.8198997498e+01   -1.1274700165e+01
    8.8297691345e+01   -1.1317999840e+01
    8.8398033142e+01   -1.1362099648e+01
    8.8498413086e+01   -1.1406299591e+01
    8.8597984314e+01   -1.1450200081e+01
    8.8698921204e+01   -1.1494799614e+01
    8.8797782898e+01   -1.1538599968e+01
    8.8898147583e+01   -1.1583000183e+01
    8.8998939514e+01   -1.1627799988e+01
    8.9098205566e+01   -1.1671899796e+01
    8.9199073792e+01   -1.1716799736e+01
    8.9297981262e+01   -1.1760800362e+01
    8.9398658752e+01   -1.1805700302e+01
    8.9497917175e+01   -1.1850000381e+01
    8.9598388672e+01   -1.1894900322e+01
    8.9698928833e+01   -1.1939800262e+01
    8.9797874451e+01   -1.1984100342e+01
    8.9898452759e+01   -1.2029100418e+01
    8.9999046326e+01   -1.2074199677e+01
    9.0098007202e+01   -1.2118599892e+01
    9.0198593140e+01   -1.2163700104e+01
    9.0298278809e+01   -1.2208499908e+01
    9.0399085999e+01   -1.2253800392e+01
    9.0498336792e+01   -1.2298500061e+01
    9.0599113464e+01   -1.2343899727e+01
    9.0698715210e+01   -1.2388799667e+01
    9.0798736572e+01   -1.2434000015e+01
    9.0897918701e+01   -1.2478799820e+01
    9.0998588562e+01   -1.2524399757e+01
    9.1097702026e+01   -1.2569399834e+01
    9.1198005676e+01   -1.2614899635e+01
    9.1298339844e+01   -1.2660499573e+01
    9.1398674011e+01   -1.2706199646e+01
    9.1498992920e+01   -1.2751999855e+01
    9.1599052429e+01   -1.2797699928e+01
    9.1698066711e+01   -1.2843000412e+01
    9.1798553467e+01   -1.2889100075e+01
    9.1898986816e+01   -1.2935299873e+01
    9.1997833252e+01   -1.2980799675e+01
    9.2097953796e+01   -1.3027000427e+01
    9.2198081970e+01   -1.3073300362e+01
    9.2298233032e+01   -1.3119700432e+01
    9.2398345947e+01   -1.3166199684e+01
    9.2498764038e+01   -1.3212900162e+01
    9.2598083496e+01   -1.3259200096e+01
    9.2699035645e+01   -1.3306400299e+01
    9.2797569275e+01   -1.3352600098e+01
    9.2897949219e+01   -1.3399800301e+01
    9.2998306274e+01   -1.3446999550e+01
    9.3098655701e+01   -1.3494400024e+01
    9.3198982239e+01   -1.3541799545e+01
    9.3298011780e+01   -1.3588800430e+01
    9.3397842407e+01   -1.3636300087e+01
    9.3499000549e+01   -1.3684499741e+01
    9.3598716736e+01   -1.3732199669e+01
    9.3699081421e+01   -1.3780200005e+01
    9.3797912598e+01   -1.3827699661e+01
    9.3897895813e+01   -1.3875800133e+01
    9.3998115540e+01   -1.3924099922e+01
    9.4098388672e+01   -1.3972599983e+01
    9.4197883606e+01   -1.4020700455e+01
    9.4298469543e+01   -1.4069499969e+01
    9.4397819519e+01   -1.4117799759e+01
    9.4498794556e+01   -1.4166899681e+01
    9.4598228455e+01   -1.4215399742e+01
    9.4699005127e+01   -1.4264699936e+01
    9.4798049927e+01   -1.4313099861e+01
    9.4898864746e+01   -1.4362600327e+01
    9.4997505188e+01   -1.4411000252e+01
    9.5098075867e+01   -1.4460499763e+01
    9.5198554993e+01   -1.4510100365e+01
    9.5299003601e+01   -1.4559700012e+01
    9.5397895813e+01   -1.4608699799e+01
    9.5498283386e+01   -1.4658499718e+01
    9.5597854614e+01   -1.4708000183e+01
    9.5697975159e+01   -1.4757900238e+01
    9.5798103333e+01   -1.4807900429e+01
    9.5898262024e+01   -1.4858099937e+01
    9.5998458862e+01   -1.4908300400e+01
    9.6098693848e+01   -1.4958700180e+01
    9.6197608948e+01   -1.5008500099e+01
    9.6298835754e+01   -1.5059599876e+01
    9.6399009705e+01   -1.5110300064e+01
    9.6497978210e+01   -1.5160400391e+01
    9.6598396301e+01   -1.5211400032e+01
    9.6698791504e+01   -1.5262499809e+01
    9.6798995972e+01   -1.5313599586e+01
    9.6899085999e+01   -1.5364700317e+01
    9.6997871399e+01   -1.5415300369e+01
    9.7098136902e+01   -1.5466699600e+01
    9.7198371887e+01   -1.5518199921e+01
    9.7298835754e+01   -1.5569999695e+01
    9.7398796082e+01   -1.5621600151e+01
    9.7498764038e+01   -1.5673299789e+01
    9.7598762512e+01   -1.5725199699e+01
    9.7698776245e+01   -1.5777099609e+01
    9.7798820496e+01   -1.5829199791e+01
    9.7897666931e+01   -1.5880800247e+01
    9.7998001099e+01   -1.5933199883e+01
    9.8098442078e+01   -1.5985799789e+01
    9.8198554993e+01   -1.6038200378e+01
    9.8298698425e+01   -1.6090799332e+01
    9.8398887634e+01   -1.6143499374e+01
    9.8497497559e+01   -1.6195499420e+01
    9.8597778320e+01   -1.6248399734e+01
    9.8698692322e+01   -1.6301700592e+01
    9.8799034119e+01   -1.6354799271e+01
    9.8898605347e+01   -1.6407499313e+01
    9.8997726440e+01   -1.6459999084e+01
    9.9098381042e+01   -1.6513399124e+01
    9.9198158264e+01   -1.6566299438e+01
    9.9297866821e+01   -1.6619300842e+01
    9.9398483276e+01   -1.6672800064e+01
    9.9497573853e+01   -1.6725500107e+01
    9.9599006653e+01   -1.6779399872e+01
    9.9697753906e+01   -1.6832000732e+01
    9.9798133850e+01   -1.6885499954e+01
    9.9898544312e+01   -1.6938999176e+01
    9.9998962402e+01   -1.6992500305e+01
    1.0009777832e+02   -1.7045299530e+01
    1.0019821167e+02   -1.7098899841e+01
    1.0029888916e+02   -1.7152599335e+01
    1.0039781952e+02   -1.7205499649e+01
    1.0049822998e+02   -1.7259199142e+01
    1.0059887695e+02   -1.7313100815e+01
    1.0069798279e+02   -1.7366199493e+01
    1.0079834747e+02   -1.7420000076e+01
    1.0089894104e+02   -1.7473899841e+01
    1.0099797058e+02   -1.7527099609e+01
    1.0109847260e+02   -1.7581199646e+01
    1.0119817352e+02   -1.7634799957e+01
    1.0129834747e+02   -1.7688800812e+01
    1.0139852905e+02   -1.7742799759e+01
    1.0149870300e+02   -1.7796899796e+01
    1.0159868622e+02   -1.7850999832e+01
    1.0169754028e+02   -1.7904499054e+01
    1.0179785156e+02   -1.7958799362e+01
    1.0189808655e+02   -1.8013299942e+01
    1.0199855042e+02   -1.8067899704e+01
    1.0209848785e+02   -1.8122299194e+01
    1.0219844055e+02   -1.8176900864e+01
    1.0229840851e+02   -1.8231500626e+01
    1.0239816284e+02   -1.8286199570e+01
    1.0249878693e+02   -1.8341400146e+01
    1.0259880066e+02   -1.8396299362e+01
    1.0269789124e+02   -1.8450899124e+01
    1.0279759979e+02   -1.8505899429e+01
    1.0289856720e+02   -1.8561700821e+01
    1.0299875641e+02   -1.8617200851e+01
    1.0309892273e+02   -1.8672700882e+01
    1.0319754028e+02   -1.8727600098e+01
    1.0329884338e+02   -1.8784000397e+01
    1.0339807892e+02   -1.8839399338e+01
    1.0349862671e+02   -1.8895700455e+01
    1.0359784698e+02   -1.8951299667e+01
    1.0369799042e+02   -1.9007600784e+01
    1.0379820251e+02   -1.9063999176e+01
    1.0389814758e+02   -1.9120300293e+01
    1.0399816132e+02   -1.9176900864e+01
    1.0409822845e+02   -1.9233499527e+01
    1.0419790649e+02   -1.9290000916e+01
    1.0429830170e+02   -1.9347000122e+01
    1.0439785767e+02   -1.9403600693e+01
    1.0449749756e+02   -1.9460399628e+01
    1.0459821320e+02   -1.9517799377e+01
    1.0469891357e+02   -1.9575300217e+01
    1.0479779816e+02   -1.9631900787e+01
    1.0489872742e+02   -1.9689699173e+01
    1.0499881744e+02   -1.9747200012e+01
    1.0509835815e+02   -1.9804399490e+01
    1.0519866180e+02   -1.9862100601e+01
    1.0529892731e+02   -1.9919900894e+01
    1.0539762878e+02   -1.9976900101e+01
    1.0549781036e+02   -2.0034900665e+01
    1.0559812164e+02   -2.0093000412e+01
    1.0569802856e+02   -2.0150999069e+01
    1.0579797363e+02   -2.0209199905e+01
    1.0589794159e+02   -2.0267400742e+01
    1.0599794769e+02   -2.0325799942e+01
    1.0609821320e+02   -2.0384500504e+01
    1.0619876862e+02   -2.0443399429e+01
    1.0629879761e+02   -2.0502099991e+01
    1.0639884186e+02   -2.0560899734e+01
    1.0649861145e+02   -2.0619600296e+01
    1.0659890747e+02   -2.0678699493e+01
    1.0669764709e+02   -2.0736999512e+01
    1.0679782104e+02   -2.0796300888e+01
    1.0689777374e+02   -2.0855499268e+01
    1.0699813080e+02   -2.0915000916e+01
    1.0709822845e+02   -2.0974599838e+01
    1.0719830322e+02   -2.1034200668e+01
    1.0729747772e+02   -2.1093399048e+01
    1.0739781952e+02   -2.1153400421e+01
    1.0749749756e+02   -2.1213100433e+01
    1.0759887695e+02   -2.1273899078e+01
    1.0769866943e+02   -2.1333900452e+01
    1.0779847717e+02   -2.1393999100e+01
    1.0789862061e+02   -2.1454299927e+01
    1.0799873352e+02   -2.1514799118e+01
    1.0809854889e+02   -2.1575199127e+01
    1.0819844818e+02   -2.1635700226e+01
    1.0829839325e+02   -2.1696399689e+01
    1.0839837646e+02   -2.1757200241e+01
    1.0849842834e+02   -2.1818000793e+01
    1.0859854126e+02   -2.1878999710e+01
    1.0869870758e+02   -2.1940200806e+01
    1.0879804230e+02   -2.2000799179e+01
    1.0889849854e+02   -2.2062200546e+01
    1.0899745178e+02   -2.2122800827e+01
    1.0909792328e+02   -2.2184299469e+01
    1.0919837952e+02   -2.2245800018e+01
    1.0929881287e+02   -2.2307399750e+01
    1.0939768982e+02   -2.2368099213e+01
    1.0949806976e+02   -2.2429700851e+01
    1.0959860992e+02   -2.2491399765e+01
    1.0969873810e+02   -2.2552999496e+01
    1.0979888916e+02   -2.2614599228e+01
    1.0989743805e+02   -2.2675199509e+01
    1.0999764252e+02   -2.2736900330e+01
    1.1009784698e+02   -2.2798599243e+01
    1.1019806671e+02   -2.2860300064e+01
    1.1029750061e+02   -2.2921600342e+01
    1.1039803314e+02   -2.2983699799e+01
    1.1049826050e+02   -2.3045499802e+01
    1.1059835052e+02   -2.3107400894e+01
    1.1069815826e+02   -2.3169099808e+01
    1.1079779816e+02   -2.3230699539e+01
    1.1089824677e+02   -2.3292900085e+01
    1.1099864960e+02   -2.3355100632e+01
    1.1109748840e+02   -2.3416400909e+01
    1.1119779205e+02   -2.3478700638e+01
    1.1129824066e+02   -2.3541099548e+01
    1.1139797211e+02   -2.3603200912e+01
    1.1149794006e+02   -2.3665399551e+01
    1.1159764862e+02   -2.3727600098e+01
    1.1169780731e+02   -2.3790100098e+01
    1.1179788971e+02   -2.3852600098e+01
    1.1189791107e+02   -2.3915199280e+01
    1.1199832153e+02   -2.3978200912e+01
    1.1209802246e+02   -2.4040800095e+01
    1.1219774628e+02   -2.4103500366e+01
    1.1229752350e+02   -2.4166299820e+01
    1.1239769745e+02   -2.4229499817e+01
    1.1249874878e+02   -2.4293399811e+01
    1.1259858704e+02   -2.4356500626e+01
    1.1269844055e+02   -2.4419799805e+01
    1.1279827118e+02   -2.4483200073e+01
    1.1289792633e+02   -2.4546600342e+01
    1.1299793243e+02   -2.4610300064e+01
    1.1309790802e+02   -2.4674200058e+01
    1.1319786072e+02   -2.4738100052e+01
    1.1329754639e+02   -2.4802000046e+01
    1.1339761353e+02   -2.4866300583e+01
    1.1349858856e+02   -2.4931299210e+01
    1.1359841156e+02   -2.4995599747e+01
    1.1369828033e+02   -2.5060199738e+01
    1.1379739380e+02   -2.5124300003e+01
    1.1389837646e+02   -2.5189800262e+01
    1.1399813080e+02   -2.5254600525e+01
    1.1409793854e+02   -2.5319499969e+01
    1.1419764709e+02   -2.5384500504e+01
    1.1429779816e+02   -2.5449899673e+01
    1.1439766693e+02   -2.5515199661e+01
    1.1449852753e+02   -2.5581199646e+01
    1.1459780121e+02   -2.5646299362e+01
    1.1469750977e+02   -2.5711799622e+01
    1.1479772949e+02   -2.5777700424e+01
    1.1489826202e+02   -2.5843999863e+01
    1.1499815369e+02   -2.5909900665e+01
    1.1509851837e+02   -2.5976200104e+01
    1.1519860077e+02   -2.6042400360e+01
    1.1529863739e+02   -2.6108699799e+01
    1.1539862061e+02   -2.6175100327e+01
    1.1549854279e+02   -2.6241600037e+01
    1.1559774780e+02   -2.6307699203e+01
    1.1569737244e+02   -2.6374300003e+01
    1.1579863739e+02   -2.6441999435e+01
    1.1589833832e+02   -2.6508800507e+01
    1.1599809265e+02   -2.6575799942e+01
    1.1609742737e+02   -2.6642599106e+01
    1.1619766235e+02   -2.6710100174e+01
    1.1629746246e+02   -2.6777399063e+01
    1.1639727783e+02   -2.6844900131e+01
    1.1649874878e+02   -2.6913600922e+01
    1.1659828186e+02   -2.6981000900e+01
    1.1669835663e+02   -2.7048999786e+01
    1.1679872894e+02   -2.7117200851e+01
    1.1689813232e+02   -2.7184999466e+01
    1.1699812317e+02   -2.7253200531e+01
    1.1709803772e+02   -2.7321500778e+01
    1.1719789886e+02   -2.7389900208e+01
    1.1729772186e+02   -2.7458400726e+01
    1.1739749146e+02   -2.7527000427e+01
    1.1749807739e+02   -2.7596300125e+01
    1.1759757233e+02   -2.7664899826e+01
    1.1769866943e+02   -2.7734800339e+01
    1.1779818726e+02   -2.7803699493e+01
    1.1789737701e+02   -2.7872499466e+01
    1.1799870300e+02   -2.7942899704e+01
    1.1809850311e+02   -2.8012399673e+01
    1.1819811249e+02   -2.8081800461e+01
    1.1829779816e+02   -2.8151500702e+01
    1.1839755249e+02   -2.8221200943e+01
    1.1849736786e+02   -2.8291200638e+01
    1.1859726715e+02   -2.8361299515e+01
    1.1869722748e+02   -2.8431499481e+01
    1.1879788971e+02   -2.8502300262e+01
    1.1889816284e+02   -2.8572900772e+01
    1.1899844360e+02   -2.8643600464e+01
    1.1909870911e+02   -2.8714300156e+01
    1.1919743347e+02   -2.8784000397e+01
    1.1929763031e+02   -2.8854900360e+01
    1.1939778137e+02   -2.8925699234e+01
    1.1949787140e+02   -2.8996599197e+01
    1.1959718323e+02   -2.9066999435e+01
    1.1969860840e+02   -2.9138900757e+01
    1.1979844666e+02   -2.9209800720e+01
    1.1989830780e+02   -2.9280700684e+01
    1.1999819946e+02   -2.9351699829e+01
    1.2009810638e+02   -2.9422800064e+01
    1.2019803619e+02   -2.9493999481e+01
    1.2029746246e+02   -2.9564899445e+01
    1.2039837646e+02   -2.9636800766e+01
    1.2049838257e+02   -2.9708200455e+01
    1.2059731293e+02   -2.9778900146e+01
    1.2069747925e+02   -2.9850599289e+01
    1.2079750824e+02   -2.9922199249e+01
    1.2089788055e+02   -2.9994199753e+01
    1.2099810791e+02   -3.0066099167e+01
    1.2109828949e+02   -3.0138000488e+01
    1.2119840240e+02   -3.0209999084e+01
    1.2129788971e+02   -3.0281600952e+01
    1.2139817047e+02   -3.0353900909e+01
    1.2149790955e+02   -3.0425800323e+01
    1.2159729004e+02   -3.0497600555e+01
    1.2169869995e+02   -3.0570999146e+01
    1.2179850769e+02   -3.0643299103e+01
    1.2189823914e+02   -3.0715599060e+01
    1.2199845123e+02   -3.0788400650e+01
    1.2209786987e+02   -3.0860799789e+01
    1.2219731903e+02   -3.0933300018e+01
    1.2229843140e+02   -3.1007099152e+01
    1.2239797974e+02   -3.1079900742e+01
    1.2249756622e+02   -3.1152900696e+01
    1.2259719849e+02   -3.1226100922e+01
    1.2269846344e+02   -3.1300500870e+01
    1.2279811096e+02   -3.1373899460e+01
    1.2289813995e+02   -3.1447799683e+01
    1.2299794769e+02   -3.1521600723e+01
    1.2309818268e+02   -3.1595800400e+01
    1.2319792175e+02   -3.1669900894e+01
    1.2329759979e+02   -3.1743999481e+01
    1.2339721680e+02   -3.1818300247e+01
    1.2349726105e+02   -3.1892999649e+01
    1.2359774017e+02   -3.1968299866e+01
    1.2369730377e+02   -3.2042900085e+01
    1.2379833984e+02   -3.2118900299e+01
    1.2389852142e+02   -3.2194301605e+01
    1.2399794006e+02   -3.2269298553e+01
    1.2409837341e+02   -3.2345298767e+01
    1.2419815826e+02   -3.2420799255e+01
    1.2429711914e+02   -3.2495899200e+01
    1.2439836121e+02   -3.2572799683e+01
    1.2449759674e+02   -3.2648399353e+01
    1.2459809875e+02   -3.2724998474e+01
    1.2469780731e+02   -3.2801200867e+01
    1.2479802704e+02   -3.2877899170e+01
    1.2489716339e+02   -3.2953899384e+01
    1.2499838257e+02   -3.3031600952e+01
    1.2509752655e+02   -3.3107898712e+01
    1.2519734955e+02   -3.3184799194e+01
    1.2529862213e+02   -3.3263000488e+01
    1.2539830780e+02   -3.3340099335e+01
    1.2549793243e+02   -3.3417301178e+01
    1.2559748840e+02   -3.3494598389e+01
    1.2569809723e+02   -3.3572898865e+01
    1.2579741669e+02   -3.3650398254e+01
    1.2589839172e+02   -3.3729198456e+01
    1.2599781036e+02   -3.3807098389e+01
    1.2609860229e+02   -3.3886100769e+01
    1.2619831085e+02   -3.3964500427e+01
    1.2629731750e+02   -3.4042400360e+01
    1.2639843750e+02   -3.4122100830e+01
    1.2649800873e+02   -3.4200801849e+01
    1.2659857941e+02   -3.4280399323e+01
    1.2669841766e+02   -3.4359500885e+01
    1.2679750061e+02   -3.4438201904e+01
    1.2689707184e+02   -3.4517398834e+01
    1.2699855804e+02   -3.4598300934e+01
    1.2709826660e+02   -3.4677898407e+01
    1.2719792938e+02   -3.4757598877e+01
    1.2729753876e+02   -3.4837398529e+01
    1.2739856720e+02   -3.4918598175e+01
    1.2749803925e+02   -3.4998600006e+01
    1.2759748077e+02   -3.5078800201e+01
    1.2769715118e+02   -3.5159301758e+01
    1.2779794312e+02   -3.5240898132e+01
    1.2789859772e+02   -3.5322601318e+01
    1.2799804688e+02   -3.5403400421e+01
    1.2809729004e+02   -3.5484199524e+01
    1.2819816589e+02   -3.5566398621e+01
    1.2829751587e+02   -3.5647598267e+01
    1.2839854431e+02   -3.5730400085e+01
    1.2849806213e+02   -3.5812000275e+01
    1.2859768677e+02   -3.5893798828e+01
    1.2869737244e+02   -3.5975799561e+01
    1.2879791260e+02   -3.6058700562e+01
    1.2889794922e+02   -3.6141201019e+01
    1.2899801636e+02   -3.6223899841e+01
    1.2909805298e+02   -3.6306598663e+01
    1.2919807434e+02   -3.6389400482e+01
    1.2929803467e+02   -3.6472301483e+01
    1.2939791870e+02   -3.6555198669e+01
    1.2949772644e+02   -3.6638099670e+01
    1.2959745789e+02   -3.6721099854e+01
    1.2969772339e+02   -3.6804599762e+01
    1.2979719543e+02   -3.6887599945e+01
    1.2989828491e+02   -3.6972000122e+01
    1.2999778748e+02   -3.7055099487e+01
    1.3009729004e+02   -3.7138401031e+01
    1.3019845581e+02   -3.7223098755e+01
    1.3029803467e+02   -3.7306598663e+01
    1.3039767456e+02   -3.7390201569e+01
    1.3049737549e+02   -3.7473999023e+01
    1.3059793091e+02   -3.7558700562e+01
    1.3069831848e+02   -3.7643199921e+01
    1.3079812622e+02   -3.7727401733e+01
    1.3089779663e+02   -3.7811599731e+01
    1.3099781799e+02   -3.7896198273e+01
    1.3109779358e+02   -3.7980899811e+01
    1.3119770813e+02   -3.8065601349e+01
    1.3129783630e+02   -3.8150600433e+01
    1.3139874268e+02   -3.8236301422e+01
    1.3149824524e+02   -3.8320999146e+01
    1.3159841919e+02   -3.8406299591e+01
    1.3169802856e+02   -3.8491401672e+01
    1.3179753113e+02   -3.8576400757e+01
    1.3189843750e+02   -3.8662799835e+01
    1.3199801636e+02   -3.8748199463e+01
    1.3209866333e+02   -3.8834701538e+01
    1.3219776917e+02   -3.8919998169e+01
    1.3229852295e+02   -3.9006900787e+01
    1.3239776611e+02   -3.9092601776e+01
    1.3249865723e+02   -3.9179901123e+01
    1.3259802246e+02   -3.9266101837e+01
    1.3269741821e+02   -3.9352401733e+01
    1.3279843140e+02   -3.9440299988e+01
    1.3289776611e+02   -3.9526901245e+01
    1.3299734497e+02   -3.9613998413e+01
    1.3309744263e+02   -3.9701599121e+01
    1.3319845581e+02   -3.9790199280e+01
    1.3329789734e+02   -3.9877700806e+01
    1.3339875793e+02   -3.9966499329e+01
    1.3349804688e+02   -4.0054199219e+01
    1.3359878540e+02   -4.0143398285e+01
    1.3369798279e+02   -4.0231300354e+01
    1.3379864502e+02   -4.0320800781e+01
    1.3389779663e+02   -4.0409099579e+01
    1.3399839783e+02   -4.0498798370e+01
    1.3409788513e+02   -4.0587799072e+01
    1.3419876099e+02   -4.0678100586e+01
    1.3429833984e+02   -4.0767501831e+01
    1.3439755249e+02   -4.0856700897e+01
    1.3449792480e+02   -4.0947101593e+01
    1.3459765625e+02   -4.1037101746e+01
    1.3469857788e+02   -4.1128398895e+01
    1.3479898071e+02   -4.1219398499e+01
    1.3489746094e+02   -4.1308799744e+01
    1.3499833679e+02   -4.1400501251e+01
    1.3509762573e+02   -4.1491001129e+01
    1.3519865417e+02   -4.1583198547e+01
    1.3529809570e+02   -4.1674198151e+01
    1.3539900208e+02   -4.1766700745e+01
    1.3549830627e+02   -4.1857898712e+01
    1.3559901428e+02   -4.1950500488e+01
    1.3569825745e+02   -4.2041999817e+01
    1.3579881287e+02   -4.2134998322e+01
    1.3589782715e+02   -4.2226600647e+01
    1.3599882507e+02   -4.2320301056e+01
    1.3609780884e+02   -4.2412300110e+01
    1.3619860840e+02   -4.2506198883e+01
    1.3629872131e+02   -4.2599601746e+01
    1.3639782715e+02   -4.2692298889e+01
    1.3649859619e+02   -4.2786701202e+01
    1.3659780884e+02   -4.2879798889e+01
    1.3669842529e+02   -4.2974399567e+01
    1.3679768372e+02   -4.3067798615e+01
    1.3689859009e+02   -4.3162998199e+01
    1.3699830627e+02   -4.3257301331e+01
    1.3709779358e+02   -4.3351501465e+01
    1.3719877625e+02   -4.3447299957e+01
    1.3729818726e+02   -4.3541900635e+01
    1.3739898682e+02   -4.3637901306e+01
    1.3749821472e+02   -4.3732601166e+01
    1.3759890747e+02   -4.3828899384e+01
    1.3769900513e+02   -4.3924800873e+01
    1.3779789734e+02   -4.4019699097e+01
    1.3789869690e+02   -4.4116600037e+01
    1.3799778748e+02   -4.4212200165e+01
    1.3809777832e+02   -4.4308700562e+01
    1.3819825745e+02   -4.4405899048e+01
    1.3829881287e+02   -4.4503398895e+01
    1.3839785767e+02   -4.4599601746e+01
    1.3849859619e+02   -4.4697601318e+01
    1.3859786987e+02   -4.4794300079e+01
    1.3869885254e+02   -4.4892799377e+01
    1.3879890442e+02   -4.4990600586e+01
    1.3889868164e+02   -4.5088298798e+01
    1.3899847412e+02   -4.5186100006e+01
    1.3909825134e+02   -4.5284099579e+01
    1.3919912720e+02   -4.5383201599e+01
    1.3929815674e+02   -4.5480701447e+01
    1.3939779663e+02   -4.5578899384e+01
    1.3949882507e+02   -4.5678600311e+01
    1.3959825134e+02   -4.5776798248e+01
    1.3969923401e+02   -4.5876701355e+01
    1.3979832458e+02   -4.5974800110e+01
    1.3989828491e+02   -4.6074001312e+01
    1.3999815369e+02   -4.6173099518e+01
    1.4009883118e+02   -4.6273200989e+01
    1.4019793701e+02   -4.6371898651e+01
    1.4029869080e+02   -4.6472301483e+01
    1.4039790344e+02   -4.6571300507e+01
    1.4049880981e+02   -4.6672199249e+01
    1.4059927368e+02   -4.6772701263e+01
    1.4069894409e+02   -4.6872600555e+01
    1.4079841614e+02   -4.6972400665e+01
    1.4089863586e+02   -4.7073001862e+01
    1.4099836731e+02   -4.7173400879e+01
    1.4109806824e+02   -4.7273799896e+01
    1.4119786072e+02   -4.7374401093e+01
    1.4129887390e+02   -4.7476398468e+01
    1.4139828491e+02   -4.7576900482e+01
    1.4149916077e+02   -4.7679100037e+01
    1.4159887695e+02   -4.7780200958e+01
    1.4169822693e+02   -4.7881000519e+01
    1.4179895020e+02   -4.7983398438e+01
    1.4189804077e+02   -4.8084400177e+01
    1.4199853516e+02   -4.8186901093e+01
    1.4209884644e+02   -4.8289398193e+01
    1.4219917297e+02   -4.8392101288e+01
    1.4229794312e+02   -4.8493400574e+01
    1.4239839172e+02   -4.8596500397e+01
    1.4249891663e+02   -4.8700000763e+01
    1.4259791565e+02   -4.8801998138e+01
    1.4269854736e+02   -4.8905998230e+01
    1.4279920959e+02   -4.9010101318e+01
    1.4289848328e+02   -4.9112998962e+01
    1.4299862671e+02   -4.9216999054e+01
    1.4309934998e+02   -4.9321899414e+01
    1.4319859314e+02   -4.9425399780e+01
    1.4329930115e+02   -4.9530498505e+01
    1.4339839172e+02   -4.9634300232e+01
    1.4349890137e+02   -4.9739700317e+01
    1.4359933472e+02   -4.9845298767e+01
    1.4369821167e+02   -4.9949401855e+01
    1.4379852295e+02   -5.0055198669e+01
    1.4389805603e+02   -5.0160400391e+01
    1.4399826050e+02   -5.0266601562e+01
    1.4409875488e+02   -5.0373199463e+01
    1.4419917297e+02   -5.0479900360e+01
    1.4429875183e+02   -5.0585998535e+01
    1.4439907837e+02   -5.0693000793e+01
    1.4449894714e+02   -5.0799800873e+01
    1.4459950256e+02   -5.0907398224e+01
    1.4469831848e+02   -5.1013500214e+01
    1.4479878235e+02   -5.1121398926e+01
    1.4489920044e+02   -5.1229499817e+01
    1.4499963379e+02   -5.1337898254e+01
    1.4509945679e+02   -5.1445701599e+01
    1.4519860840e+02   -5.1553001404e+01
    1.4529924011e+02   -5.1662200928e+01
    1.4539834595e+02   -5.1769798279e+01
    1.4549887085e+02   -5.1879199982e+01
    1.4559930420e+02   -5.1988700867e+01
    1.4569920349e+02   -5.2097801208e+01
    1.4579946899e+02   -5.2207500458e+01
    1.4589816284e+02   -5.2315700531e+01
    1.4599911499e+02   -5.2426498413e+01
    1.4609951782e+02   -5.2536998749e+01
    1.4619841003e+02   -5.2645900726e+01
    1.4629905701e+02   -5.2756999969e+01
    1.4639930725e+02   -5.2867801666e+01
    1.4649961853e+02   -5.2978900909e+01
    1.4659840393e+02   -5.3088500977e+01
    1.4669885254e+02   -5.3200099945e+01
    1.4679937744e+02   -5.3311901093e+01
    1.4689836121e+02   -5.3422199249e+01
    1.4699847412e+02   -5.3534000397e+01
    1.4709924316e+02   -5.3646701813e+01
    1.4719940186e+02   -5.3758899689e+01
    1.4729922485e+02   -5.3870800018e+01
    1.4739837646e+02   -5.3982200623e+01
    1.4749894714e+02   -5.4095401764e+01
    1.4759947205e+02   -5.4208698273e+01
    1.4769845581e+02   -5.4320499420e+01
    1.4779876709e+02   -5.4433898926e+01
    1.4789859009e+02   -5.4547000885e+01
    1.4799894714e+02   -5.4660900116e+01
    1.4809941101e+02   -5.4775001526e+01
    1.4819955444e+02   -5.4888999939e+01
    1.4829977417e+02   -5.5003299713e+01
    1.4839848328e+02   -5.5116001129e+01
    1.4849884033e+02   -5.5230800629e+01
    1.4859930420e+02   -5.5345798492e+01
    1.4869830322e+02   -5.5459400177e+01
    1.4879846191e+02   -5.5574401855e+01
    1.4889938354e+02   -5.5690498352e+01
    1.4899882507e+02   -5.5805000305e+01
    1.4909979248e+02   -5.5921398163e+01
    1.4919975281e+02   -5.6036701202e+01
    1.4929914856e+02   -5.6151599884e+01
    1.4939851379e+02   -5.6266498566e+01
    1.4949926758e+02   -5.6383201599e+01
    1.4959843445e+02   -5.6498199463e+01
    1.4969902039e+02   -5.6614898682e+01
    1.4979867554e+02   -5.6730701447e+01
    1.4989886475e+02   -5.6847198486e+01
    1.4999931335e+02   -5.6964099884e+01
    1.5009977722e+02   -5.7081199646e+01
    1.5019847107e+02   -5.7196399689e+01
    1.5029879761e+02   -5.7313598633e+01
    1.5039918518e+02   -5.7430999756e+01
    1.5049966431e+02   -5.7548698425e+01
    1.5059939575e+02   -5.7665599823e+01
    1.5069918823e+02   -5.7782699585e+01
    1.5079981995e+02   -5.7900901794e+01
    1.5089997864e+02   -5.8018699646e+01
    1.5099931335e+02   -5.8135700226e+01
    1.5109934998e+02   -5.8253601074e+01
    1.5119996643e+02   -5.8372398376e+01
    1.5129995728e+02   -5.8490501404e+01
    1.5139897156e+02   -5.8607601166e+01
    1.5149957275e+02   -5.8726699829e+01
    1.5159933472e+02   -5.8845001221e+01
    1.5169995117e+02   -5.8964401245e+01
    1.5179896545e+02   -5.9082000732e+01
    1.5189933777e+02   -5.9201400757e+01
    1.5199894714e+02   -5.9320098877e+01
    1.5209901428e+02   -5.9439399719e+01
    1.5219906616e+02   -5.9558898926e+01
    1.5229910278e+02   -5.9678600311e+01
    1.5239918518e+02   -5.9798500061e+01
    1.5249934387e+02   -5.9918598175e+01
    1.5259996033e+02   -6.0039501190e+01
    1.5269964600e+02   -6.0159400940e+01
    1.5279988098e+02   -6.0280200958e+01
    1.5289854431e+02   -6.0399200439e+01
    1.5299879456e+02   -6.0520401001e+01
    1.5309999084e+02   -6.0642898560e+01
    1.5319888306e+02   -6.0762798309e+01
    1.5329927063e+02   -6.0884799957e+01
    1.5339959717e+02   -6.1006801605e+01
    1.5349984741e+02   -6.1128898621e+01
    1.5360000610e+02   -6.1251201630e+01
    1.5370013428e+02   -6.1373600006e+01
    1.5379870605e+02   -6.1494201660e+01
    1.5389900208e+02   -6.1617198944e+01
    1.5399894714e+02   -6.1739898682e+01
    1.5409877014e+02   -6.1862598419e+01
    1.5419885254e+02   -6.1985900879e+01
    1.5430000305e+02   -6.2110599518e+01
    1.5439991760e+02   -6.2233898163e+01
    1.5449903870e+02   -6.2356498718e+01
    1.5459910583e+02   -6.2480400085e+01
    1.5469914246e+02   -6.2604499817e+01
    1.5479963684e+02   -6.2729301453e+01
    1.5489950562e+02   -6.2853500366e+01
    1.5499943542e+02   -6.2977901459e+01
    1.5509944153e+02   -6.3102600098e+01
    1.5519898987e+02   -6.3226898193e+01
    1.5529997253e+02   -6.3353199005e+01
    1.5539918518e+02   -6.3477401733e+01
    1.5549945068e+02   -6.3603099823e+01
    1.5559965515e+02   -6.3728900909e+01
    1.5570025635e+02   -6.3855300903e+01
    1.5580029297e+02   -6.3981201172e+01
    1.5589877319e+02   -6.4105300903e+01
    1.5600025940e+02   -6.4233398438e+01
    1.5609890747e+02   -6.4358001709e+01
    1.5619900513e+02   -6.4484596252e+01
    1.5629908752e+02   -6.4611396790e+01
    1.5639903259e+02   -6.4738098145e+01
    1.5649899292e+02   -6.4864997864e+01
    1.5659899902e+02   -6.4992103577e+01
    1.5669908142e+02   -6.5119400024e+01
    1.5679924011e+02   -6.5246902466e+01
    1.5689950562e+02   -6.5374801636e+01
    1.5699934387e+02   -6.5502296448e+01
    1.5710032654e+02   -6.5631301880e+01
    1.5719912720e+02   -6.5757698059e+01
    1.5729968262e+02   -6.5886497498e+01
    1.5740020752e+02   -6.6015403748e+01
    1.5749914551e+02   -6.6142402649e+01
    1.5759956360e+02   -6.6271499634e+01
    1.5769993591e+02   -6.6400596619e+01
    1.5779942322e+02   -6.6528701782e+01
    1.5789971924e+02   -6.6657997131e+01
    1.5799995422e+02   -6.6787399292e+01
    1.5809956360e+02   -6.6916099548e+01
    1.5819956970e+02   -6.7045402527e+01
    1.5829960632e+02   -6.7174896240e+01
    1.5839968872e+02   -6.7304702759e+01
    1.5849981689e+02   -6.7434600830e+01
    1.5860000610e+02   -6.7564697266e+01
    1.5870027161e+02   -6.7695098877e+01
    1.5880015564e+02   -6.7825103760e+01
    1.5889923096e+02   -6.7954101562e+01
    1.5899980164e+02   -6.8085197449e+01
    1.5910035706e+02   -6.8216400146e+01
    1.5919900513e+02   -6.8345199585e+01
    1.5929942322e+02   -6.8476402283e+01
    1.5939929199e+02   -6.8607002258e+01
    1.5949974060e+02   -6.8738403320e+01
    1.5960011292e+02   -6.8869796753e+01
    1.5970042419e+02   -6.9001296997e+01
    1.5980018616e+02   -6.9132102966e+01
    1.5990005493e+02   -6.9263198853e+01
    1.6000022888e+02   -6.9394699097e+01
    1.6009919739e+02   -6.9524696350e+01
    1.6019912720e+02   -6.9656196594e+01
    1.6029908752e+02   -6.9787696838e+01
    1.6039910889e+02   -6.9919403076e+01
    1.6049917603e+02   -7.0051300049e+01
    1.6059915161e+02   -7.0183097839e+01
    1.6069943237e+02   -7.0315498352e+01
    1.6079946899e+02   -7.0447601318e+01
    1.6089927673e+02   -7.0579498291e+01
    1.6099958801e+02   -7.0712196350e+01
    1.6110003662e+02   -7.0845199585e+01
    1.6120013428e+02   -7.0977798462e+01
    1.6130024719e+02   -7.1110496521e+01
    1.6140043640e+02   -7.1243400574e+01
    1.6150065613e+02   -7.1376502991e+01
    1.6159942627e+02   -7.1507698059e+01
    1.6169978333e+02   -7.1641098022e+01
    1.6180007935e+02   -7.1774597168e+01
    1.6190029907e+02   -7.1907997131e+01
    1.6200051880e+02   -7.2041496277e+01
    1.6210043335e+02   -7.2174797058e+01
    1.6220031738e+02   -7.2308097839e+01
    1.6230015564e+02   -7.2441497803e+01
    1.6239999390e+02   -7.2574996948e+01
    1.6249986267e+02   -7.2708602905e+01
    1.6259930420e+02   -7.2841796875e+01
    1.6269935608e+02   -7.2975898743e+01
    1.6279985046e+02   -7.3110801697e+01
    1.6289970398e+02   -7.3245002747e+01
    1.6299955750e+02   -7.3379302979e+01
    1.6309941101e+02   -7.3513702393e+01
    1.6319981384e+02   -7.3649002075e+01
    1.6329983521e+02   -7.3783996582e+01
    1.6339987183e+02   -7.3918998718e+01
    1.6349986267e+02   -7.4054199219e+01
    1.6359982300e+02   -7.4189498901e+01
    1.6369973755e+02   -7.4324798584e+01
    1.6379962158e+02   -7.4460197449e+01
    1.6389929199e+02   -7.4595497131e+01
    1.6400065613e+02   -7.4733200073e+01
    1.6410052490e+02   -7.4868896484e+01
    1.6420043945e+02   -7.5004898071e+01
    1.6429942322e+02   -7.5139602661e+01
    1.6440066528e+02   -7.5277603149e+01
    1.6450042725e+02   -7.5413696289e+01
    1.6460017395e+02   -7.5549797058e+01
    1.6469987488e+02   -7.5685997009e+01
    1.6480012512e+02   -7.5823097229e+01
    1.6489959717e+02   -7.5959197998e+01
    1.6500065613e+02   -7.6097503662e+01
    1.6510021973e+02   -7.6234001160e+01
    1.6519970703e+02   -7.6370399475e+01
    1.6529983521e+02   -7.6507698059e+01
    1.6540072632e+02   -7.6646301270e+01
    1.6550067139e+02   -7.6783599854e+01
    1.6560058594e+02   -7.6920997620e+01
    1.6570019531e+02   -7.7057998657e+01
    1.6580000305e+02   -7.7195396423e+01
    1.6589987183e+02   -7.7333000183e+01
    1.6600013733e+02   -7.7471199036e+01
    1.6610011292e+02   -7.7609100342e+01
    1.6620004272e+02   -7.7747100830e+01
    1.6629995728e+02   -7.7885101318e+01
    1.6640086365e+02   -7.8024497986e+01
    1.6650065613e+02   -7.8162399292e+01
    1.6660049438e+02   -7.8300498962e+01
    1.6670036316e+02   -7.8438697815e+01
    1.6680029297e+02   -7.8577102661e+01
    1.6690032959e+02   -7.8715698242e+01
    1.6700076294e+02   -7.8854797363e+01
    1.6710057068e+02   -7.8993202209e+01
    1.6720074463e+02   -7.9132202148e+01
    1.6730024719e+02   -7.9270301819e+01
    1.6740055847e+02   -7.9409599304e+01
    1.6750079346e+02   -7.9548797607e+01
    1.6759953308e+02   -7.9685997009e+01
    1.6769953918e+02   -7.9825103760e+01
    1.6780090332e+02   -7.9966102600e+01
    1.6789959717e+02   -8.0103500366e+01
    1.6800062561e+02   -8.0244102478e+01
    1.6810060120e+02   -8.0383399963e+01
    1.6820057678e+02   -8.0522796631e+01
    1.6830056763e+02   -8.0662200928e+01
    1.6840060425e+02   -8.0801696777e+01
    1.6850028992e+02   -8.0940902710e+01
    1.6860011292e+02   -8.1080299377e+01
    1.6870019531e+02   -8.1220100403e+01
    1.6880055237e+02   -8.1360298157e+01
    1.6890081787e+02   -8.1500396729e+01
    1.6900103760e+02   -8.1640602112e+01
    1.6909970093e+02   -8.1778602600e+01
    1.6920062256e+02   -8.1919799805e+01
    1.6930059814e+02   -8.2059700012e+01
    1.6940103149e+02   -8.2200302124e+01
    1.6950102234e+02   -8.2340202332e+01
    1.6960066223e+02   -8.2479797363e+01
    1.6970060730e+02   -8.2619697571e+01
    1.6980050659e+02   -8.2759696960e+01
    1.6990025330e+02   -8.2899398804e+01
    1.7000094604e+02   -8.3040496826e+01
    1.7010078430e+02   -8.3180496216e+01
    1.7020089722e+02   -8.3320800781e+01
    1.7030055237e+02   -8.3460601807e+01
    1.7040023804e+02   -8.3600402832e+01
    1.7049996948e+02   -8.3740303040e+01
    1.7059971619e+02   -8.3880203247e+01
    1.7070010376e+02   -8.4021102905e+01
    1.7080085754e+02   -8.4162597656e+01
    1.7090109253e+02   -8.4303298950e+01
    1.7100088501e+02   -8.4443496704e+01
    1.7110058594e+02   -8.4583503723e+01
    1.7120095825e+02   -8.4724502563e+01
    1.7130053711e+02   -8.4864402771e+01
    1.7140017700e+02   -8.5004501343e+01
    1.7149992371e+02   -8.5144699097e+01
    1.7160124207e+02   -8.5287200928e+01
    1.7170121765e+02   -8.5427803040e+01
    1.7180119324e+02   -8.5568397522e+01
    1.7190115356e+02   -8.5709098816e+01
    1.7200105286e+02   -8.5849700928e+01
    1.7210096741e+02   -8.5990303040e+01
    1.7220066833e+02   -8.6130699158e+01
    1.7230036926e+02   -8.6271102905e+01
    1.7240005493e+02   -8.6411499023e+01
    1.7250131226e+02   -8.6554199219e+01
    1.7260099792e+02   -8.6694702148e+01
    1.7270042419e+02   -8.6834899902e+01
    1.7280094910e+02   -8.6976699829e+01
    1.7290054321e+02   -8.7117202759e+01
    1.7300013733e+02   -8.7257797241e+01
    1.7310130310e+02   -8.7400596619e+01
    1.7320066833e+02   -8.7541000366e+01
    1.7330029297e+02   -8.7681800842e+01
    1.7339997864e+02   -8.7822700500e+01
    1.7350126648e+02   -8.7966003418e+01
    1.7360104370e+02   -8.8107101440e+01
    1.7370082092e+02   -8.8248298645e+01
    1.7380056763e+02   -8.8389503479e+01
    1.7390046692e+02   -8.8530899048e+01
    1.7400010681e+02   -8.8672096252e+01
    1.7410105896e+02   -8.8815002441e+01
    1.7420089722e+02   -8.8956497192e+01
    1.7430119324e+02   -8.9098602295e+01
    1.7440078735e+02   -8.9239700317e+01
    1.7450083923e+02   -8.9381500244e+01
    1.7460049438e+02   -8.9522796631e+01
    1.7470010376e+02   -8.9664001465e+01
    1.7480111694e+02   -8.9807197571e+01
    1.7490075684e+02   -8.9948402405e+01
    1.7500004578e+02   -9.0089103699e+01
    1.7510095215e+02   -9.0232200623e+01
    1.7520071411e+02   -9.0373596191e+01
    1.7530026245e+02   -9.0514801025e+01
    1.7540046692e+02   -9.0656799316e+01
    1.7550091553e+02   -9.0799201965e+01
    1.7560054016e+02   -9.0940399170e+01
    1.7570124817e+02   -9.1083198547e+01
    1.7580075073e+02   -9.1224197388e+01
    1.7590032959e+02   -9.1365402222e+01
    1.7600041199e+02   -9.1507202148e+01
    1.7610017395e+02   -9.1648597717e+01
    1.7620140076e+02   -9.1792098999e+01
    1.7630114746e+02   -9.1933502197e+01
    1.7640034485e+02   -9.2074096680e+01
    1.7650001526e+02   -9.2215301514e+01
    1.7660075378e+02   -9.2358001709e+01
    1.7670155334e+02   -9.2500801086e+01
    1.7680137634e+02   -9.2642196655e+01
    1.7690121460e+02   -9.2783599854e+01
    1.7700111389e+02   -9.2925102234e+01
    1.7710104370e+02   -9.3066596985e+01
    1.7720054626e+02   -9.3207496643e+01
    1.7730064392e+02   -9.3349197388e+01
    1.7740068054e+02   -9.3490699768e+01
    1.7750062561e+02   -9.3632202148e+01
    1.7760052490e+02   -9.3773597717e+01
    1.7770046997e+02   -9.3914901733e+01
    1.7780152893e+02   -9.4057899475e+01
    1.7790144348e+02   -9.4199302673e+01
    1.7800102234e+02   -9.4340103149e+01
    1.7810079956e+02   -9.4481201172e+01
    1.7820062256e+02   -9.4622398376e+01
    1.7830050659e+02   -9.4763702393e+01
    1.7840043640e+02   -9.4904998779e+01
    1.7850041199e+02   -9.5046302795e+01
    1.7860023499e+02   -9.5187500000e+01
    1.7870126343e+02   -9.5330299377e+01
    1.7880137634e+02   -9.5471702576e+01
    1.7890141296e+02   -9.5613098145e+01
    1.7900135803e+02   -9.5754302979e+01
    1.7910119629e+02   -9.5895301819e+01
    1.7920065308e+02   -9.6035797119e+01
    1.7930116272e+02   -9.6177696228e+01
    1.7940080261e+02   -9.6318298340e+01
    1.7950059509e+02   -9.6458999634e+01
    1.7960156250e+02   -9.6601402283e+01
    1.7970164490e+02   -9.6742500305e+01
    1.7980116272e+02   -9.6882797241e+01
    1.7990046692e+02   -9.7022598267e+01
    1.8000042725e+02   -9.7163398743e+01
    1.8010139465e+02   -9.7305496216e+01
    1.8020178223e+02   -9.7446800232e+01
    1.8030107117e+02   -9.7586402893e+01
    1.8040037537e+02   -9.7726097107e+01
    1.8050131226e+02   -9.7867996216e+01
    1.8060069275e+02   -9.8007598877e+01
    1.8070162964e+02   -9.8149398804e+01
    1.8080166626e+02   -9.8289901733e+01
    1.8090104675e+02   -9.8429397583e+01
    1.8100044250e+02   -9.8568901062e+01
    1.8110122681e+02   -9.8710296631e+01
    1.8120103455e+02   -9.8850196838e+01
    1.8130175781e+02   -9.8991401672e+01
    1.8140097046e+02   -9.9130401611e+01
    1.8150184631e+02   -9.9271697998e+01
    1.8160069275e+02   -9.9410102844e+01
    1.8170173645e+02   -9.9551597595e+01
    1.8180131531e+02   -9.9690902710e+01
    1.8190089417e+02   -9.9830200195e+01
    1.8200047302e+02   -9.9969398499e+01
    1.8210104370e+02   -1.0011000061e+02
    1.8220051575e+02   -1.0024900055e+02
    1.8230157471e+02   -1.0038999939e+02
    1.8240109253e+02   -1.0052899933e+02
    1.8250117493e+02   -1.0066899872e+02
    1.8260070801e+02   -1.0080799866e+02
    1.8270187378e+02   -1.0094899750e+02
    1.8280120850e+02   -1.0108699799e+02
    1.8290124512e+02   -1.0122699738e+02
    1.8300152588e+02   -1.0136699677e+02
    1.8310101318e+02   -1.0150499725e+02
    1.8320051575e+02   -1.0164399719e+02
    1.8330163574e+02   -1.0178500366e+02
    1.8340150452e+02   -1.0192400360e+02
    1.8350120544e+02   -1.0206300354e+02
    1.8360087585e+02   -1.0220099640e+02
    1.8370051575e+02   -1.0233999634e+02
    1.8380162048e+02   -1.0248100281e+02
    1.8390081787e+02   -1.0261900330e+02
    1.8400189209e+02   -1.0275900269e+02
    1.8410098267e+02   -1.0289700317e+02
    1.8420069885e+02   -1.0303500366e+02
    1.8430099487e+02   -1.0317400360e+02
    1.8440051270e+02   -1.0331199646e+02
    1.8450160217e+02   -1.0345200348e+02
    1.8460110474e+02   -1.0358999634e+02
    1.8470137024e+02   -1.0372899628e+02
    1.8480093384e+02   -1.0386699677e+02
    1.8490191650e+02   -1.0400700378e+02
    1.8500114441e+02   -1.0414399719e+02
    1.8510061646e+02   -1.0428099823e+02
    1.8520150757e+02   -1.0441999817e+02
    1.8530085754e+02   -1.0455699921e+02
    1.8540155029e+02   -1.0469599915e+02
    1.8550123596e+02   -1.0483399963e+02
    1.8560203552e+02   -1.0497200012e+02
    1.8570106506e+02   -1.0510800171e+02
    1.8580180359e+02   -1.0524700165e+02
    1.8590103149e+02   -1.0538300323e+02
    1.8600187683e+02   -1.0552200317e+02
    1.8610116577e+02   -1.0565799713e+02
    1.8620164490e+02   -1.0579599762e+02
    1.8630113220e+02   -1.0593199921e+02
    1.8640101624e+02   -1.0606900024e+02
    1.8650201416e+02   -1.0620700073e+02
    1.8660150146e+02   -1.0634300232e+02
    1.8670106506e+02   -1.0647899628e+02
    1.8680172729e+02   -1.0661699677e+02
    1.8690151978e+02   -1.0675299835e+02
    1.8700201416e+02   -1.0688999939e+02
    1.8710168457e+02   -1.0702600098e+02
    1.8720118713e+02   -1.0716100311e+02
    1.8730099487e+02   -1.0729699707e+02
    1.8740220642e+02   -1.0743499756e+02
    1.8750181580e+02   -1.0756999969e+02
    1.8760134888e+02   -1.0770500183e+02
    1.8770118713e+02   -1.0784100342e+02
    1.8780154419e+02   -1.0797699738e+02
    1.8790106201e+02   -1.0811199951e+02
    1.8800163269e+02   -1.0824800110e+02
    1.8810102844e+02   -1.0838300323e+02
    1.8820205688e+02   -1.0851899719e+02
    1.8830162048e+02   -1.0865399933e+02
    1.8840126038e+02   -1.0878800201e+02
    1.8850097656e+02   -1.0892299652e+02
    1.8860227966e+02   -1.0905999756e+02
    1.8870123291e+02   -1.0919300079e+02
    1.8880165100e+02   -1.0932800293e+02
    1.8890144348e+02   -1.0946199799e+02
    1.8900111389e+02   -1.0959600067e+02
    1.8910215759e+02   -1.0973200226e+02
    1.8920159912e+02   -1.0986599731e+02
    1.8930096436e+02   -1.0999900055e+02
    1.8940170288e+02   -1.1013400269e+02
    1.8950140381e+02   -1.1026699829e+02
    1.8960200500e+02   -1.1040100098e+02
    1.8970190430e+02   -1.1053500366e+02
    1.8980111694e+02   -1.1066699982e+02
    1.8990179443e+02   -1.1080100250e+02
    1.9000099182e+02   -1.1093299866e+02
    1.9010165405e+02   -1.1106700134e+02
    1.9020227051e+02   -1.1119999695e+02
    1.9030105591e+02   -1.1133100128e+02
    1.9040156555e+02   -1.1146399689e+02
    1.9050210571e+02   -1.1159700012e+02
    1.9060112000e+02   -1.1172799683e+02
    1.9070172119e+02   -1.1186100006e+02
    1.9080233765e+02   -1.1199400330e+02
    1.9090138245e+02   -1.1212400055e+02
    1.9100221252e+02   -1.1225700378e+02
    1.9110136414e+02   -1.1238700104e+02
    1.9120124817e+02   -1.1251799774e+02
    1.9130226135e+02   -1.1265000153e+02
    1.9140130615e+02   -1.1277999878e+02
    1.9150198364e+02   -1.1291200256e+02
    1.9160215759e+02   -1.1304299927e+02
    1.9170144653e+02   -1.1317199707e+02
    1.9180220032e+02   -1.1330400085e+02
    1.9190150452e+02   -1.1343299866e+02
    1.9200230408e+02   -1.1356400299e+02
    1.9210130310e+02   -1.1369300079e+02
    1.9220210266e+02   -1.1382399750e+02
    1.9230139160e+02   -1.1395300293e+02
    1.9240229797e+02   -1.1408300018e+02
    1.9250166321e+02   -1.1421199799e+02
    1.9260105896e+02   -1.1434100342e+02
    1.9270210266e+02   -1.1447100067e+02
    1.9280160522e+02   -1.1459899902e+02
    1.9290133667e+02   -1.1472799683e+02
    1.9300242615e+02   -1.1485800171e+02
    1.9310226440e+02   -1.1498699951e+02
    1.9320172119e+02   -1.1511499786e+02
    1.9330122375e+02   -1.1524199677e+02
    1.9340150452e+02   -1.1537100220e+02
    1.9350114441e+02   -1.1549900055e+02
    1.9360223389e+02   -1.1562799835e+02
    1.9370178223e+02   -1.1575599670e+02
    1.9380122375e+02   -1.1588300323e+02
    1.9390136719e+02   -1.1601000214e+02
    1.9400218201e+02   -1.1613899994e+02
    1.9410147095e+02   -1.1626499939e+02
    1.9420201111e+02   -1.1639299774e+02
    1.9430111694e+02   -1.1651799774e+02
    1.9440263367e+02   -1.1664700317e+02
[...]
    2.5130525208e+02   -1.3923800659e+02
    2.5140496826e+02   -1.3920700073e+02
    2.5150505066e+02   -1.3917500305e+02
    2.5160516357e+02   -1.3914300537e+02
    2.5170469666e+02   -1.3911000061e+02
    2.5180487061e+02   -1.3907699585e+02
    2.5190501404e+02   -1.3904400635e+02
    2.5200515747e+02   -1.3900999451e+02
    2.5210531616e+02   -1.3897599792e+02
    2.5220550537e+02   -1.3894200134e+02
    2.5230467224e+02   -1.3890699768e+02
    2.5240487671e+02   -1.3887199402e+02
    2.5250512695e+02   -1.3883599854e+02
    2.5260542297e+02   -1.3880000305e+02
    2.5270581055e+02   -1.3876400757e+02
    2.5280471802e+02   -1.3872700500e+02
    2.5290512085e+02   -1.3869000244e+02
    2.5300585938e+02   -1.3865299988e+02
    2.5310502625e+02   -1.3861599731e+02
    2.5320562744e+02   -1.3857699585e+02
    2.5330619812e+02   -1.3853900146e+02
    2.5340524292e+02   -1.3850100708e+02
    2.5350573730e+02   -1.3846200562e+02
    2.5360620117e+02   -1.3842199707e+02
    2.5370498657e+02   -1.3838299561e+02
    2.5380540466e+02   -1.3834300232e+02
    2.5390580750e+02   -1.3830299377e+02
    2.5400610352e+02   -1.3826199341e+02
    2.5410522461e+02   -1.3822200012e+02
    2.5420582581e+02   -1.3817999268e+02
    2.5430581665e+02   -1.3813900757e+02
    2.5440478516e+02   -1.3809700012e+02
    2.5450532532e+02   -1.3805499268e+02
    2.5460542297e+02   -1.3801199341e+02
    2.5470594788e+02   -1.3796899414e+02
    2.5480491638e+02   -1.3792599487e+02
    2.5490530396e+02   -1.3788200378e+02
    2.5500625610e+02   -1.3783700562e+02
    2.5510493469e+02   -1.3779400635e+02
    2.5520512390e+02   -1.3774899292e+02
    2.5530526733e+02   -1.3770300293e+02
    2.5540539551e+02   -1.3765699768e+02
    2.5550579834e+02   -1.3761099243e+02
    2.5560589600e+02   -1.3756500244e+02
    2.5570591736e+02   -1.3751800537e+02
    2.5580584717e+02   -1.3747000122e+02
    2.5590568542e+02   -1.3742300415e+02
    2.5600549316e+02   -1.3737500000e+02
    2.5610525513e+02   -1.3732600403e+02
    2.5620498657e+02   -1.3727699280e+02
    2.5630630493e+02   -1.3722700500e+02
    2.5640612793e+02   -1.3717700195e+02
    2.5650598145e+02   -1.3712699890e+02
    2.5660586548e+02   -1.3707699585e+02
    2.5670581055e+02   -1.3702499390e+02
    2.5680569458e+02   -1.3697399902e+02
    2.5690582275e+02   -1.3692199707e+02
    2.5700616455e+02   -1.3686900330e+02
    2.5710638428e+02   -1.3681599426e+02
    2.5720507812e+02   -1.3676400757e+02
    2.5730578613e+02   -1.3671000671e+02
    2.5740618896e+02   -1.3665499878e+02
    2.5750540161e+02   -1.3660099792e+02
    2.5760583496e+02   -1.3654600525e+02
    2.5770581055e+02   -1.3649099731e+02
    2.5780633545e+02   -1.3643499756e+02
    2.5790548706e+02   -1.3637899780e+02
    2.5800598145e+02   -1.3632299805e+02
    2.5810650635e+02   -1.3626600647e+02
    2.5820550537e+02   -1.3620899963e+02
    2.5830609131e+02   -1.3615100098e+02
    2.5840560913e+02   -1.3609300232e+02
    2.5850628662e+02   -1.3603500366e+02
    2.5860552979e+02   -1.3597700500e+02
    2.5870623779e+02   -1.3591700745e+02
    2.5880557251e+02   -1.3585800171e+02
    2.5890524292e+02   -1.3579899597e+02
    2.5900610352e+02   -1.3573800659e+02
    2.5910525513e+02   -1.3567900085e+02
    2.5920578003e+02   -1.3561799622e+02
    2.5930630493e+02   -1.3555599976e+02
    2.5940539551e+02   -1.3549499512e+02
    2.5950534058e+02   -1.3543400574e+02
    2.5960623169e+02   -1.3537100220e+02
    2.5970553589e+02   -1.3530900574e+02
    2.5980621338e+02   -1.3524600220e+02
    2.5990524292e+02   -1.3518299866e+02
    2.6000518799e+02   -1.3511900330e+02
    2.6010644531e+02   -1.3505499268e+02
    2.6020535278e+02   -1.3499099731e+02
    2.6030569458e+02   -1.3492599487e+02
    2.6040600586e+02   -1.3486099243e+02
    2.6050625610e+02   -1.3479499817e+02
    2.6060617065e+02   -1.3472900391e+02
    2.6070651245e+02   -1.3466200256e+02
    2.6080661011e+02   -1.3459500122e+02
    2.6090661621e+02   -1.3452799988e+02
    2.6100656128e+02   -1.3446099854e+02
    2.6110647583e+02   -1.3439300537e+02
    2.6120635986e+02   -1.3432400513e+02
    2.6130670166e+02   -1.3425500488e+02
    2.6140655518e+02   -1.3418600464e+02
    2.6150650024e+02   -1.3411599731e+02
    2.6160647583e+02   -1.3404600525e+02
    2.6170642090e+02   -1.3397599792e+02
    2.6180639648e+02   -1.3390499878e+02
    2.6190637207e+02   -1.3383399963e+02
    2.6200549316e+02   -1.3376300049e+02
    2.6210552979e+02   -1.3369000244e+02
    2.6220556641e+02   -1.3361799622e+02
    2.6230563354e+02   -1.3354499817e+02
    2.6240567017e+02   -1.3347200012e+02
    2.6250674438e+02   -1.3339700317e+02
    2.6260528564e+02   -1.3332400513e+02
    2.6270544434e+02   -1.3325000000e+02
    2.6280572510e+02   -1.3317500305e+02
    2.6290609741e+02   -1.3309899902e+02
    2.6300656128e+02   -1.3302400208e+02
    2.6310635376e+02   -1.3294799805e+02
    2.6320629883e+02   -1.3287199402e+02
    2.6330587769e+02   -1.3279600525e+02
    2.6340646362e+02   -1.3271899414e+02
    2.6350555420e+02   -1.3264199829e+02
    2.6360610962e+02   -1.3256500244e+02
    2.6370666504e+02   -1.3248699951e+02
    2.6380572510e+02   -1.3240899658e+02
    2.6390551758e+02   -1.3233099365e+02
    2.6400604248e+02   -1.3225199890e+02
    2.6410662842e+02   -1.3217300415e+02
    2.6420565796e+02   -1.3209500122e+02
    2.6430627441e+02   -1.3201499939e+02
    2.6440533447e+02   -1.3193600464e+02
    2.6450595093e+02   -1.3185499573e+02
    2.6460552979e+02   -1.3177499390e+02
    2.6470617676e+02   -1.3169400024e+02
    2.6480673218e+02   -1.3161300659e+02
    2.6490573120e+02   -1.3153199768e+02
    2.6500619507e+02   -1.3144999695e+02
    2.6510662842e+02   -1.3136799622e+02
    2.6520663452e+02   -1.3128599548e+02
    2.6530694580e+02   -1.3120300293e+02
    2.6540573120e+02   -1.3112100220e+02
    2.6550610352e+02   -1.3103700256e+02
    2.6560644531e+02   -1.3095399475e+02
    2.6570614624e+02   -1.3086999512e+02
    2.6580648804e+02   -1.3078500366e+02
    2.6590670776e+02   -1.3070100403e+02
    2.6600680542e+02   -1.3061599731e+02
    2.6610684204e+02   -1.3052999878e+02
    2.6620590210e+02   -1.3044599915e+02
    2.6630578613e+02   -1.3036000061e+02
    2.6640628052e+02   -1.3027299500e+02
    2.6650619507e+02   -1.3018699646e+02
    2.6660626221e+02   -1.3010000610e+02
    2.6670617676e+02   -1.3001300049e+02
    2.6680593872e+02   -1.2992500305e+02
    2.6690612793e+02   -1.2983700562e+02
    2.6700677490e+02   -1.2974800110e+02
    2.6710702515e+02   -1.2966000366e+02
    2.6720581055e+02   -1.2957200623e+02
    2.6730624390e+02   -1.2948199463e+02
    2.6740676880e+02   -1.2939199829e+02
    2.6750579834e+02   -1.2930299377e+02
    2.6760601807e+02   -1.2921299744e+02
    2.6770669556e+02   -1.2912199402e+02
    2.6780590820e+02   -1.2903199768e+02
    2.6790661621e+02   -1.2894099426e+02
    2.6800640869e+02   -1.2885000610e+02
    2.6810705566e+02   -1.2875799561e+02
    2.6820617676e+02   -1.2866700745e+02
    2.6830682373e+02   -1.2857499695e+02
    2.6840591431e+02   -1.2848399353e+02
    2.6850671387e+02   -1.2839100647e+02
    2.6860589600e+02   -1.2829899597e+02
    2.6870657349e+02   -1.2820599365e+02
    2.6880575562e+02   -1.2811300659e+02
    2.6890643311e+02   -1.2802000427e+02
    2.6900653076e+02   -1.2792600250e+02
    2.6910562134e+02   -1.2783399963e+02
    2.6920635986e+02   -1.2773899841e+02
    2.6930712891e+02   -1.2764399719e+02
    2.6940637207e+02   -1.2755100250e+02
    2.6950720215e+02   -1.2745600128e+02
    2.6960641479e+02   -1.2736199951e+02
    2.6970675659e+02   -1.2726699829e+02
    2.6980603027e+02   -1.2717299652e+02
    2.6990664673e+02   -1.2707700348e+02
    2.7000723267e+02   -1.2698100281e+02
    2.7010623169e+02   -1.2688600159e+02
    2.7020663452e+02   -1.2679000092e+02
    2.7030694580e+02   -1.2669400024e+02
    2.7040725708e+02   -1.2659700012e+02
    2.7050665283e+02   -1.2650099945e+02
    2.7060681152e+02   -1.2640399933e+02
    2.7070690918e+02   -1.2630699921e+02
    2.7080706787e+02   -1.2620999908e+02
    2.7090707397e+02   -1.2611199951e+02
    2.7100698853e+02   -1.2601499939e+02
    2.7110684204e+02   -1.2591699982e+02
    2.7120669556e+02   -1.2581900024e+02
    2.7130657959e+02   -1.2572100067e+02
    2.7140658569e+02   -1.2562200165e+02
    2.7150628662e+02   -1.2552400208e+02
    2.7160626221e+02   -1.2542500305e+02
    2.7170629883e+02   -1.2532499695e+02
    2.7180642700e+02   -1.2522599792e+02
    2.7190664673e+02   -1.2512599945e+02
    2.7200698853e+02   -1.2502600098e+02
    2.7210620117e+02   -1.2492600250e+02
    2.7220666504e+02   -1.2482499695e+02
    2.7230706787e+02   -1.2472399902e+02
    2.7240637207e+02   -1.2462400055e+02
    2.7250674438e+02   -1.2452300262e+02
    2.7260714722e+02   -1.2442099762e+02
    2.7270602417e+02   -1.2432099915e+02
    2.7280648804e+02   -1.2421900177e+02
    2.7290701294e+02   -1.2411699677e+02
    2.7300607300e+02   -1.2401599884e+02
    2.7310601807e+02   -1.2391400146e+02
    2.7320672607e+02   -1.2381099701e+02
    2.7330596924e+02   -1.2370899963e+02
    2.7340686035e+02   -1.2360500336e+02
    2.7350622559e+02   -1.2350299835e+02
    2.7360726929e+02   -1.2339900208e+02
    2.7370681763e+02   -1.2329599762e+02
    2.7380636597e+02   -1.2319400024e+02
    2.7390740967e+02   -1.2308899689e+02
    2.7400698853e+02   -1.2298600006e+02
    2.7410705566e+02   -1.2288200378e+02
    2.7420645142e+02   -1.2277899933e+02
    2.7430740356e+02   -1.2267400360e+02
    2.7440679932e+02   -1.2256999969e+02
    2.7450616455e+02   -1.2246700287e+02
    2.7460644531e+02   -1.2236199951e+02
    2.7470739746e+02   -1.2225599670e+02
    2.7480673218e+02   -1.2215200043e+02
    2.7490750122e+02   -1.2204599762e+02
    2.7500671387e+02   -1.2194200134e+02
    2.7510733032e+02   -1.2183499908e+02
    2.7520645142e+02   -1.2173100281e+02
    2.7530688477e+02   -1.2162400055e+02
    2.7540740967e+02   -1.2151799774e+02
    2.7550637817e+02   -1.2141200256e+02
    2.7560699463e+02   -1.2130500031e+02
    2.7570602417e+02   -1.2119999695e+02
    2.7580718994e+02   -1.2109100342e+02
    2.7590631104e+02   -1.2098500061e+02
    2.7600680542e+02   -1.2087699890e+02
    2.7610720825e+02   -1.2076899719e+02
    2.7620748901e+02   -1.2066100311e+02
    2.7630621338e+02   -1.2055400085e+02
    2.7640631104e+02   -1.2044599915e+02
    2.7650637817e+02   -1.2033799744e+02
    2.7660678101e+02   -1.2022799683e+02
    2.7670681763e+02   -1.2011900330e+02
    2.7680694580e+02   -1.2001000214e+02
    2.7690637207e+02   -1.1990100098e+02
    2.7700714111e+02   -1.1979100037e+02
    2.7710736084e+02   -1.1968099976e+02
    2.7720767212e+02   -1.1956999969e+02
    2.7730645752e+02   -1.1946199799e+02
    2.7740695190e+02   -1.1934999847e+02
    2.7750756836e+02   -1.1923899841e+02
    2.7760626221e+02   -1.1912999725e+02
    2.7770706177e+02   -1.1901799774e+02
    2.7780639648e+02   -1.1890699768e+02
    2.7790734863e+02   -1.1879499817e+02
    2.7800726318e+02   -1.1868299866e+02
    2.7810650635e+02   -1.1857199860e+02
    2.7820739746e+02   -1.1845899963e+02
    2.7830673218e+02   -1.1834799957e+02
    2.7840768433e+02   -1.1823400116e+02
    2.7850686646e+02   -1.1812300110e+02
    2.7860632324e+02   -1.1801100159e+02
    2.7870721436e+02   -1.1789700317e+02
    2.7880654907e+02   -1.1778500366e+02
    2.7890621948e+02   -1.1767199707e+02
    2.7900695801e+02   -1.1755799866e+02
    2.7910772705e+02   -1.1744400024e+02
    2.7920632935e+02   -1.1733200073e+02
    2.7930694580e+02   -1.1721800232e+02
    2.7940774536e+02   -1.1710299683e+02
    2.7950698853e+02   -1.1698999786e+02
    2.7960781860e+02   -1.1687500000e+02
    2.7970706177e+02   -1.1676100159e+02
    2.7980633545e+02   -1.1664800262e+02
    2.7990719604e+02   -1.1653199768e+02
    2.8000650024e+02   -1.1641799927e+02
    2.8010739136e+02   -1.1630200195e+02
    2.8020718384e+02   -1.1618699646e+02
    2.8030664062e+02   -1.1607199860e+02
    2.8040756226e+02   -1.1595500183e+02
    2.8050689697e+02   -1.1583999634e+02
    2.8060763550e+02   -1.1572299957e+02
    2.8070678711e+02   -1.1560800171e+02
    2.8080728149e+02   -1.1549099731e+02
    2.8090765381e+02   -1.1537400055e+02
    2.8100790405e+02   -1.1525599670e+02
    2.8110665894e+02   -1.1514099884e+02
    2.8120681763e+02   -1.1502300262e+02
    2.8130700684e+02   -1.1490499878e+02
    2.8140722656e+02   -1.1478700256e+02
    2.8150701904e+02   -1.1466899872e+02
    2.8160733032e+02   -1.1455100250e+02
    2.8170773315e+02   -1.1443199921e+02
    2.8180670166e+02   -1.1431400299e+02
    2.8190740967e+02   -1.1419400024e+02
    2.8200665283e+02   -1.1407599640e+02
    2.8210675049e+02   -1.1395700073e+02
    2.8220776367e+02   -1.1383599854e+02
    2.8230734253e+02   -1.1371700287e+02
    2.8240689087e+02   -1.1359700012e+02
    2.8250790405e+02   -1.1347599792e+02
    2.8260742188e+02   -1.1335600281e+02
    2.8270767212e+02   -1.1323500061e+02
    2.8280700684e+02   -1.1311499786e+02
    2.8290795898e+02   -1.1299299622e+02
    2.8300750732e+02   -1.1287300110e+02
    2.8310708618e+02   -1.1275199890e+02
    2.8320669556e+02   -1.1263099670e+02
    2.8330764771e+02   -1.1250800323e+02
    2.8340771484e+02   -1.1238600159e+02
    2.8350726318e+02   -1.1226499939e+02
    2.8360681152e+02   -1.1214299774e+02
    2.8370800781e+02   -1.1201899719e+02
    2.8380764771e+02   -1.1189700317e+02
    2.8390731812e+02   -1.1177500153e+02
    2.8400701904e+02   -1.1165299988e+02
    2.8410671997e+02   -1.1152999878e+02
    2.8420809937e+02   -1.1140499878e+02
    2.8430795288e+02   -1.1128199768e+02
    2.8440747070e+02   -1.1115899658e+02
    2.8450714111e+02   -1.1103600311e+02
    2.8460678101e+02   -1.1091300201e+02
    2.8470727539e+02   -1.1078800201e+02
    2.8480697632e+02   -1.1066500092e+02
    2.8490805054e+02   -1.1053900146e+02
    2.8500753784e+02   -1.1041500092e+02
    2.8510690308e+02   -1.1029100037e+02
    2.8520816040e+02   -1.1016500092e+02
    2.8530728149e+02   -1.1004100037e+02
    2.8540795898e+02   -1.0991500092e+02
    2.8550711060e+02   -1.0979000092e+02
    2.8560757446e+02   -1.0966400146e+02
    2.8570687866e+02   -1.0953900146e+02
    2.8580758667e+02   -1.0941200256e+02
    2.8590753174e+02   -1.0928500366e+02
    2.8600811768e+02   -1.0915799713e+02
    2.8610705566e+02   -1.0903299713e+02
    2.8620779419e+02   -1.0890499878e+02
    2.8630682373e+02   -1.0877899933e+02
    2.8640731812e+02   -1.0865100098e+02
    2.8650762939e+02   -1.0852300262e+02
    2.8660815430e+02   -1.0839399719e+02
    2.8670718384e+02   -1.0826799774e+02
    2.8680792236e+02   -1.0813800049e+02
    2.8690716553e+02   -1.0801100159e+02
    2.8700787354e+02   -1.0788099670e+02
    2.8710702515e+02   -1.0775399780e+02
    2.8720819092e+02   -1.0762300110e+02
    2.8730722046e+02   -1.0749500275e+02
    2.8740789795e+02   -1.0736499786e+02
    2.8750711060e+02   -1.0723600006e+02
    2.8760800171e+02   -1.0710500336e+02
    2.8770816040e+02   -1.0697499847e+02
    2.8780770874e+02   -1.0684600067e+02
    2.8790710449e+02   -1.0671600342e+02
    2.8800823975e+02   -1.0658399963e+02
    2.8810787964e+02   -1.0645400238e+02
    2.8820761108e+02   -1.0632399750e+02
    2.8830743408e+02   -1.0619300079e+02
    2.8840731812e+02   -1.0606199646e+02
    2.8850708008e+02   -1.0593099976e+02
    2.8860711670e+02   -1.0580000305e+02
    2.8870706177e+02   -1.0566799927e+02
    2.8880691528e+02   -1.0553700256e+02
    2.8890689087e+02   -1.0540499878e+02
    2.8900811768e+02   -1.0527100372e+02
    2.8910772705e+02   -1.0513999939e+02
    2.8920742798e+02   -1.0500800323e+02
    2.8930715942e+02   -1.0487599945e+02
    2.8940832520e+02   -1.0474199677e+02
    2.8950799561e+02   -1.0460900116e+02
    2.8960696411e+02   -1.0447799683e+02
    2.8970724487e+02   -1.0434400177e+02
    2.8980697632e+02   -1.0421199799e+02
    2.8990713501e+02   -1.0407800293e+02
    2.9000839233e+02   -1.0394300079e+02
    2.9010812378e+02   -1.0380899811e+02
    2.9020794678e+02   -1.0367500305e+02
    2.9030841064e+02   -1.0354100037e+02
    2.9040844727e+02   -1.0340599823e+02
    2.9050842285e+02   -1.0327200317e+02
    2.9060830688e+02   -1.0313700104e+02
    2.9070809937e+02   -1.0300199890e+02
    2.9080776978e+02   -1.0286699677e+02
    2.9090731812e+02   -1.0273300171e+02
    2.9100823975e+02   -1.0259600067e+02
    2.9110757446e+02   -1.0246099854e+02
    2.9120834351e+02   -1.0232399750e+02
    2.9130743408e+02   -1.0218900299e+02
    2.9140808105e+02   -1.0205100250e+02
    2.9150720215e+02   -1.0191600037e+02
    2.9160797119e+02   -1.0177799988e+02
    2.9170724487e+02   -1.0164199829e+02
    2.9180819702e+02   -1.0150299835e+02
    2.9190771484e+02   -1.0136599731e+02
    2.9200729370e+02   -1.0122899628e+02
    2.9210855103e+02   -1.0108899689e+02
    2.9220828247e+02   -1.0095200348e+02
    2.9230728149e+02   -1.0081500244e+02
    2.9240795898e+02   -1.0067500305e+02
    2.9250775146e+02   -1.0053700256e+02
    2.9260760498e+02   -1.0039800262e+02
    2.9270745850e+02   -1.0025900269e+02
    2.9280734253e+02   -1.0012000275e+02
    2.9290731812e+02   -9.9980697632e+01
    2.9300750732e+02   -9.9840896606e+01
    2.9310763550e+02   -9.9700996399e+01
    2.9320776367e+02   -9.9560897827e+01
    2.9330783081e+02   -9.9420799255e+01
    2.9340783691e+02   -9.9280502319e+01
    2.9350784302e+02   -9.9140197754e+01
    2.9360775757e+02   -9.8999702454e+01
    2.9370755005e+02   -9.8859397888e+01
    2.9380728149e+02   -9.8718902588e+01
    2.9390856934e+02   -9.8576103210e+01
    2.9400833130e+02   -9.8435401917e+01
    2.9410806274e+02   -9.8294403076e+01
    2.9420724487e+02   -9.8154197693e+01
    2.9430868530e+02   -9.8010498047e+01
    2.9440783691e+02   -9.7870002747e+01
    2.9450769043e+02   -9.7728302002e+01
    2.9460757446e+02   -9.7586502075e+01
    2.9470770264e+02   -9.7444099426e+01
    2.9480776978e+02   -9.7301597595e+01
    2.9490774536e+02   -9.7159103394e+01
    2.9500765991e+02   -9.7016502380e+01
    2.9510748291e+02   -9.6873802185e+01
    2.9520727539e+02   -9.6730903625e+01
    2.9530844116e+02   -9.6585998535e+01
    2.9540795898e+02   -9.6443099976e+01
    2.9550808716e+02   -9.6299201965e+01
    2.9560772705e+02   -9.6155799866e+01
    2.9570730591e+02   -9.6012298584e+01
    2.9580834961e+02   -9.5866500854e+01
    2.9590783691e+02   -9.5722602844e+01
    2.9600759888e+02   -9.5578201294e+01
    2.9610778809e+02   -9.5432998657e+01
    2.9620870972e+02   -9.5286499023e+01
    2.9630816650e+02   -9.5141998291e+01
    2.9640826416e+02   -9.4996299744e+01
    2.9650769043e+02   -9.4851303101e+01
    2.9660879517e+02   -9.4703697205e+01
    2.9670846558e+02   -9.4558097839e+01
    2.9680822754e+02   -9.4412101746e+01
    2.9690798950e+02   -9.4265800476e+01
    2.9700808716e+02   -9.4118896484e+01
    2.9710800171e+02   -9.3972099304e+01
    2.9720791626e+02   -9.3825103760e+01
    2.9730822754e+02   -9.3677299500e+01
    2.9740798950e+02   -9.3530197144e+01
    2.9750875854e+02   -9.3381301880e+01
    2.9760873413e+02   -9.3233497620e+01
    2.9770874023e+02   -9.3085403442e+01
    2.9780740356e+02   -9.2939102173e+01
    2.9790890503e+02   -9.2788497925e+01
    2.9800894165e+02   -9.2639801025e+01
    2.9810745239e+02   -9.2493202209e+01
    2.9820767212e+02   -9.2344001770e+01
    2.9830798340e+02   -9.2194396973e+01
    2.9840832520e+02   -9.2044601440e+01
    2.9850894165e+02   -9.1894302368e+01
    2.9860794067e+02   -9.1746200562e+01
    2.9870837402e+02   -9.1595802307e+01
    2.9880874634e+02   -9.1445396423e+01
    2.9890756226e+02   -9.1297096252e+01
    2.9900836182e+02   -9.1145698547e+01
    2.9910787964e+02   -9.0996002197e+01
    2.9920809937e+02   -9.0845100403e+01
    2.9930825806e+02   -9.0694099426e+01
    2.9940838623e+02   -9.0542999268e+01
    2.9950866699e+02   -9.0391502380e+01
    2.9960858154e+02   -9.0240303040e+01
    2.9970883179e+02   -9.0088500977e+01
    2.9980892944e+02   -8.9936698914e+01
    2.9990899658e+02   -8.9784698486e+01
endcurve
