Curveplot
LS-DYNA keyword deck by LS-PrePost
Abscissa
Ordinate
XY data
CHOP_EAMX_mo-1 #pts=3000
* Minval=     0.0000000000e+00 at time=         0.0000000000
* Maxval=     9.3510009766e+01 at time=       236.7037353516
    0.0000000000e+00    0.0000000000e+00
    9.9515393376e-02    1.5557199949e-03
    1.9926306605e-01    3.1150800642e-03
    2.9929459095e-01    4.6788700856e-03
    3.9880996943e-01    6.2346002087e-03
    4.9985638261e-01    7.8142499551e-03
    5.9905362129e-01    9.3650091439e-03
    6.9987636805e-01    1.0941194370e-02
    7.9954648018e-01    1.2499293312e-02
    8.9864903688e-01    1.4048594050e-02
    9.9966126680e-01    1.5627702698e-02
    1.0996326208e+00    1.7190618441e-02
    1.1992081404e+00    1.8747206777e-02
    1.2992560863e+00    2.0311200991e-02
    1.3984533548e+00    2.1861737594e-02
    1.4998453856e+00    2.3446787149e-02
    1.5994231701e+00    2.5003772229e-02
    1.6985268593e+00    2.6553720236e-02
    1.7997437716e+00    2.8136776760e-02
    1.8993321657e+00    2.9694071040e-02
    1.9997705221e+00    3.1263861805e-02
    2.0991508961e+00    3.2816350460e-02
    2.1989893913e+00    3.4375343472e-02
    2.2993984222e+00    3.5942766815e-02
    2.3992598057e+00    3.7501461804e-02
    2.4991235733e+00    3.9060533047e-02
    2.5987050533e+00    4.0615998209e-02
    2.6996295452e+00    4.2193621397e-02
    2.7984552383e+00    4.3740093708e-02
    2.8999648094e+00    4.5330170542e-02
    2.9995646477e+00    4.6891834587e-02
    3.0999040604e+00    4.8466492444e-02
    3.1995027065e+00    5.0030581653e-02
    3.2985928059e+00    5.1587499678e-02
    3.3985512257e+00    5.3158570081e-02
    3.4984316826e+00    5.4728593677e-02
    3.5994479656e+00    5.6316550821e-02
    3.6990442276e+00    5.7881928980e-02
    3.7992246151e+00    5.9455908835e-02
    3.8993701935e+00    6.1028666794e-02
    3.9994227886e+00    6.2599271536e-02
    4.0995702744e+00    6.4170964062e-02
    4.1997194290e+00    6.5742522478e-02
    4.2992067337e+00    6.7303746939e-02
    4.3998479843e+00    6.8883121014e-02
    4.4984693527e+00    7.0430926979e-02
    4.5991115570e+00    7.2010233998e-02
    4.6995639801e+00    7.3586270213e-02
    4.7992572784e+00    7.5149744749e-02
    4.8994216919e+00    7.6719708741e-02
    4.9986214638e+00    7.8273326159e-02
    5.0999350548e+00    7.9858385026e-02
    5.1995096207e+00    8.1414215267e-02
    5.2987051010e+00    8.2961797714e-02
    5.3990669250e+00    8.4524430335e-02
    5.4996919632e+00    8.6087800562e-02
    5.5998415947e+00    8.7639987469e-02
    5.6989326477e+00    8.9171975851e-02
    5.7985906601e+00    9.0708829463e-02
    5.8998737335e+00    9.2266619205e-02
    5.9998154640e+00    9.3799993396e-02
    6.0996627808e+00    9.5328219235e-02
    6.1989426613e+00    9.6844419837e-02
    6.2983975410e+00    9.8360061646e-02
    6.3997802734e+00    9.9902540445e-02
    6.4992542267e+00    1.0141291469e-01
    6.5996904373e+00    1.0293510556e-01
    6.6996359825e+00    1.0444663465e-01
    6.7985401154e+00    1.0594063252e-01
    6.8986897469e+00    1.0744848847e-01
    6.9997239113e+00    1.0896687210e-01
    7.0992083549e+00    1.1045694351e-01
    7.1986923218e+00    1.1194252223e-01
    7.2996892929e+00    1.1344631016e-01
    7.3985881805e+00    1.1491394788e-01
    7.4985284805e+00    1.1639208347e-01
    7.5995121002e+00    1.1788175255e-01
    7.6986827850e+00    1.1934077740e-01
    7.7998762131e+00    1.2082399428e-01
    7.8998236656e+00    1.2228692323e-01
    7.9989199638e+00    1.2373382598e-01
    8.0998153687e+00    1.2520441413e-01
    8.1998615265e+00    1.2666071951e-01
    8.2990570068e+00    1.2810295820e-01
    8.3988990784e+00    1.2955249846e-01
    8.4998006821e+00    1.3101483881e-01
    8.5999631882e+00    1.3246493042e-01
    8.6987676620e+00    1.3389356434e-01
    8.7995939255e+00    1.3534866273e-01
    8.8990020752e+00    1.3678118587e-01
    8.9996566772e+00    1.3822977245e-01
    9.0994253159e+00    1.3966192305e-01
    9.1989107132e+00    1.4108882844e-01
    9.2986021042e+00    1.4251485467e-01
    9.3995208740e+00    1.4395658672e-01
    9.4999656677e+00    1.4538836479e-01
    9.5991315842e+00    1.4679950476e-01
    9.6984272003e+00    1.4821130037e-01
    9.7983865738e+00    1.4962914586e-01
    9.8995943069e+00    1.5106330812e-01
    9.9990644455e+00    1.5247127414e-01
    1.0098740578e+01    1.5633821487e-01
    1.0199964523e+01    1.6028708220e-01
    1.0299671173e+01    1.6417539120e-01
    1.0399828911e+01    1.6807799041e-01
    1.0499686241e+01    1.7196784914e-01
    1.0598957062e+01    1.7583230138e-01
    1.0699192047e+01    1.7973066866e-01
    1.0799160004e+01    1.8361671269e-01
    1.0898541451e+01    1.8747781217e-01
    1.0999831200e+01    1.9140861928e-01
    1.1099590302e+01    1.9527804852e-01
    1.1199539185e+01    1.9915121794e-01
    1.1298731804e+01    2.0299288630e-01
    1.1399438858e+01    2.0688907802e-01
    1.1499849319e+01    2.1077249944e-01
    1.1598558426e+01    2.1458832920e-01
    1.1699192047e+01    2.1847695112e-01
    1.1798781395e+01    2.2232361138e-01
    1.1898856163e+01    2.2618572414e-01
    1.1999099731e+01    2.3005230725e-01
    1.2098836899e+01    2.3389439285e-01
    1.2198673248e+01    2.3773786426e-01
    1.2299571037e+01    2.4161897600e-01
    1.2399525642e+01    2.4546027184e-01
    1.2499297142e+01    2.4929283559e-01
    1.2598771095e+01    2.5311270356e-01
    1.2698864937e+01    2.5695565343e-01
    1.2799510002e+01    2.6082029939e-01
    1.2899018288e+01    2.6464033127e-01
    1.2999300957e+01    2.6849052310e-01
    1.3099866867e+01    2.7235046029e-01
    1.3199278831e+01    2.7616485953e-01
    1.3299127579e+01    2.7999579906e-01
    1.3399185181e+01    2.8383141756e-01
    1.3498596191e+01    2.8764119744e-01
    1.3599918365e+01    2.9151999950e-01
    1.3698760033e+01    2.9530188441e-01
    1.3799416542e+01    2.9914870858e-01
    1.3899566650e+01    3.0297121406e-01
    1.3999134064e+01    3.0676761270e-01
    1.4099665642e+01    3.1059649587e-01
    1.4198574066e+01    3.1435939670e-01
    1.4299221039e+01    3.1818401814e-01
    1.4399885178e+01    3.2200679183e-01
    1.4498701096e+01    3.2575431466e-01
    1.4599349976e+01    3.2956659794e-01
    1.4699978828e+01    3.3337390423e-01
    1.4799977303e+01    3.3715149760e-01
    1.4899495125e+01    3.4090527892e-01
    1.4999355316e+01    3.4466558695e-01
    1.5098661423e+01    3.4839728475e-01
    1.5198907852e+01    3.5215619206e-01
    1.5299245834e+01    3.5590982437e-01
    1.5398726463e+01    3.5962229967e-01
    1.5499447823e+01    3.6336919665e-01
    1.5598524094e+01    3.6704459786e-01
    1.5699790955e+01    3.7078979611e-01
    1.5799527168e+01    3.7446570396e-01
    1.5899530411e+01    3.7814101577e-01
    1.5999344826e+01    3.8179630041e-01
    1.6099838257e+01    3.8546639681e-01
    1.6199182510e+01    3.8908210397e-01
    1.6298717499e+01    3.9269548655e-01
    1.6399026871e+01    3.9632639289e-01
    1.6499639511e+01    3.9995789528e-01
    1.6599966049e+01    4.0356850624e-01
    1.6699516296e+01    4.0714111924e-01
    1.6799160004e+01    4.1070652008e-01
    1.6898914337e+01    4.1426500678e-01
    1.6998966217e+01    4.1782081127e-01
    1.7099979401e+01    4.2139798403e-01
    1.7198873520e+01    4.2488819361e-01
    1.7299186707e+01    4.2841470242e-01
    1.7399387360e+01    4.3192350864e-01
    1.7498723984e+01    4.3539029360e-01
    1.7598539352e+01    4.3886080384e-01
    1.7699022293e+01    4.4234138727e-01
    1.7799432755e+01    4.4580909610e-01
    1.7899370193e+01    4.4925019145e-01
    1.7999597549e+01    4.5269209146e-01
    1.8099447250e+01    4.5611190796e-01
    1.8199300766e+01    4.5952370763e-01
    1.8299535751e+01    4.6294140816e-01
    1.8399299622e+01    4.6633580327e-01
    1.8499729156e+01    4.6974432468e-01
    1.8599893570e+01    4.7313788533e-01
    1.8699567795e+01    4.7650608420e-01
    1.8799831390e+01    4.7988659143e-01
    1.8899637222e+01    4.8324316740e-01
    1.8998748779e+01    4.8656851053e-01
    1.9099582672e+01    4.8994338512e-01
    1.9199359894e+01    4.9327528477e-01
    1.9299434662e+01    4.9660781026e-01
    1.9398958206e+01    4.9991422892e-01
    1.9499582291e+01    5.0324982405e-01
    1.9598772049e+01    5.0652968884e-01
    1.9699968338e+01    5.0986981392e-01
    1.9798786163e+01    5.1312470436e-01
    1.9899040222e+01    5.1642203331e-01
    1.9999559402e+01    5.1972174644e-01
    2.0099245071e+01    5.2566075325e-01
    2.0199890137e+01    5.3166329861e-01
    2.0299772263e+01    5.3761559725e-01
    2.0399650574e+01    5.4356253147e-01
    2.0499698639e+01    5.4951310158e-01
    2.0599178314e+01    5.5542296171e-01
    2.0698671341e+01    5.6132793427e-01
    2.0798824310e+01    5.6726419926e-01
    2.0898784637e+01    5.7318097353e-01
    2.0999406815e+01    5.7912909985e-01
    2.1098482132e+01    5.8497679234e-01
    2.1199199677e+01    5.9091418982e-01
    2.1300012589e+01    5.9684717655e-01
    2.1399957657e+01    6.0272127390e-01
    2.1499794006e+01    6.0858160257e-01
    2.1599159241e+01    6.1440688372e-01
    2.1699502945e+01    6.2028253078e-01
    2.1798704147e+01    6.2608397007e-01
    2.1898960114e+01    6.3193905354e-01
    2.1998720169e+01    6.3775706291e-01
    2.2098939896e+01    6.4359182119e-01
    2.2199617386e+01    6.4944511652e-01
    2.2299827576e+01    6.5526175499e-01
    2.2399114609e+01    6.6101521254e-01
    2.2499444962e+01    6.6682267189e-01
    2.2598722458e+01    6.7256069183e-01
    2.2699853897e+01    6.7839878798e-01
    2.2798582077e+01    6.8409156799e-01
    2.2899238586e+01    6.8988907337e-01
    2.2999137878e+01    6.9563597441e-01
    2.3098657608e+01    7.0135360956e-01
    2.3199026108e+01    7.0711290836e-01
    2.3299343109e+01    7.1286034584e-01
    2.3398542404e+01    7.1853548288e-01
    2.3498989105e+01    7.2427278757e-01
    2.3598775864e+01    7.2996240854e-01
    2.3698747635e+01    7.3565292358e-01
    2.3799365997e+01    7.4136960506e-01
    2.3899591446e+01    7.4705207348e-01
    2.3998765945e+01    7.5266355276e-01
    2.4099773407e+01    7.5836688280e-01
    2.4199552536e+01    7.6399058104e-01
    2.4298782349e+01    7.6957261562e-01
    2.4399843216e+01    7.7524679899e-01
    2.4498678207e+01    7.8078383207e-01
    2.4598945618e+01    7.8638917208e-01
    2.4699495316e+01    7.9199719429e-01
    2.4799011230e+01    7.9753339291e-01
    2.4900051117e+01    8.0313986540e-01
    2.4999332428e+01    8.0863320827e-01
    2.5099761963e+01    8.1417459249e-01
    2.5199033737e+01    8.1963473558e-01
    2.5300035477e+01    8.2517331839e-01
    2.5399406433e+01    8.3060300350e-01
    2.5499134064e+01    8.3603394032e-01
    2.5599613190e+01    8.4148508310e-01
    2.5699163437e+01    8.4686541557e-01
    2.5798503876e+01    8.5221397877e-01
    2.5899248123e+01    8.5761898756e-01
    2.5999994278e+01    8.6300098896e-01
    2.6099037170e+01    8.6827200651e-01
    2.6200025558e+01    8.7362599373e-01
    2.6299936295e+01    8.7890303135e-01
    2.6399944305e+01    8.8416397572e-01
    2.6498910904e+01    8.8935297728e-01
    2.6599910736e+01    8.9462095499e-01
    2.6698696136e+01    8.9976698160e-01
    2.6799938202e+01    9.0500402451e-01
    2.6899932861e+01    9.1016805172e-01
    2.6999673843e+01    9.1528397799e-01
    2.7099128723e+01    9.2037200928e-01
    2.7198656082e+01    9.2543596029e-01
    2.7298643112e+01    9.3050897121e-01
    2.7399482727e+01    9.3559402227e-01
    2.7498590469e+01    9.4056600332e-01
    2.7599332809e+01    9.4559907913e-01
    2.7698459625e+01    9.5053797960e-01
    2.7799516678e+01    9.5554399490e-01
    2.7899650574e+01    9.6049803495e-01
    2.7999504089e+01    9.6540898085e-01
    2.8098585129e+01    9.7026902437e-01
    2.8199771881e+01    9.7522401810e-01
    2.8298843384e+01    9.8005402088e-01
    2.8399639130e+01    9.8494702578e-01
    2.8499494553e+01    9.8979401588e-01
    2.8599842072e+01    9.9464702606e-01
    2.8699117661e+01    9.9942606688e-01
    2.8798791885e+01    1.0042140484e+00
    2.8899847031e+01    1.0090599060e+00
    2.8999639511e+01    1.0138270855e+00
    2.9099418640e+01    1.0185799599e+00
    2.9198518753e+01    1.0232820511e+00
    2.9299543381e+01    1.0280619860e+00
    2.9399906158e+01    1.0328019857e+00
    2.9498832703e+01    1.0374590158e+00
    2.9599447250e+01    1.0421890020e+00
    2.9699592590e+01    1.0468770266e+00
    2.9798889160e+01    1.0515230894e+00
    2.9898960114e+01    1.0561929941e+00
    2.9999504089e+01    1.0608730316e+00
    3.0098531723e+01    1.0713659525e+00
    3.0199562073e+01    1.0820980072e+00
    3.0298788071e+01    1.0926300287e+00
    3.0398969650e+01    1.1032509804e+00
    3.0498847961e+01    1.1138290167e+00
    3.0599874496e+01    1.1245219707e+00
    3.0698890686e+01    1.1349869967e+00
    3.0799699783e+01    1.1456300020e+00
    3.0899259567e+01    1.1561379433e+00
    3.0999967575e+01    1.1667360067e+00
    3.1099996567e+01    1.1772660017e+00
    3.1198886871e+01    1.1876460314e+00
    3.1299573898e+01    1.1982109547e+00
    3.1399017334e+01    1.2086300850e+00
    3.1499788284e+01    1.2191640139e+00
    3.1599523544e+01    1.2295889854e+00
    3.1699588776e+01    1.2400230169e+00
    3.1799076080e+01    1.2503870726e+00
    3.1900079727e+01    1.2608989477e+00
    3.1999242783e+01    1.2711979151e+00
    3.2099510193e+01    1.2815920115e+00
    3.2198631287e+01    1.2918559313e+00
    3.2299388885e+01    1.3022630215e+00
    3.2399307251e+01    1.3125739098e+00
    3.2498889923e+01    1.3228380680e+00
    3.2599979401e+01    1.3332309723e+00
    3.2698627472e+01    1.3433709145e+00
    3.2799640656e+01    1.3537410498e+00
    3.2898746490e+01    1.3638969660e+00
    3.2999019623e+01    1.3741620779e+00
    3.3100063324e+01    1.3844939470e+00
    3.3199569702e+01    1.3946609497e+00
    3.3299873352e+01    1.4048830271e+00
    3.3399551392e+01    1.4150340557e+00
    3.3499988556e+01    1.4252378941e+00
    3.3598609924e+01    1.4352519512e+00
    3.3699157715e+01    1.4454369545e+00
    3.3799007416e+01    1.4555200338e+00
    3.3899604797e+01    1.4656729698e+00
    3.3998775482e+01    1.4756529331e+00
    3.4099689484e+01    1.4857870340e+00
    3.4199836731e+01    1.4958330393e+00
    3.4298866272e+01    1.5057519674e+00
    3.4399936676e+01    1.5158449411e+00
    3.4498493195e+01    1.5256700516e+00
    3.4599922180e+01    1.5357639790e+00
    3.4698947906e+01    1.5456039906e+00
    3.4799991608e+01    1.5556139946e+00
    3.4899494171e+01    1.5654430389e+00
    3.4998970032e+01    1.5752470493e+00
    3.5099967957e+01    1.5851789713e+00
    3.5199047089e+01    1.5948879719e+00
    3.5299457550e+01    1.6046979427e+00
    3.5398910522e+01    1.6143829823e+00
    3.5498916626e+01    1.6240869761e+00
    3.5599937439e+01    1.6338440180e+00
    3.5699329376e+01    1.6434140205e+00
    3.5799266815e+01    1.6530001163e+00
    3.5899963379e+01    1.6626259089e+00
    3.5999042511e+01    1.6720559597e+00
    3.6098529816e+01    1.6814870834e+00
    3.6199169159e+01    1.6909940243e+00
    3.6299892426e+01    1.7004730701e+00
    3.6399749756e+01    1.7098358870e+00
    3.6499153137e+01    1.7191309929e+00
    3.6598678589e+01    1.7283869982e+00
    3.6699142456e+01    1.7377059460e+00
    3.6799869537e+01    1.7470099926e+00
    3.6899379730e+01    1.7561700344e+00
    3.6998783112e+01    1.7652740479e+00
    3.7099712372e+01    1.7744740248e+00
    3.7199489594e+01    1.7835360765e+00
    3.7299419403e+01    1.7925699949e+00
    3.7399810791e+01    1.8016078472e+00
    3.7499927521e+01    1.8105760813e+00
    3.7599002838e+01    1.8194160461e+00
    3.7699714661e+01    1.8283669949e+00
    3.7798812866e+01    1.8371360302e+00
    3.7899372101e+01    1.8460069895e+00
    3.7999195099e+01    1.8547871113e+00
    3.8099407196e+01    1.8635649681e+00
    3.8199340820e+01    1.8722980022e+00
    3.8299354553e+01    1.8810129166e+00
    3.8399074554e+01    1.8896859884e+00
    3.8499275208e+01    1.8983669281e+00
    3.8599330902e+01    1.9070100784e+00
    3.8698486328e+01    1.9155660868e+00
    3.8799770355e+01    1.9242728949e+00
    3.8899299622e+01    1.9327988625e+00
    3.8998828888e+01    1.9413130283e+00
    3.9099857330e+01    1.9499310255e+00
    3.9199832916e+01    1.9584419727e+00
    3.9299045563e+01    1.9668519497e+00
    3.9398574829e+01    1.9752779007e+00
    3.9499298096e+01    1.9837830067e+00
    3.9598480225e+01    1.9921338558e+00
    3.9699295044e+01    2.0006158352e+00
    3.9798488617e+01    2.0089318752e+00
    3.9899307251e+01    2.0173699856e+00
    3.9998508453e+01    2.0256638527e+00
    4.0099330902e+01    2.0418119431e+00
    4.0199234009e+01    2.0579037666e+00
    4.0298763275e+01    2.0739278793e+00
    4.0399806976e+01    2.0901780128e+00
    4.0499313354e+01    2.1061680317e+00
    4.0598815918e+01    2.1221311092e+00
    4.0698593140e+01    2.1381220818e+00
    4.0799499512e+01    2.1542711258e+00
    4.0899147034e+01    2.1702051163e+00
    4.0999248505e+01    2.1861741543e+00
    4.1099441528e+01    2.2021448612e+00
    4.1199047089e+01    2.2179980278e+00
    4.1299789429e+01    2.2339949608e+00
    4.1398914337e+01    2.2497220039e+00
    4.1499668121e+01    2.2656791210e+00
    4.1599575043e+01    2.2814829350e+00
    4.1699714661e+01    2.2972941399e+00
    4.1799175262e+01    2.3129839897e+00
    4.1898616791e+01    2.3286380768e+00
    4.1999458313e+01    2.3444871902e+00
    4.2098537445e+01    2.3600211143e+00
    4.2199249268e+01    2.3757958412e+00
    4.2298347473e+01    2.3912808895e+00
    4.2398628235e+01    2.4069199562e+00
    4.2499031067e+01    2.4225559235e+00
    4.2598461151e+01    2.4380149841e+00
    4.2699275970e+01    2.4536619186e+00
    4.2799488068e+01    2.4691970348e+00
    4.2899055481e+01    2.4846119881e+00
    4.2998535156e+01    2.4999880791e+00
    4.3099548340e+01    2.5155730247e+00
    4.3199115753e+01    2.5309150219e+00
    4.3299861908e+01    2.5464110374e+00
    4.3398906708e+01    2.5616149902e+00
    4.3499126434e+01    2.5769689083e+00
    4.3598388672e+01    2.5921440125e+00
    4.3699779510e+01    2.6076140404e+00
    4.3799228668e+01    2.6227641106e+00
    4.3898277283e+01    2.6378111839e+00
    4.3999061584e+01    2.6530818939e+00
    4.4098529816e+01    2.6681311131e+00
    4.4199535370e+01    2.6833739281e+00
    4.4298385620e+01    2.6982629299e+00
    4.4399440765e+01    2.7134499550e+00
    4.4499725342e+01    2.7284951210e+00
    4.4599327087e+01    2.7433950901e+00
    4.4699378967e+01    2.7583332062e+00
    4.4798877716e+01    2.7731437683e+00
    4.4899887085e+01    2.7881498337e+00
    4.4998939514e+01    2.8028140068e+00
    4.5099704742e+01    2.8176870346e+00
    4.5199317932e+01    2.8323497772e+00
    4.5298744202e+01    2.8469359875e+00
    4.5399871826e+01    2.8617110252e+00
    4.5498485565e+01    2.8760700226e+00
    4.5598773956e+01    2.8906259537e+00
    4.5699344635e+01    2.9051580429e+00
    4.5799720764e+01    2.9196040630e+00
    4.5898738861e+01    2.9338068962e+00
    4.5999389648e+01    2.9481828213e+00
    4.6098636627e+01    2.9623007774e+00
    4.6199424744e+01    2.9765861034e+00
    4.6298450470e+01    2.9905591011e+00
    4.6399097443e+01    3.0047149658e+00
    4.6499595642e+01    3.0187978745e+00
    4.6598964691e+01    3.0326700211e+00
    4.6699855804e+01    3.0466980934e+00
    4.6798965454e+01    3.0604178905e+00
    4.6899520874e+01    3.0742850304e+00
    4.6998859406e+01    3.0879251957e+00
    4.7099712372e+01    3.1017110348e+00
    4.7199031830e+01    3.1152319908e+00
    4.7298431396e+01    3.1286981106e+00
    4.7399028778e+01    3.1422700882e+00
    4.7499637604e+01    3.1557819843e+00
    4.7598648071e+01    3.1690218449e+00
    4.7699302673e+01    3.1824297905e+00
    4.7798351288e+01    3.1955742836e+00
    4.7899353027e+01    3.2089281082e+00
    4.7999153137e+01    3.2220849991e+00
    4.8098453522e+01    3.2351279259e+00
    4.8198909760e+01    3.2482852936e+00
    4.8299633026e+01    3.2614359856e+00
    4.8398738861e+01    3.2743501663e+00
    4.8499198914e+01    3.2873978615e+00
    4.8598854065e+01    3.3003010750e+00
    4.8699150085e+01    3.3132598400e+00
    4.8799079895e+01    3.3261339664e+00
    4.8898597717e+01    3.3389241695e+00
    4.8999652863e+01    3.3518700600e+00
    4.9099071503e+01    3.3645801544e+00
    4.9199214935e+01    3.3773498535e+00
    4.9298885345e+01    3.3900198936e+00
    4.9398395538e+01    3.4026501179e+00
    4.9499343872e+01    3.4154100418e+00
    4.9599201202e+01    3.4280197620e+00
    4.9698394775e+01    3.4405198097e+00
    4.9798366547e+01    3.4530899525e+00
    4.9899192810e+01    3.4657499790e+00
    4.9998390198e+01    3.4781699181e+00
    5.0099800110e+01    3.5004401207e+00
    5.0198532104e+01    3.5222401619e+00
    5.0299587250e+01    3.5445299149e+00
    5.0399093628e+01    3.5664601326e+00
    5.0498950958e+01    3.5884299278e+00
    5.0599006653e+01    3.6104397774e+00
    5.0698478699e+01    3.6322698593e+00
    5.0799171448e+01    3.6543502808e+00
    5.0898323059e+01    3.6760601997e+00
    5.0998867035e+01    3.6980397701e+00
    5.1099498749e+01    3.7200098038e+00
    5.1199752808e+01    3.7418498993e+00
    5.1298835754e+01    3.7634000778e+00
    5.1398994446e+01    3.7851498127e+00
    5.1499706268e+01    3.8069801331e+00
    5.1599384308e+01    3.8285598755e+00
    5.1698520660e+01    3.8499898911e+00
    5.1799461365e+01    3.8717601299e+00
    5.1898849487e+01    3.8931603432e+00
    5.1999725342e+01    3.9148399830e+00
    5.2098739624e+01    3.9360799789e+00
    5.2199386597e+01    3.9576201439e+00
    5.2298427582e+01    3.9787602425e+00
    5.2398551941e+01    4.0001101494e+00
    5.2499275208e+01    4.0215301514e+00
    5.2598937988e+01    4.0426998138e+00
    5.2698734283e+01    4.0638499260e+00
    5.2798408508e+01    4.0849399567e+00
    5.2899562836e+01    4.1062998772e+00
    5.2998989105e+01    4.1272697449e+00
    5.3098411560e+01    4.1481900215e+00
    5.3199359894e+01    4.1693897247e+00
    5.3298328400e+01    4.1901297569e+00
    5.3398296356e+01    4.2110395432e+00
    5.3499610901e+01    4.2321801186e+00
    5.3598720551e+01    4.2528104782e+00
    5.3698627472e+01    4.2735600471e+00
    5.3798198700e+01    4.2941999435e+00
    5.3898925781e+01    4.3150100708e+00
    5.3999671936e+01    4.3357801437e+00
    5.4098808289e+01    4.3561701775e+00
    5.4199142456e+01    4.3767499924e+00
    5.4298648834e+01    4.3971199989e+00
    5.4399677277e+01    4.4177603722e+00
    5.4499649048e+01    4.4381198883e+00
    5.4599693298e+01    4.4584498405e+00
    5.4698577881e+01    4.4784898758e+00
    5.4799564362e+01    4.4989099503e+00
    5.4898994446e+01    4.5189499855e+00
    5.4999210358e+01    4.5390796661e+00
    5.5098278046e+01    4.5589299202e+00
    5.5199554443e+01    4.5791501999e+00
    5.5298919678e+01    4.5989098549e+00
    5.5398529053e+01    4.6186599731e+00
    5.5498878479e+01    4.6384801865e+00
    5.5599460602e+01    4.6582703590e+00
    5.5698905945e+01    4.6777601242e+00
    5.5798271179e+01    4.6971597672e+00
    5.5898849487e+01    4.7167201042e+00
    5.5999435425e+01    4.7361998558e+00
    5.6098999023e+01    4.7554101944e+00
    5.6199249268e+01    4.7746896744e+00
    5.6298202515e+01    4.7936296463e+00
    5.6398120880e+01    4.8126902580e+00
    5.6499198914e+01    4.8319001198e+00
    5.6598491669e+01    4.8506898880e+00
    5.6699291229e+01    4.8696899414e+00
    5.6799270630e+01    4.8884596825e+00
    5.6898563385e+01    4.9070301056e+00
    5.6999332428e+01    4.9257898331e+00
    5.7098556519e+01    4.9441699982e+00
    5.7199298859e+01    4.9627599716e+00
    5.7299049377e+01    4.9810800552e+00
    5.7399551392e+01    4.9994702339e+00
    5.7498447418e+01    5.0174703598e+00
    5.7598999023e+01    5.0357003212e+00
    5.7699577332e+01    5.0538597107e+00
    5.7798553467e+01    5.0716695786e+00
    5.7898429871e+01    5.0895700455e+00
    5.7999313354e+01    5.1076002121e+00
    5.8099056244e+01    5.1253600121e+00
    5.8199077606e+01    5.1431198120e+00
    5.8299358368e+01    5.1608700752e+00
    5.8398315430e+01    5.1783499718e+00
    5.8499008179e+01    5.1960701942e+00
    5.8599185944e+01    5.2136602402e+00
    5.8698398590e+01    5.2310304642e+00
    5.8799144745e+01    5.2486300468e+00
    5.8899295807e+01    5.2660698891e+00
    5.8998798370e+01    5.2833700180e+00
    5.9099071503e+01    5.3007497787e+00
    5.9198818207e+01    5.3179898262e+00
    5.9299606323e+01    5.3353600502e+00
    5.9398818970e+01    5.3524303436e+00
    5.9498332977e+01    5.3695096970e+00
    5.9598651886e+01    5.3866901398e+00
    5.9699459076e+01    5.4039201736e+00
    5.9798648834e+01    5.4208402634e+00
    5.9899463654e+01    5.4380097389e+00
    5.9998657227e+01    5.4548797607e+00
    6.0099468231e+01    5.4831500053e+00
    6.0199417114e+01    5.5113096237e+00
    6.0298927307e+01    5.5393199921e+00
    6.0398414612e+01    5.5672798157e+00
    6.0498451233e+01    5.5953798294e+00
    6.0599441528e+01    5.6237001419e+00
    6.0698879242e+01    5.6515498161e+00
    6.0798358917e+01    5.6793799400e+00
    6.0898712158e+01    5.7074098587e+00
    6.0998638153e+01    5.7352895737e+00
    6.1098850250e+01    5.7631897926e+00
    6.1198661804e+01    5.7909193039e+00
    6.1299304962e+01    5.8188505173e+00
    6.1398910522e+01    5.8464403152e+00
    6.1499561310e+01    5.8742704391e+00
    6.1599170685e+01    5.9017601013e+00
    6.1699386597e+01    5.9293704033e+00
    6.1798725128e+01    5.9566802979e+00
    6.1899555206e+01    5.9843502045e+00
    6.1998531342e+01    6.0114498138e+00
    6.2099079132e+01    6.0389204025e+00
    6.2198017120e+01    6.0658998489e+00
    6.2298595428e+01    6.0932502747e+00
    6.2399600983e+01    6.1206693649e+00
    6.2499008179e+01    6.1475901604e+00
    6.2599357605e+01    6.1747097969e+00
    6.2699073792e+01    6.2016005516e+00
    6.2798751831e+01    6.2284297943e+00
    6.2898178101e+01    6.2551393509e+00
    6.2999042511e+01    6.2821798325e+00
    6.3098369598e+01    6.3087501526e+00
    6.3199218750e+01    6.3356699944e+00
    6.3299423218e+01    6.3623504639e+00
    6.3399105072e+01    6.3888297081e+00
    6.3499263763e+01    6.4153699875e+00
    6.3598846436e+01    6.4416799545e+00
    6.3699417114e+01    6.4681901932e+00
    6.3798416138e+01    6.4942202568e+00
    6.3899059296e+01    6.5206098557e+00
    6.3998111725e+01    6.5465202332e+00
    6.4098808289e+01    6.5727801323e+00
    6.4198616028e+01    6.5987396240e+00
    6.4298065186e+01    6.6245603561e+00
    6.4399047852e+01    6.6507005692e+00
    6.4498497009e+01    6.6763801575e+00
    6.4598205566e+01    6.7020692825e+00
    6.4698471069e+01    6.7278203964e+00
    6.4799392700e+01    6.7536802292e+00
    6.4898757935e+01    6.7790508270e+00
    6.4998992920e+01    6.8045692444e+00
    6.5098457336e+01    6.8298101425e+00
    6.5199485779e+01    6.8553700447e+00
    6.5298767090e+01    6.8803997040e+00
    6.5398094177e+01    6.9053506851e+00
    6.5498542786e+01    6.9304900169e+00
    6.5599021912e+01    6.9555401802e+00
    6.5698654175e+01    6.9802899361e+00
    6.5798309326e+01    7.0049395561e+00
    6.5898796082e+01    7.0296902657e+00
    6.5999298096e+01    7.0544204712e+00
    6.6099357605e+01    7.0788202286e+00
    6.6198089600e+01    7.1029496193e+00
    6.6298568726e+01    7.1272993088e+00
    6.6399055481e+01    7.1515598297e+00
    6.6499374390e+01    7.1757497787e+00
    6.6598571777e+01    7.1995401382e+00
    6.6699279785e+01    7.2236895561e+00
    6.6798873901e+01    7.2473301888e+00
    6.6898162842e+01    7.2709197998e+00
    6.6998817444e+01    7.2946796417e+00
    6.7099456787e+01    7.3183403015e+00
    6.7198554993e+01    7.3415703773e+00
    6.7298095703e+01    7.3647203445e+00
    6.7398475647e+01    7.3880200386e+00
    6.7498878479e+01    7.4112100601e+00
    6.7599319458e+01    7.4344005585e+00
    6.7698173523e+01    7.4569997787e+00
    6.7798675537e+01    7.4800100327e+00
    6.7898078918e+01    7.5026402473e+00
    6.7998870850e+01    7.5255393982e+00
    6.8098144531e+01    7.5479497910e+00
    6.8198066711e+01    7.5704798698e+00
    6.8298637390e+01    7.5931100845e+00
    6.8399040222e+01    7.6156201363e+00
    6.8498031616e+01    7.6377401352e+00
    6.8599357605e+01    7.6603498459e+00
    6.8698394775e+01    7.6824493408e+00
    6.8799079895e+01    7.7047700882e+00
    6.8898124695e+01    7.7267599106e+00
    6.8999107361e+01    7.7490196228e+00
    6.9098579407e+01    7.7709102631e+00
    6.9198295593e+01    7.7929096222e+00
    6.9299041748e+01    7.8149600029e+00
    6.9399078369e+01    7.8368997574e+00
    6.9498542786e+01    7.8586096764e+00
    6.9599403381e+01    7.8805999756e+00
    6.9698539734e+01    7.9021806717e+00
    6.9799308777e+01    7.9240093231e+00
    6.9898460388e+01    7.9455199242e+00
    6.9999237061e+01    7.9673700333e+00
    7.0098388672e+01    7.9997205734e+00
    7.0198394775e+01    8.0324602127e+00
    7.0298057556e+01    8.0649299622e+00
    7.0399032593e+01    8.0979194641e+00
    7.0498466492e+01    8.1302700043e+00
    7.0599403381e+01    8.1631803513e+00
    7.0698791504e+01    8.1954698563e+00
    7.0798881531e+01    8.2279701233e+00
    7.0898231506e+01    8.2601594925e+00
    7.0999336243e+01    8.2928600311e+00
    7.1098709106e+01    8.3249397278e+00
    7.1198707581e+01    8.3572502136e+00
    7.1299278259e+01    8.3895797729e+00
    7.1398231506e+01    8.4213800430e+00
    7.1498794556e+01    8.4536895752e+00
    7.1598716736e+01    8.4856700897e+00
    7.1697982788e+01    8.5173091888e+00
    7.1798751831e+01    8.5494899750e+00
    7.1897949219e+01    8.5810108185e+00
    7.1998519897e+01    8.6129798889e+00
    7.2098945618e+01    8.6447010040e+00
    7.2199378967e+01    8.6764402390e+00
    7.2298210144e+01    8.7075405121e+00
    7.2398147583e+01    8.7389392853e+00
    7.2498870850e+01    8.7705898285e+00
    7.2598121643e+01    8.8015804291e+00
    7.2698532104e+01    8.8329505920e+00
    7.2799018860e+01    8.8642406464e+00
    7.2898773193e+01    8.8952102661e+00
    7.2997962952e+01    8.9259300232e+00
    7.3098670959e+01    8.9570503235e+00
    7.3199371338e+01    8.9881896973e+00
    7.3298095703e+01    9.0184698105e+00
    7.3398689270e+01    9.0493602753e+00
    7.3498687744e+01    9.0798997879e+00
    7.3597930908e+01    9.1102104187e+00
    7.3698081970e+01    9.1406402588e+00
    7.3798294067e+01    9.1710700989e+00
    7.3898818970e+01    9.2014293671e+00
    7.3999389648e+01    9.2317094803e+00
    7.4098358154e+01    9.2614593506e+00
    7.4198646545e+01    9.2915306091e+00
    7.4297996521e+01    9.3212299347e+00
    7.4398872375e+01    9.3514099121e+00
    7.4498786926e+01    9.3811302185e+00
    7.4598777771e+01    9.4107608795e+00
    7.4698471069e+01    9.4402694702e+00
    7.4799293518e+01    9.4700298309e+00
    7.4898551941e+01    9.4991607666e+00
    7.4998977661e+01    9.5286302567e+00
    7.5099006653e+01    9.5578098297e+00
    7.5198219299e+01    9.5867700577e+00
    7.5298927307e+01    9.6159896851e+00
    7.5399108887e+01    9.6449298859e+00
    7.5498382568e+01    9.6735801697e+00
    7.5598762512e+01    9.7023601532e+00
    7.5699150085e+01    9.7311306000e+00
    7.5798500061e+01    9.7594404221e+00
    7.5898895264e+01    9.7879905701e+00
    7.5999313354e+01    9.8163404465e+00
    7.6099197388e+01    9.8444995880e+00
    7.6198791504e+01    9.8724403381e+00
    7.6298805237e+01    9.9004802704e+00
    7.6399192810e+01    9.9284200668e+00
    7.6499221802e+01    9.9562492371e+00
    7.6598320007e+01    9.9837093353e+00
    7.6698913574e+01    1.0011389732e+01
    7.6799156189e+01    1.0038969040e+01
    7.6899078369e+01    1.0066310883e+01
    7.6998100281e+01    1.0093270302e+01
    7.7098617554e+01    1.0120639801e+01
    7.7199111938e+01    1.0147800446e+01
    7.7298439026e+01    1.0174549103e+01
    7.7398689270e+01    1.0201350212e+01
    7.7498970032e+01    1.0228139877e+01
    7.7599281311e+01    1.0254819870e+01
    7.7698013306e+01    1.0281009674e+01
    7.7798393250e+01    1.0307579994e+01
    7.7898521423e+01    1.0333929062e+01
    7.7999191284e+01    1.0360359192e+01
    7.8098335266e+01    1.0386300087e+01
    7.8197845459e+01    1.0412280083e+01
    7.8298294067e+01    1.0438339233e+01
    7.8398773193e+01    1.0464419365e+01
    7.8499282837e+01    1.0490530014e+01
    7.8598693848e+01    1.0516169548e+01
    7.8699264526e+01    1.0542039871e+01
    7.8798240662e+01    1.0567579269e+01
    7.8898727417e+01    1.0593359947e+01
    7.8998100281e+01    1.0618781090e+01
    7.9099014282e+01    1.0644529343e+01
    7.9198646545e+01    1.0669981003e+01
    7.9299301147e+01    1.0695490837e+01
    7.9398857117e+01    1.0720849991e+01
    7.9498237610e+01    1.0746019363e+01
    7.9598648071e+01    1.0771350861e+01
    7.9699325562e+01    1.0796779633e+01
    7.9798385620e+01    1.0821800232e+01
    7.9899085999e+01    1.0847130775e+01
    7.9998161316e+01    1.0872080803e+01
    8.0098861694e+01    1.0908940315e+01
    8.0197929382e+01    1.0945419312e+01
    8.0298751831e+01    1.0982490540e+01
    8.0398132324e+01    1.1019019127e+01
    8.0499023438e+01    1.1056089401e+01
    8.0598365784e+01    1.1092550278e+01
    8.0699211121e+01    1.1129459381e+01
    8.0798362732e+01    1.1165788651e+01
    8.0899169922e+01    1.1202610016e+01
    8.0998023987e+01    1.1238610268e+01
    8.1099250793e+01    1.1275510788e+01
    8.1198242188e+01    1.1311559677e+01
    8.1298713684e+01    1.1348040581e+01
    8.1399169922e+01    1.1384449005e+01
    8.1498008728e+01    1.1420148849e+01
    8.1599243164e+01    1.1456709862e+01
    8.1698394775e+01    1.1492479324e+01
    8.1799026489e+01    1.1528659821e+01
    8.1898094177e+01    1.1564189911e+01
    8.1998344421e+01    1.1600010872e+01
    8.2098625183e+01    1.1635829926e+01
    8.2198913574e+01    1.1671550751e+01
    8.2299217224e+01    1.1707189560e+01
    8.2397872925e+01    1.1742109299e+01
    8.2498443604e+01    1.1777698517e+01
    8.2598587036e+01    1.1813030243e+01
    8.2698928833e+01    1.1848320007e+01
    8.2799247742e+01    1.1883539200e+01
    8.2898834229e+01    1.1918389320e+01
    8.2997856140e+01    1.1953020096e+01
    8.3098388672e+01    1.1988010406e+01
    8.3198905945e+01    1.2023010254e+01
    8.3298507690e+01    1.2057490349e+01
    8.3398628235e+01    1.2092109680e+01
    8.3498840332e+01    1.2126609802e+01
    8.3598663330e+01    1.2160920143e+01
    8.3698081970e+01    1.2194950104e+01
    8.3798988342e+01    1.2229429245e+01
    8.3897727966e+01    1.2263059616e+01
    8.3998138428e+01    1.2297099113e+01
    8.4098587036e+01    1.2331119537e+01
    8.4198059082e+01    1.2364759445e+01
    8.4298797607e+01    1.2398709297e+01
    8.4398010254e+01    1.2432050705e+01
    8.4498764038e+01    1.2465730667e+01
    8.4597770691e+01    1.2498868942e+01
    8.4698585510e+01    1.2532449722e+01
    8.4797760010e+01    1.2565450668e+01
    8.4898429871e+01    1.2598800659e+01
    8.4998825073e+01    1.2632030487e+01
    8.5098945618e+01    1.2664960861e+01
    8.5198036194e+01    1.2697599411e+01
    8.5298629761e+01    1.2730470657e+01
    8.5398887634e+01    1.2763240814e+01
    8.5498062134e+01    1.2795539856e+01
    8.5598335266e+01    1.2827991486e+01
    8.5698608398e+01    1.2860420227e+01
    8.5798507690e+01    1.2892560959e+01
    8.5898803711e+01    1.2924760818e+01
    8.5999130249e+01    1.2956850052e+01
    8.6098640442e+01    1.2988599777e+01
    8.6199195862e+01    1.3020610809e+01
    8.6298072815e+01    1.3051870346e+01
    8.6398361206e+01    1.3083560944e+01
    8.6498855591e+01    1.3115290642e+01
    8.6597862244e+01    1.3146309853e+01
    8.6698356628e+01    1.3177740097e+01
    8.6798484802e+01    1.3208979607e+01
    8.6898498535e+01    1.3240060806e+01
    8.6998924255e+01    1.3271189690e+01
    8.7097801208e+01    1.3301720619e+01
    8.7198173523e+01    1.3332550049e+01
    8.7298309326e+01    1.3363239288e+01
    8.7398429871e+01    1.3393819809e+01
    8.7498573303e+01    1.3424199104e+01
    8.7598747253e+01    1.3454650879e+01
    8.7698951721e+01    1.3484899521e+01
    8.7799179077e+01    1.3515039444e+01
    8.7897918701e+01    1.3544710159e+01
    8.7998443604e+01    1.3574779510e+01
    8.8098976135e+01    1.3604868889e+01
    8.8198997498e+01    1.3634650230e+01
    8.8297691345e+01    1.3664031029e+01
    8.8398033142e+01    1.3693770409e+01
    8.8498413086e+01    1.3723440170e+01
    8.8597984314e+01    1.3752820015e+01
    8.8698921204e+01    1.3782570839e+01
    8.8797782898e+01    1.3811689377e+01
    8.8898147583e+01    1.3841129303e+01
    8.8998939514e+01    1.3870670319e+01
    8.9098205566e+01    1.3899779320e+01
    8.9199073792e+01    1.3929190636e+01
    8.9297981262e+01    1.3958020210e+01
    8.9398658752e+01    1.3987389565e+01
    8.9497917175e+01    1.4016210556e+01
    8.9598388672e+01    1.4045350075e+01
    8.9698928833e+01    1.4074430466e+01
    8.9797874451e+01    1.4103030205e+01
    8.9898452759e+01    1.4132109642e+01
    8.9999046326e+01    1.4161160469e+01
    9.0098007202e+01    1.4203950882e+01
    9.0198593140e+01    1.4247529984e+01
    9.0298278809e+01    1.4290699959e+01
    9.0399085999e+01    1.4334250450e+01
    9.0498336792e+01    1.4377209663e+01
    9.0599113464e+01    1.4420689583e+01
    9.0698715210e+01    1.4463659286e+01
    9.0798736572e+01    1.4506839752e+01
    9.0897918701e+01    1.4549559593e+01
    9.0998588562e+01    1.4592810631e+01
    9.1097702026e+01    1.4635450363e+01
    9.1198005676e+01    1.4678409576e+01
    9.1298339844e+01    1.4721400261e+01
    9.1398674011e+01    1.4764310837e+01
    9.1498992920e+01    1.4807159424e+01
    9.1599052429e+01    1.4849829674e+01
    9.1698066711e+01    1.4892001152e+01
    9.1798553467e+01    1.4934650421e+01
    9.1898986816e+01    1.4977239609e+01
    9.1997833252e+01    1.5019010544e+01
    9.2097953796e+01    1.5061219215e+01
    9.2198081970e+01    1.5103440285e+01
    9.2298233032e+01    1.5145500183e+01
    9.2398345947e+01    1.5187400818e+01
    9.2498764038e+01    1.5229400635e+01
    9.2598083496e+01    1.5270899773e+01
    9.2699035645e+01    1.5312999725e+01
    9.2797569275e+01    1.5354000092e+01
    9.2897949219e+01    1.5395599365e+01
    9.2998306274e+01    1.5437099457e+01
    9.3098655701e+01    1.5478599548e+01
    9.3198982239e+01    1.5519900322e+01
    9.3298011780e+01    1.5560599327e+01
    9.3397842407e+01    1.5601599693e+01
    9.3499000549e+01    1.5642900467e+01
    9.3598716736e+01    1.5683499336e+01
    9.3699081421e+01    1.5724399567e+01
    9.3797912598e+01    1.5764499664e+01
    9.3897895813e+01    1.5804899216e+01
    9.3998115540e+01    1.5845300674e+01
    9.4098388672e+01    1.5885701180e+01
    9.4197883606e+01    1.5925499916e+01
    9.4298469543e+01    1.5965800285e+01
    9.4397819519e+01    1.6005500793e+01
    9.4498794556e+01    1.6045799255e+01
    9.4598228455e+01    1.6085300446e+01
    9.4699005127e+01    1.6125400543e+01
    9.4798049927e+01    1.6164499283e+01
    9.4898864746e+01    1.6204399109e+01
    9.4997505188e+01    1.6243301392e+01
    9.5098075867e+01    1.6282800674e+01
    9.5198554993e+01    1.6322200775e+01
    9.5299003601e+01    1.6361499786e+01
    9.5397895813e+01    1.6400001526e+01
    9.5498283386e+01    1.6439100266e+01
    9.5597854614e+01    1.6477699280e+01
    9.5697975159e+01    1.6516399384e+01
    9.5798103333e+01    1.6555000305e+01
    9.5898262024e+01    1.6593500137e+01
    9.5998458862e+01    1.6631898880e+01
    9.6098693848e+01    1.6670200348e+01
    9.6197608948e+01    1.6707901001e+01
    9.6298835754e+01    1.6746398926e+01
    9.6399009705e+01    1.6784500122e+01
    9.6497978210e+01    1.6821899414e+01
    9.6598396301e+01    1.6859701157e+01
    9.6698791504e+01    1.6897600174e+01
    9.6798995972e+01    1.6935199738e+01
    9.6899085999e+01    1.6972700119e+01
    9.6997871399e+01    1.7009601593e+01
    9.7098136902e+01    1.7046899796e+01
    9.7198371887e+01    1.7084098816e+01
    9.7298835754e+01    1.7121299744e+01
    9.7398796082e+01    1.7158199310e+01
    9.7498764038e+01    1.7194900513e+01
    9.7598762512e+01    1.7231700897e+01
    9.7698776245e+01    1.7268199921e+01
    9.7798820496e+01    1.7304700851e+01
    9.7897666931e+01    1.7340698242e+01
    9.7998001099e+01    1.7377099991e+01
    9.8098442078e+01    1.7413499832e+01
    9.8198554993e+01    1.7449699402e+01
    9.8298698425e+01    1.7485799789e+01
    9.8398887634e+01    1.7521900177e+01
    9.8497497559e+01    1.7557300568e+01
    9.8597778320e+01    1.7593399048e+01
    9.8698692322e+01    1.7629400253e+01
    9.8799034119e+01    1.7665298462e+01
    9.8898605347e+01    1.7700901031e+01
    9.8997726440e+01    1.7736299515e+01
    9.9098381042e+01    1.7772098541e+01
    9.9198158264e+01    1.7807600021e+01
    9.9297866821e+01    1.7843000412e+01
    9.9398483276e+01    1.7878599167e+01
    9.9497573853e+01    1.7913700104e+01
    9.9599006653e+01    1.7949600220e+01
    9.9697753906e+01    1.7984401703e+01
    9.9798133850e+01    1.8019800186e+01
    9.9898544312e+01    1.8055101395e+01
    9.9998962402e+01    1.8090400696e+01
    1.0009777832e+02    1.8142299652e+01
    1.0019821167e+02    1.8195201874e+01
    1.0029888916e+02    1.8248199463e+01
    1.0039781952e+02    1.8300300598e+01
    1.0049822998e+02    1.8353099823e+01
    1.0059887695e+02    1.8406000137e+01
    1.0069798279e+02    1.8458000183e+01
    1.0079834747e+02    1.8510700226e+01
    1.0089894104e+02    1.8563400269e+01
    1.0099797058e+02    1.8615301132e+01
    1.0109847260e+02    1.8667900085e+01
    1.0119817352e+02    1.8720001221e+01
    1.0129834747e+02    1.8772300720e+01
    1.0139852905e+02    1.8824501038e+01
    1.0149870300e+02    1.8876602173e+01
    1.0159868622e+02    1.8928600311e+01
    1.0169754028e+02    1.8979799271e+01
    1.0179785156e+02    1.9031902313e+01
    1.0189808655e+02    1.9083599091e+01
    1.0199855042e+02    1.9135499954e+01
    1.0209848785e+02    1.9186998367e+01
    1.0219844055e+02    1.9238300323e+01
    1.0229840851e+02    1.9289499283e+01
    1.0239816284e+02    1.9340599060e+01
    1.0249878693e+02    1.9392099380e+01
    1.0259880066e+02    1.9443099976e+01
    1.0269789124e+02    1.9493499756e+01
    1.0279759979e+02    1.9544300079e+01
    1.0289856720e+02    1.9595600128e+01
    1.0299875641e+02    1.9646400452e+01
    1.0309892273e+02    1.9696899414e+01
    1.0319754028e+02    1.9746700287e+01
    1.0329884338e+02    1.9797698975e+01
    1.0339807892e+02    1.9847599030e+01
    1.0349862671e+02    1.9897998810e+01
    1.0359784698e+02    1.9947502136e+01
    1.0369799042e+02    1.9997501373e+01
    1.0379820251e+02    2.0047302246e+01
    1.0389814758e+02    2.0096900940e+01
    1.0399816132e+02    2.0146400452e+01
    1.0409822845e+02    2.0195798874e+01
    1.0419790649e+02    2.0244899750e+01
    1.0429830170e+02    2.0294198990e+01
    1.0439785767e+02    2.0343101501e+01
    1.0449749756e+02    2.0391901016e+01
    1.0459821320e+02    2.0441101074e+01
    1.0469891357e+02    2.0490200043e+01
    1.0479779816e+02    2.0538499832e+01
    1.0489872742e+02    2.0587497711e+01
    1.0499881744e+02    2.0635999680e+01
    1.0509835815e+02    2.0684200287e+01
    1.0519866180e+02    2.0732601166e+01
    1.0529892731e+02    2.0781000137e+01
    1.0539762878e+02    2.0828399658e+01
    1.0549781036e+02    2.0876399994e+01
    1.0559812164e+02    2.0924400330e+01
    1.0569802856e+02    2.0972000122e+01
    1.0579797363e+02    2.1019601822e+01
    1.0589794159e+02    2.1066999435e+01
    1.0599794769e+02    2.1114301682e+01
    1.0609821320e+02    2.1161701202e+01
    1.0619876862e+02    2.1209098816e+01
    1.0629879761e+02    2.1256000519e+01
    1.0639884186e+02    2.1303001404e+01
    1.0649861145e+02    2.1349700928e+01
    1.0659890747e+02    2.1396501541e+01
    1.0669764709e+02    2.1442501068e+01
    1.0679782104e+02    2.1489198685e+01
    1.0689777374e+02    2.1535600662e+01
    1.0699813080e+02    2.1582099915e+01
    1.0709822845e+02    2.1628299713e+01
    1.0719830322e+02    2.1674402237e+01
    1.0729747772e+02    2.1719898224e+01
    1.0739781952e+02    2.1765901566e+01
    1.0749749756e+02    2.1811502457e+01
    1.0759887695e+02    2.1857601166e+01
    1.0769866943e+02    2.1903099060e+01
    1.0779847717e+02    2.1948299408e+01
    1.0789862061e+02    2.1993600845e+01
    1.0799873352e+02    2.2038801193e+01
    1.0809854889e+02    2.2083801270e+01
    1.0819844818e+02    2.2128700256e+01
    1.0829839325e+02    2.2173498154e+01
    1.0839837646e+02    2.2218399048e+01
    1.0849842834e+02    2.2263002396e+01
    1.0859854126e+02    2.2307798386e+01
    1.0869870758e+02    2.2352499008e+01
    1.0879804230e+02    2.2396598816e+01
    1.0889849854e+02    2.2441301346e+01
    1.0899745178e+02    2.2485198975e+01
    1.0909792328e+02    2.2529701233e+01
    1.0919837952e+02    2.2574199677e+01
    1.0929881287e+02    2.2618600845e+01
    1.0939768982e+02    2.2662300110e+01
    1.0949806976e+02    2.2706399918e+01
    1.0959860992e+02    2.2750600815e+01
    1.0969873810e+02    2.2794597626e+01
    1.0979888916e+02    2.2838499069e+01
    1.0989743805e+02    2.2881601334e+01
    1.0999764252e+02    2.2925500870e+01
    1.1009784698e+02    2.2990201950e+01
    1.1019806671e+02    2.3055400848e+01
    1.1029750061e+02    2.3119998932e+01
    1.1039803314e+02    2.3185199738e+01
    1.1049826050e+02    2.3250299454e+01
    1.1059835052e+02    2.3315200806e+01
    1.1069815826e+02    2.3379901886e+01
    1.1079779816e+02    2.3444398880e+01
    1.1089824677e+02    2.3509397507e+01
    1.1099864960e+02    2.3574300766e+01
    1.1109748840e+02    2.3637998581e+01
    1.1119779205e+02    2.3702798843e+01
    1.1129824066e+02    2.3767400742e+01
    1.1139797211e+02    2.3831602097e+01
    1.1149794006e+02    2.3895900726e+01
    1.1159764862e+02    2.3959901810e+01
    1.1169780731e+02    2.4023998260e+01
    1.1179788971e+02    2.4087999344e+01
    1.1189791107e+02    2.4151798248e+01
    1.1199832153e+02    2.4215801239e+01
    1.1209802246e+02    2.4279098511e+01
    1.1219774628e+02    2.4342399597e+01
    1.1229752350e+02    2.4405700684e+01
    1.1239769745e+02    2.4469001770e+01
    1.1249874878e+02    2.4532800674e+01
    1.1259858704e+02    2.4595697403e+01
    1.1269844055e+02    2.4658601761e+01
    1.1279827118e+02    2.4721302032e+01
    1.1289792633e+02    2.4783899307e+01
    1.1299793243e+02    2.4846498489e+01
    1.1309790802e+02    2.4909101486e+01
    1.1319786072e+02    2.4971401215e+01
    1.1329754639e+02    2.5033500671e+01
    1.1339761353e+02    2.5095600128e+01
    1.1349858856e+02    2.5158300400e+01
    1.1359841156e+02    2.5220100403e+01
    1.1369828033e+02    2.5281600952e+01
    1.1379739380e+02    2.5342700958e+01
    1.1389837646e+02    2.5404701233e+01
    1.1399813080e+02    2.5465801239e+01
    1.1409793854e+02    2.5526798248e+01
    1.1419764709e+02    2.5587600708e+01
    1.1429779816e+02    2.5648500443e+01
    1.1439766693e+02    2.5709199905e+01
    1.1449852753e+02    2.5770399094e+01
    1.1459780121e+02    2.5830400467e+01
    1.1469750977e+02    2.5890598297e+01
    1.1479772949e+02    2.5951097488e+01
    1.1489826202e+02    2.6011600494e+01
    1.1499815369e+02    2.6071599960e+01
    1.1509851837e+02    2.6131698608e+01
    1.1519860077e+02    2.6191600800e+01
    1.1529863739e+02    2.6251300812e+01
    1.1539862061e+02    2.6310800552e+01
    1.1549854279e+02    2.6370199203e+01
    1.1559774780e+02    2.6428899765e+01
    1.1569737244e+02    2.6487800598e+01
    1.1579863739e+02    2.6547498703e+01
    1.1589833832e+02    2.6606100082e+01
    1.1599809265e+02    2.6664600372e+01
    1.1609742737e+02    2.6722698212e+01
    1.1619766235e+02    2.6781198502e+01
    1.1629746246e+02    2.6839300156e+01
    1.1639727783e+02    2.6897300720e+01
    1.1649874878e+02    2.6956098557e+01
    1.1659828186e+02    2.7013698578e+01
    1.1669835663e+02    2.7071500778e+01
    1.1679872894e+02    2.7129398346e+01
    1.1689813232e+02    2.7186500549e+01
    1.1699812317e+02    2.7243898392e+01
    1.1709803772e+02    2.7301101685e+01
    1.1719789886e+02    2.7357997894e+01
    1.1729772186e+02    2.7414897919e+01
    1.1739749146e+02    2.7471500397e+01
    1.1749807739e+02    2.7528499603e+01
    1.1759757233e+02    2.7584699631e+01
    1.1769866943e+02    2.7641698837e+01
    1.1779818726e+02    2.7697698593e+01
    1.1789737701e+02    2.7753400803e+01
    1.1799870300e+02    2.7809997559e+01
    1.1809850311e+02    2.7865697861e+01
    1.1819811249e+02    2.7921100616e+01
    1.1829779816e+02    2.7976598740e+01
    1.1839755249e+02    2.8031900406e+01
    1.1849736786e+02    2.8087100983e+01
    1.1859726715e+02    2.8142398834e+01
    1.1869722748e+02    2.8197399139e+01
    1.1879788971e+02    2.8252899170e+01
    1.1889816284e+02    2.8307998657e+01
    1.1899844360e+02    2.8363098145e+01
    1.1909870911e+02    2.8417997360e+01
    1.1919743347e+02    2.8472002029e+01
    1.1929763031e+02    2.8526699066e+01
    1.1939778137e+02    2.8581298828e+01
    1.1949787140e+02    2.8635700226e+01
    1.1959718323e+02    2.8689699173e+01
    1.1969860840e+02    2.8744699478e+01
    1.1979844666e+02    2.8798698425e+01
    1.1989830780e+02    2.8852699280e+01
    1.1999819946e+02    2.8906497955e+01
    1.2009810638e+02    2.8983499527e+01
    1.2019803619e+02    2.9060800552e+01
    1.2029746246e+02    2.9137500763e+01
    1.2039837646e+02    2.9215400696e+01
    1.2049838257e+02    2.9292501450e+01
    1.2059731293e+02    2.9368700027e+01
    1.2069747925e+02    2.9445802689e+01
    1.2079750824e+02    2.9522701263e+01
    1.2089788055e+02    2.9599802017e+01
    1.2099810791e+02    2.9676698685e+01
    1.2109828949e+02    2.9753400803e+01
    1.2119840240e+02    2.9829999924e+01
    1.2129788971e+02    2.9906099319e+01
    1.2139817047e+02    2.9982700348e+01
    1.2149790955e+02    3.0058599472e+01
    1.2159729004e+02    3.0134199142e+01
    1.2169869995e+02    3.0211198807e+01
    1.2179850769e+02    3.0286802292e+01
    1.2189823914e+02    3.0362300873e+01
    1.2199845123e+02    3.0437999725e+01
    1.2209786987e+02    3.0512897491e+01
    1.2219731903e+02    3.0587701797e+01
    1.2229843140e+02    3.0663499832e+01
    1.2239797974e+02    3.0737998962e+01
    1.2249756622e+02    3.0812400818e+01
    1.2259719849e+02    3.0886800766e+01
    1.2269846344e+02    3.0962301254e+01
    1.2279811096e+02    3.1036399841e+01
    1.2289813995e+02    3.1110698700e+01
    1.2299794769e+02    3.1184701920e+01
    1.2309818268e+02    3.1258899689e+01
    1.2319792175e+02    3.1332498550e+01
    1.2329759979e+02    3.1405899048e+01
    1.2339721680e+02    3.1479101181e+01
    1.2349726105e+02    3.1552598953e+01
    1.2359774017e+02    3.1625999451e+01
    1.2369730377e+02    3.1698699951e+01
    1.2379833984e+02    3.1772199631e+01
    1.2389852142e+02    3.1844902039e+01
    1.2399794006e+02    3.1916801453e+01
    1.2409837341e+02    3.1989301682e+01
    1.2419815826e+02    3.2061199188e+01
    1.2429711914e+02    3.2132301331e+01
    1.2439836121e+02    3.2204795837e+01
    1.2449759674e+02    3.2275802612e+01
    1.2459809875e+02    3.2347599030e+01
    1.2469780731e+02    3.2418601990e+01
    1.2479802704e+02    3.2489799500e+01
    1.2489716339e+02    3.2560096741e+01
    1.2499838257e+02    3.2631698608e+01
    1.2509752655e+02    3.2701698303e+01
    1.2519734955e+02    3.2772003174e+01
    1.2529862213e+02    3.2843200684e+01
    1.2539830780e+02    3.2913101196e+01
    1.2549793243e+02    3.2982799530e+01
    1.2559748840e+02    3.3052101135e+01
    1.2569809723e+02    3.3122001648e+01
    1.2579741669e+02    3.3190898895e+01
    1.2589839172e+02    3.3260700226e+01
    1.2599781036e+02    3.3329200745e+01
    1.2609860229e+02    3.3398399353e+01
    1.2619831085e+02    3.3466697693e+01
    1.2629731750e+02    3.3534400940e+01
    1.2639843750e+02    3.3603302002e+01
    1.2649800873e+02    3.3670997620e+01
    1.2659857941e+02    3.3739200592e+01
    1.2669841766e+02    3.3806800842e+01
    1.2679750061e+02    3.3873703003e+01
    1.2689707184e+02    3.3940700531e+01
    1.2699855804e+02    3.4008998871e+01
    1.2709826660e+02    3.4075798035e+01
    1.2719792938e+02    3.4142398834e+01
    1.2729753876e+02    3.4208801270e+01
    1.2739856720e+02    3.4276000977e+01
    1.2749803925e+02    3.4341899872e+01
    1.2759748077e+02    3.4407699585e+01
    1.2769715118e+02    3.4473396301e+01
    1.2779794312e+02    3.4539703369e+01
    1.2789859772e+02    3.4605697632e+01
    1.2799804688e+02    3.4670799255e+01
    1.2809729004e+02    3.4735298157e+01
    1.2819816589e+02    3.4800903320e+01
    1.2829751587e+02    3.4865295410e+01
    1.2839854431e+02    3.4930702209e+01
    1.2849806213e+02    3.4994796753e+01
    1.2859768677e+02    3.5058998108e+01
    1.2869737244e+02    3.5122901917e+01
    1.2879791260e+02    3.5187397003e+01
    1.2889794922e+02    3.5251403809e+01
    1.2899801636e+02    3.5315296173e+01
    1.2909805298e+02    3.5379001617e+01
    1.2919807434e+02    3.5442497253e+01
    1.2929803467e+02    3.5505905151e+01
    1.2939791870e+02    3.5569198608e+01
    1.2949772644e+02    3.5632198334e+01
    1.2959745789e+02    3.5694999695e+01
    1.2969772339e+02    3.5758102417e+01
    1.2979719543e+02    3.5820503235e+01
    1.2989828491e+02    3.5883701324e+01
    1.2999778748e+02    3.5945896149e+01
    1.3009729004e+02    3.6032798767e+01
    1.3019845581e+02    3.6121700287e+01
    1.3029803467e+02    3.6208900452e+01
    1.3039767456e+02    3.6296195984e+01
    1.3049737549e+02    3.6383300781e+01
    1.3059793091e+02    3.6471000671e+01
    1.3069831848e+02    3.6558597565e+01
    1.3079812622e+02    3.6645500183e+01
    1.3089779663e+02    3.6732097626e+01
    1.3099781799e+02    3.6818901062e+01
    1.3109779358e+02    3.6905601501e+01
    1.3119770813e+02    3.6992000580e+01
    1.3129783630e+02    3.7078598022e+01
    1.3139874268e+02    3.7165603638e+01
    1.3149824524e+02    3.7251300812e+01
    1.3159841919e+02    3.7337402344e+01
    1.3169802856e+02    3.7422798157e+01
    1.3179753113e+02    3.7507999420e+01
    1.3189843750e+02    3.7594100952e+01
    1.3199801636e+02    3.7679000854e+01
    1.3209866333e+02    3.7764499664e+01
    1.3219776917e+02    3.7848499298e+01
    1.3229852295e+02    3.7933704376e+01
    1.3239776611e+02    3.8017498016e+01
    1.3249865723e+02    3.8102401733e+01
    1.3259802246e+02    3.8185798645e+01
    1.3269741821e+02    3.8269199371e+01
    1.3279843140e+02    3.8353698730e+01
    1.3289776611e+02    3.8436603546e+01
    1.3299734497e+02    3.8519599915e+01
    1.3309744263e+02    3.8602901459e+01
    1.3319845581e+02    3.8686702728e+01
    1.3329789734e+02    3.8769001007e+01
    1.3339875793e+02    3.8852199554e+01
    1.3349804688e+02    3.8933902740e+01
    1.3359878540e+02    3.9016597748e+01
    1.3369798279e+02    3.9097904205e+01
    1.3379864502e+02    3.9180004120e+01
    1.3389779663e+02    3.9260498047e+01
    1.3399839783e+02    3.9342197418e+01
    1.3409788513e+02    3.9422599792e+01
    1.3419876099e+02    3.9503902435e+01
    1.3429833984e+02    3.9584003448e+01
    1.3439755249e+02    3.9663497925e+01
    1.3449792480e+02    3.9743701935e+01
    1.3459765625e+02    3.9823196411e+01
    1.3469857788e+02    3.9903499603e+01
    1.3479898071e+02    3.9983005524e+01
    1.3489746094e+02    4.0060901642e+01
    1.3499833679e+02    4.0140499115e+01
    1.3509762573e+02    4.0218502045e+01
    1.3519865417e+02    4.0297801971e+01
    1.3529809570e+02    4.0375602722e+01
    1.3539900208e+02    4.0454299927e+01
    1.3549830627e+02    4.0531501770e+01
    1.3559901428e+02    4.0609600067e+01
    1.3569825745e+02    4.0686203003e+01
    1.3579881287e+02    4.0763702393e+01
    1.3589782715e+02    4.0839603424e+01
    1.3599882507e+02    4.0916896820e+01
    1.3609780884e+02    4.0992301941e+01
    1.3619860840e+02    4.1068901062e+01
    1.3629872131e+02    4.1144699097e+01
    1.3639782715e+02    4.1219398499e+01
    1.3649859619e+02    4.1295104980e+01
    1.3659780884e+02    4.1369598389e+01
    1.3669842529e+02    4.1444896698e+01
    1.3679768372e+02    4.1518901825e+01
    1.3689859009e+02    4.1593898773e+01
    1.3699830627e+02    4.1667800903e+01
    1.3709779358e+02    4.1741401672e+01
    1.3719877625e+02    4.1815895081e+01
    1.3729818726e+02    4.1888996124e+01
    1.3739898682e+02    4.1962802887e+01
    1.3749821472e+02    4.2035297394e+01
    1.3759890747e+02    4.2108695984e+01
    1.3769900513e+02    4.2181404114e+01
    1.3779789734e+02    4.2252895355e+01
    1.3789869690e+02    4.2325599670e+01
    1.3799778748e+02    4.2396797180e+01
    1.3809777832e+02    4.2468498230e+01
    1.3819825745e+02    4.2540203094e+01
    1.3829881287e+02    4.2611701965e+01
    1.3839785767e+02    4.2681900024e+01
    1.3849859619e+02    4.2753097534e+01
    1.3859786987e+02    4.2823101044e+01
    1.3869885254e+02    4.2893997192e+01
    1.3879890442e+02    4.2964103699e+01
    1.3889868164e+02    4.3034000397e+01
    1.3899847412e+02    4.3103504181e+01
    1.3909825134e+02    4.3173000336e+01
    1.3919912720e+02    4.3242904663e+01
    1.3929815674e+02    4.3311401367e+01
    1.3939779663e+02    4.3380199432e+01
    1.3949882507e+02    4.3449802399e+01
    1.3959825134e+02    4.3518100739e+01
    1.3969923401e+02    4.3587303162e+01
    1.3979832458e+02    4.3654899597e+01
    1.3989828491e+02    4.3722904205e+01
    1.3999815369e+02    4.3790699005e+01
    1.4009883118e+02    4.3883499146e+01
    1.4019793701e+02    4.3975002289e+01
    1.4029869080e+02    4.4067802429e+01
    1.4039790344e+02    4.4159099579e+01
    1.4049880981e+02    4.4251697540e+01
    1.4059927368e+02    4.4343799591e+01
    1.4069894409e+02    4.4434902191e+01
    1.4079841614e+02    4.4525596619e+01
    1.4089863586e+02    4.4616897583e+01
    1.4099836731e+02    4.4707603455e+01
    1.4109806824e+02    4.4798004150e+01
    1.4119786072e+02    4.4888301849e+01
    1.4129887390e+02    4.4979701996e+01
    1.4139828491e+02    4.5069301605e+01
    1.4149916077e+02    4.5160095215e+01
    1.4159887695e+02    4.5249595642e+01
    1.4169822693e+02    4.5338500977e+01
    1.4179895020e+02    4.5428401947e+01
    1.4189804077e+02    4.5516704559e+01
    1.4199853516e+02    4.5605899811e+01
    1.4209884644e+02    4.5694805145e+01
    1.4219917297e+02    4.5783401489e+01
    1.4229794312e+02    4.5870300293e+01
    1.4239839172e+02    4.5958503723e+01
    1.4249891663e+02    4.6046398163e+01
    1.4259791565e+02    4.6132900238e+01
    1.4269854736e+02    4.6220401764e+01
    1.4279920959e+02    4.6307804108e+01
    1.4289848328e+02    4.6393901825e+01
    1.4299862671e+02    4.6480300903e+01
    1.4309934998e+02    4.6567100525e+01
    1.4319859314e+02    4.6652297974e+01
    1.4329930115e+02    4.6738498688e+01
    1.4339839172e+02    4.6823101044e+01
    1.4349890137e+02    4.6908596039e+01
    1.4359933472e+02    4.6993701935e+01
    1.4369821167e+02    4.7077297211e+01
    1.4379852295e+02    4.7161804199e+01
    1.4389805603e+02    4.7245296478e+01
    1.4399826050e+02    4.7328998566e+01
    1.4409875488e+02    4.7412700653e+01
    1.4419917297e+02    4.7496105194e+01
    1.4429875183e+02    4.7578399658e+01
    1.4439907837e+02    4.7661102295e+01
    1.4449894714e+02    4.7743099213e+01
    1.4459950256e+02    4.7825302124e+01
    1.4469831848e+02    4.7905799866e+01
    1.4479878235e+02    4.7987396240e+01
    1.4489920044e+02    4.8068702698e+01
    1.4499963379e+02    4.8149696350e+01
    1.4509945679e+02    4.8230003357e+01
    1.4519860840e+02    4.8309402466e+01
    1.4529924011e+02    4.8389804840e+01
    1.4539834595e+02    4.8468597412e+01
    1.4549887085e+02    4.8548301697e+01
    1.4559930420e+02    4.8627704620e+01
    1.4569920349e+02    4.8706298828e+01
    1.4579946899e+02    4.8784797668e+01
    1.4589816284e+02    4.8861900330e+01
    1.4599911499e+02    4.8940402985e+01
    1.4609951782e+02    4.9018199921e+01
    1.4619841003e+02    4.9094505310e+01
    1.4629905701e+02    4.9171695709e+01
    1.4639930725e+02    4.9248401642e+01
    1.4649961853e+02    4.9324901581e+01
    1.4659840393e+02    4.9399997711e+01
    1.4669885254e+02    4.9475902557e+01
    1.4679937744e+02    4.9551696777e+01
    1.4689836121e+02    4.9626102448e+01
    1.4699847412e+02    4.9701004028e+01
    1.4709924316e+02    4.9776203156e+01
    1.4719940186e+02    4.9850700378e+01
    1.4729922485e+02    4.9924697876e+01
    1.4739837646e+02    4.9997901917e+01
    1.4749894714e+02    5.0071903229e+01
    1.4759947205e+02    5.0145702362e+01
    1.4769845581e+02    5.0218097687e+01
    1.4779876709e+02    5.0291095734e+01
    1.4789859009e+02    5.0363403320e+01
    1.4799894714e+02    5.0436000824e+01
    1.4809941101e+02    5.0508201599e+01
    1.4819955444e+02    5.0580005646e+01
    1.4829977417e+02    5.0651504517e+01
    1.4839848328e+02    5.0721595764e+01
    1.4849884033e+02    5.0792602539e+01
    1.4859930420e+02    5.0863605499e+01
    1.4869830322e+02    5.0933002472e+01
    1.4879846191e+02    5.1003002167e+01
    1.4889938354e+02    5.1073902130e+01
    1.4899882507e+02    5.1143295288e+01
    1.4909979248e+02    5.1212696075e+01
    1.4919975281e+02    5.1281997681e+01
    1.4929914856e+02    5.1350902557e+01
    1.4939851379e+02    5.1418502808e+01
    1.4949926758e+02    5.1488304138e+01
    1.4959843445e+02    5.1555698395e+01
    1.4969902039e+02    5.1624198914e+01
    1.4979867554e+02    5.1691600800e+01
    1.4989886475e+02    5.1759002686e+01
    1.4999931335e+02    5.1826904297e+01
    1.5009977722e+02    5.1917499542e+01
    1.5019847107e+02    5.2007095337e+01
    1.5029879761e+02    5.2098400116e+01
    1.5039918518e+02    5.2188404083e+01
    1.5049966431e+02    5.2278896332e+01
    1.5059939575e+02    5.2368202209e+01
    1.5069918823e+02    5.2458198547e+01
    1.5079981995e+02    5.2547801971e+01
    1.5089997864e+02    5.2636795044e+01
    1.5099931335e+02    5.2724700928e+01
    1.5109934998e+02    5.2813396454e+01
    1.5119996643e+02    5.2902099609e+01
    1.5129995728e+02    5.2990402222e+01
    1.5139897156e+02    5.3077701569e+01
    1.5149957275e+02    5.3165702820e+01
    1.5159933472e+02    5.3252597809e+01
    1.5169995117e+02    5.3340103149e+01
    1.5179896545e+02    5.3426498413e+01
    1.5189933777e+02    5.3512802124e+01
    1.5199894714e+02    5.3598697662e+01
    1.5209901428e+02    5.3684902191e+01
    1.5219906616e+02    5.3770698547e+01
    1.5229910278e+02    5.3856201172e+01
    1.5239918518e+02    5.3941295624e+01
    1.5249934387e+02    5.4026100159e+01
    1.5259996033e+02    5.4110904694e+01
    1.5269964600e+02    5.4194698334e+01
    1.5279988098e+02    5.4278503418e+01
    1.5289854431e+02    5.4361000061e+01
    1.5299879456e+02    5.4445201874e+01
    1.5309999084e+02    5.4528797150e+01
    1.5319888306e+02    5.4610202789e+01
    1.5329927063e+02    5.4693298340e+01
    1.5339959717e+02    5.4775100708e+01
    1.5349984741e+02    5.4857696533e+01
    1.5360000610e+02    5.4939102173e+01
    1.5370013428e+02    5.5020305634e+01
    1.5379870605e+02    5.5100200653e+01
    1.5389900208e+02    5.5180397034e+01
    1.5399894714e+02    5.5260799408e+01
    1.5409877014e+02    5.5339897156e+01
    1.5419885254e+02    5.5419399261e+01
    1.5430000305e+02    5.5499103546e+01
    1.5439991760e+02    5.5578197479e+01
    1.5449903870e+02    5.5655902863e+01
    1.5459910583e+02    5.5734100342e+01
    1.5469914246e+02    5.5810901642e+01
    1.5479963684e+02    5.5888698578e+01
    1.5489950562e+02    5.5965999603e+01
    1.5499943542e+02    5.6041996002e+01
    1.5509944153e+02    5.6118499756e+01
    1.5519898987e+02    5.6194297791e+01
    1.5529997253e+02    5.6270797729e+01
    1.5539918518e+02    5.6345397949e+01
    1.5549945068e+02    5.6420299530e+01
    1.5559965515e+02    5.6494903564e+01
    1.5570025635e+02    5.6570598602e+01
    1.5580029297e+02    5.6643802643e+01
    1.5589877319e+02    5.6716899872e+01
    1.5600025940e+02    5.6791301727e+01
    1.5609890747e+02    5.6863498688e+01
    1.5619900513e+02    5.6936203003e+01
    1.5629908752e+02    5.7008697510e+01
    1.5639903259e+02    5.7080001831e+01
    1.5649899292e+02    5.7151897430e+01
    1.5659899902e+02    5.7223499298e+01
    1.5669908142e+02    5.7294597626e+01
    1.5679924011e+02    5.7365398407e+01
    1.5689950562e+02    5.7435604095e+01
    1.5699934387e+02    5.7506198883e+01
    1.5710032654e+02    5.7575801849e+01
    1.5719912720e+02    5.7645401001e+01
    1.5729968262e+02    5.7715003967e+01
    1.5740020752e+02    5.7784496307e+01
    1.5749914551e+02    5.7852001190e+01
    1.5759956360e+02    5.7921096802e+01
    1.5769993591e+02    5.7988899231e+01
    1.5779942322e+02    5.8056797028e+01
    1.5789971924e+02    5.8124198914e+01
    1.5799995422e+02    5.8192401886e+01
    1.5809956360e+02    5.8259201050e+01
    1.5819956970e+02    5.8325195312e+01
    1.5829960632e+02    5.8391799927e+01
    1.5839968872e+02    5.8458003998e+01
    1.5849981689e+02    5.8523799896e+01
    1.5860000610e+02    5.8589302063e+01
    1.5870027161e+02    5.8655296326e+01
    1.5880015564e+02    5.8719600677e+01
    1.5889923096e+02    5.8783897400e+01
    1.5899980164e+02    5.8848701477e+01
    1.5910035706e+02    5.8913196564e+01
    1.5919900513e+02    5.8976402283e+01
    1.5929942322e+02    5.9039596558e+01
    1.5939929199e+02    5.9103401184e+01
    1.5949974060e+02    5.9167003632e+01
    1.5960011292e+02    5.9229499817e+01
    1.5970042419e+02    5.9292800903e+01
    1.5980018616e+02    5.9354698181e+01
    1.5990005493e+02    5.9416206360e+01
    1.6000022888e+02    5.9478897095e+01
    1.6009919739e+02    5.9561195374e+01
    1.6019912720e+02    5.9643798828e+01
    1.6029908752e+02    5.9726997375e+01
    1.6039910889e+02    5.9809806824e+01
    1.6049917603e+02    5.9892303467e+01
    1.6059915161e+02    5.9973602295e+01
    1.6069943237e+02    6.0056098938e+01
    1.6079946899e+02    6.0136802673e+01
    1.6089927673e+02    6.0217498779e+01
    1.6099958801e+02    6.0299095154e+01
    1.6110003662e+02    6.0380195618e+01
    1.6120013428e+02    6.0460601807e+01
    1.6130024719e+02    6.0539604187e+01
    1.6140043640e+02    6.0620300293e+01
    1.6150065613e+02    6.0699699402e+01
    1.6159942627e+02    6.0777992249e+01
    1.6169978333e+02    6.0856597900e+01
    1.6180007935e+02    6.0935005188e+01
    1.6190029907e+02    6.1014205933e+01
    1.6200051880e+02    6.1092094421e+01
    1.6210043335e+02    6.1169097900e+01
    1.6220031738e+02    6.1247001648e+01
    1.6230015564e+02    6.1323501587e+01
    1.6239999390e+02    6.1399703979e+01
    1.6249986267e+02    6.1476608276e+01
    1.6259930420e+02    6.1551803589e+01
    1.6269935608e+02    6.1627708435e+01
    1.6279985046e+02    6.1703506470e+01
    1.6289970398e+02    6.1778106689e+01
    1.6299955750e+02    6.1852302551e+01
    1.6309941101e+02    6.1927192688e+01
    1.6319981384e+02    6.2000900269e+01
    1.6329983521e+02    6.2074790955e+01
    1.6339987183e+02    6.2148399353e+01
    1.6349986267e+02    6.2220695496e+01
    1.6359982300e+02    6.2293708801e+01
    1.6369973755e+02    6.2366394043e+01
    1.6379962158e+02    6.2437896729e+01
    1.6389929199e+02    6.2509292603e+01
    1.6400065613e+02    6.2581596375e+01
    1.6410052490e+02    6.2652091980e+01
    1.6420043945e+02    6.2723098755e+01
    1.6429942322e+02    6.2792297363e+01
    1.6440066528e+02    6.2862403870e+01
    1.6450042725e+02    6.2932594299e+01
    1.6460017395e+02    6.3001396179e+01
    1.6469987488e+02    6.3069999695e+01
    1.6480012512e+02    6.3138206482e+01
    1.6489959717e+02    6.3205497742e+01
    1.6500065613e+02    6.3274589539e+01
    1.6510021973e+02    6.3341003418e+01
    1.6519970703e+02    6.3408096313e+01
    1.6529983521e+02    6.3474807739e+01
    1.6540072632e+02    6.3540901184e+01
    1.6550067139e+02    6.3607192993e+01
    1.6560058594e+02    6.3672195435e+01
    1.6570019531e+02    6.3737495422e+01
    1.6580000305e+02    6.3802093506e+01
    1.6589987183e+02    6.3867301941e+01
    1.6600013733e+02    6.3931388855e+01
    1.6610011292e+02    6.3995697021e+01
    1.6620004272e+02    6.4058700562e+01
    1.6629995728e+02    6.4122406006e+01
    1.6640086365e+02    6.4185104370e+01
    1.6650065613e+02    6.4248397827e+01
    1.6660049438e+02    6.4310394287e+01
    1.6670036316e+02    6.4371894836e+01
    1.6680029297e+02    6.4433998108e+01
    1.6690032959e+02    6.4495704651e+01
    1.6700076294e+02    6.4556297302e+01
    1.6710057068e+02    6.4617805481e+01
    1.6720074463e+02    6.4678298950e+01
    1.6730024719e+02    6.4737701416e+01
    1.6740055847e+02    6.4797393799e+01
    1.6750079346e+02    6.4857994080e+01
    1.6759953308e+02    6.4916000366e+01
    1.6769953918e+02    6.4975395203e+01
    1.6780090332e+02    6.5035102844e+01
    1.6789959717e+02    6.5093406677e+01
    1.6800062561e+02    6.5152198792e+01
    1.6810060120e+02    6.5209495544e+01
    1.6820057678e+02    6.5267601013e+01
    1.6830056763e+02    6.5325393677e+01
    1.6840060425e+02    6.5381797791e+01
    1.6850028992e+02    6.5438591003e+01
    1.6860011292e+02    6.5495803833e+01
    1.6870019531e+02    6.5551300049e+01
    1.6880055237e+02    6.5608001709e+01
    1.6890081787e+02    6.5663505554e+01
    1.6900103760e+02    6.5718894958e+01
    1.6909970093e+02    6.5773796082e+01
    1.6920062256e+02    6.5829299927e+01
    1.6930059814e+02    6.5883300781e+01
    1.6940103149e+02    6.5938102722e+01
    1.6950102234e+02    6.5992507935e+01
    1.6960066223e+02    6.6046203613e+01
    1.6970060730e+02    6.6099105835e+01
    1.6980050659e+02    6.6152793884e+01
    1.6990025330e+02    6.6205497742e+01
    1.7000094604e+02    6.6258094788e+01
    1.7010078430e+02    6.6331108093e+01
    1.7020089722e+02    6.6403198242e+01
    1.7030055237e+02    6.6474906921e+01
    1.7040023804e+02    6.6546295166e+01
    1.7049996948e+02    6.6618301392e+01
    1.7059971619e+02    6.6688896179e+01
    1.7070010376e+02    6.6759994507e+01
    1.7080085754e+02    6.6831108093e+01
    1.7090109253e+02    6.6901893616e+01
    1.7100088501e+02    6.6971199036e+01
    1.7110058594e+02    6.7041389465e+01
    1.7120095825e+02    6.7110893250e+01
    1.7130053711e+02    6.7178710938e+01
    1.7140017700e+02    6.7248001099e+01
    1.7149992371e+02    6.7315803528e+01
    1.7160124207e+02    6.7384292603e+01
    1.7170121765e+02    6.7452102661e+01
    1.7180119324e+02    6.7519500732e+01
    1.7190115356e+02    6.7586791992e+01
    1.7200105286e+02    6.7653808594e+01
    1.7210096741e+02    6.7720397949e+01
    1.7220066833e+02    6.7786201477e+01
    1.7230036926e+02    6.7851692200e+01
    1.7240005493e+02    6.7916900635e+01
    1.7250131226e+02    6.7983703613e+01
    1.7260099792e+02    6.8048194885e+01
    1.7270042419e+02    6.8111907959e+01
    1.7280094910e+02    6.8177200317e+01
    1.7290054321e+02    6.8240905762e+01
    1.7300013733e+02    6.8304290771e+01
    1.7310130310e+02    6.8368293762e+01
    1.7320066833e+02    6.8430503845e+01
    1.7330029297e+02    6.8492897034e+01
    1.7339997864e+02    6.8554801941e+01
    1.7350126648e+02    6.8618194580e+01
    1.7360104370e+02    6.8679199219e+01
    1.7370082092e+02    6.8741004944e+01
    1.7380056763e+02    6.8801399231e+01
    1.7390046692e+02    6.8862205505e+01
    1.7400010681e+02    6.8922195435e+01
    1.7410105896e+02    6.8982307434e+01
    1.7420089722e+02    6.9042198181e+01
    1.7430119324e+02    6.9102005005e+01
    1.7440078735e+02    6.9160804749e+01
    1.7450083923e+02    6.9219406128e+01
    1.7460049438e+02    6.9277404785e+01
    1.7470010376e+02    6.9335197449e+01
    1.7480111694e+02    6.9393798828e+01
    1.7490075684e+02    6.9450897217e+01
    1.7500004578e+02    6.9507293701e+01
    1.7510095215e+02    6.9564208984e+01
    1.7520071411e+02    6.9621002197e+01
    1.7530026245e+02    6.9677009583e+01
    1.7540046692e+02    6.9732299805e+01
    1.7550091553e+02    6.9787803650e+01
    1.7560054016e+02    6.9842590332e+01
    1.7570124817e+02    6.9897903442e+01
    1.7580075073e+02    6.9952407837e+01
    1.7590032959e+02    7.0006393433e+01
    1.7600041199e+02    7.0060104370e+01
    1.7610017395e+02    7.0114105225e+01
    1.7620140076e+02    7.0167800903e+01
    1.7630114746e+02    7.0220207214e+01
    1.7640034485e+02    7.0272506714e+01
    1.7650001526e+02    7.0324508667e+01
    1.7660075378e+02    7.0376998901e+01
    1.7670155334e+02    7.0429100037e+01
    1.7680137634e+02    7.0481010437e+01
    1.7690121460e+02    7.0531494141e+01
    1.7700111389e+02    7.0582710266e+01
    1.7710104370e+02    7.0633499146e+01
    1.7720054626e+02    7.0683906555e+01
    1.7730064392e+02    7.0733802795e+01
    1.7740068054e+02    7.0783599854e+01
    1.7750062561e+02    7.0833290100e+01
    1.7760052490e+02    7.0882904053e+01
    1.7770046997e+02    7.0932098389e+01
    1.7780152893e+02    7.0980590820e+01
    1.7790144348e+02    7.1029304504e+01
    1.7800102234e+02    7.1077491760e+01
    1.7810079956e+02    7.1126007080e+01
    1.7820062256e+02    7.1173095703e+01
    1.7830050659e+02    7.1220802307e+01
    1.7840043640e+02    7.1268196106e+01
    1.7850041199e+02    7.1315193176e+01
    1.7860023499e+02    7.1361297607e+01
    1.7870126343e+02    7.1408500671e+01
    1.7880137634e+02    7.1454498291e+01
    1.7890141296e+02    7.1500205994e+01
    1.7900135803e+02    7.1546005249e+01
    1.7910119629e+02    7.1591697693e+01
    1.7920065308e+02    7.1635993958e+01
    1.7930116272e+02    7.1682006836e+01
    1.7940080261e+02    7.1725990295e+01
    1.7950059509e+02    7.1768997192e+01
    1.7960156250e+02    7.1813995361e+01
    1.7970164490e+02    7.1857994080e+01
    1.7980116272e+02    7.1901000977e+01
    1.7990046692e+02    7.1943992615e+01
    1.8000042725e+02    7.1987007141e+01
    1.8010139465e+02    7.2047004700e+01
    1.8020178223e+02    7.2106994629e+01
    1.8030107117e+02    7.2165992737e+01
    1.8040037537e+02    7.2224998474e+01
    1.8050131226e+02    7.2283996582e+01
    1.8060069275e+02    7.2342994690e+01
    1.8070162964e+02    7.2400993347e+01
    1.8080166626e+02    7.2459007263e+01
    1.8090104675e+02    7.2515991211e+01
    1.8100044250e+02    7.2572998047e+01
    1.8110122681e+02    7.2630004883e+01
    1.8120103455e+02    7.2686996460e+01
    1.8130175781e+02    7.2743995667e+01
    1.8140097046e+02    7.2799003601e+01
    1.8150184631e+02    7.2855003357e+01
    1.8160069275e+02    7.2909996033e+01
    1.8170173645e+02    7.2964996338e+01
    1.8180131531e+02    7.3021003723e+01
    1.8190089417e+02    7.3074005127e+01
    1.8200047302e+02    7.3127990723e+01
    1.8210104370e+02    7.3181999207e+01
    1.8220051575e+02    7.3236000061e+01
    1.8230157471e+02    7.3289993286e+01
    1.8240109253e+02    7.3342994690e+01
    1.8250117493e+02    7.3395004272e+01
    1.8260070801e+02    7.3447998047e+01
    1.8270187378e+02    7.3500000000e+01
    1.8280120850e+02    7.3552001953e+01
    1.8290124512e+02    7.3602996826e+01
    1.8300152588e+02    7.3655006409e+01
    1.8310101318e+02    7.3706008911e+01
    1.8320051575e+02    7.3756996155e+01
    1.8330163574e+02    7.3807006836e+01
    1.8340150452e+02    7.3857002258e+01
    1.8350120544e+02    7.3906997681e+01
    1.8360087585e+02    7.3955993652e+01
    1.8370051575e+02    7.4006004333e+01
    1.8380162048e+02    7.4055007935e+01
    1.8390081787e+02    7.4103996277e+01
    1.8400189209e+02    7.4152992249e+01
    1.8410098267e+02    7.4200004578e+01
    1.8420069885e+02    7.4248001099e+01
    1.8430099487e+02    7.4295997620e+01
    1.8440051270e+02    7.4343002319e+01
    1.8450160217e+02    7.4389999390e+01
    1.8460110474e+02    7.4437995911e+01
    1.8470137024e+02    7.4483993530e+01
    1.8480093384e+02    7.4529998779e+01
    1.8490191650e+02    7.4575996399e+01
    1.8500114441e+02    7.4621009827e+01
    1.8510061646e+02    7.4665992737e+01
    1.8520150757e+02    7.4711990356e+01
    1.8530085754e+02    7.4756996155e+01
    1.8540155029e+02    7.4802001953e+01
    1.8550123596e+02    7.4846000671e+01
    1.8560203552e+02    7.4890998840e+01
    1.8570106506e+02    7.4933998108e+01
    1.8580180359e+02    7.4978004456e+01
    1.8590103149e+02    7.5020996094e+01
    1.8600187683e+02    7.5064994812e+01
    1.8610116577e+02    7.5107009888e+01
    1.8620164490e+02    7.5149002075e+01
    1.8630113220e+02    7.5191001892e+01
    1.8640101624e+02    7.5232994080e+01
    1.8650201416e+02    7.5276000977e+01
    1.8660150146e+02    7.5317001343e+01
    1.8670106506e+02    7.5358009338e+01
    1.8680172729e+02    7.5399002075e+01
    1.8690151978e+02    7.5439994812e+01
    1.8700201416e+02    7.5480003357e+01
    1.8710168457e+02    7.5520004272e+01
    1.8720118713e+02    7.5560005188e+01
    1.8730099487e+02    7.5598999023e+01
    1.8740220642e+02    7.5639007568e+01
    1.8750181580e+02    7.5677993774e+01
    1.8760134888e+02    7.5718002319e+01
    1.8770118713e+02    7.5755996704e+01
    1.8780154419e+02    7.5794998169e+01
    1.8790106201e+02    7.5833000183e+01
    1.8800163269e+02    7.5871009827e+01
    1.8810102844e+02    7.5908996582e+01
    1.8820205688e+02    7.5945991516e+01
    1.8830162048e+02    7.5984001160e+01
    1.8840126038e+02    7.6021003723e+01
    1.8850097656e+02    7.6057998657e+01
    1.8860227966e+02    7.6095008850e+01
    1.8870123291e+02    7.6129989624e+01
    1.8880165100e+02    7.6166999817e+01
    1.8890144348e+02    7.6202995300e+01
    1.8900111389e+02    7.6237998962e+01
    1.8910215759e+02    7.6274002075e+01
    1.8920159912e+02    7.6308998108e+01
    1.8930096436e+02    7.6344001770e+01
    1.8940170288e+02    7.6378997803e+01
    1.8950140381e+02    7.6413002014e+01
    1.8960200500e+02    7.6446998596e+01
    1.8970190430e+02    7.6481994629e+01
    1.8980111694e+02    7.6515007019e+01
    1.8990179443e+02    7.6549003601e+01
    1.9000099182e+02    7.6583000183e+01
    1.9010165405e+02    7.6629997253e+01
    1.9020227051e+02    7.6676994324e+01
    1.9030105591e+02    7.6723999023e+01
    1.9040156555e+02    7.6772003174e+01
    1.9050210571e+02    7.6818008423e+01
    1.9060112000e+02    7.6864997864e+01
    1.9070172119e+02    7.6912010193e+01
    1.9080233765e+02    7.6957008362e+01
    1.9090138245e+02    7.7002998352e+01
    1.9100221252e+02    7.7048995972e+01
    1.9110136414e+02    7.7094001770e+01
    1.9120124817e+02    7.7138999939e+01
    1.9130226135e+02    7.7183998108e+01
    1.9140130615e+02    7.7227996826e+01
    1.9150198364e+02    7.7272003174e+01
    1.9160215759e+02    7.7317001343e+01
    1.9170144653e+02    7.7360000610e+01
    1.9180220032e+02    7.7403991699e+01
    1.9190150452e+02    7.7447006226e+01
    1.9200230408e+02    7.7490997314e+01
    1.9210130310e+02    7.7533004761e+01
    1.9220210266e+02    7.7577011108e+01
    1.9230139160e+02    7.7619003296e+01
    1.9240229797e+02    7.7660003662e+01
    1.9250166321e+02    7.7703002930e+01
    1.9260105896e+02    7.7744003296e+01
    1.9270210266e+02    7.7785995483e+01
    1.9280160522e+02    7.7826995850e+01
    1.9290133667e+02    7.7867996216e+01
    1.9300242615e+02    7.7908996582e+01
    1.9310226440e+02    7.7949996948e+01
    1.9320172119e+02    7.7990997314e+01
    1.9330122375e+02    7.8030014038e+01
    1.9340150452e+02    7.8070999146e+01
    1.9350114441e+02    7.8110000610e+01
    1.9360223389e+02    7.8151000977e+01
    1.9370178223e+02    7.8189987183e+01
    1.9380122375e+02    7.8229995728e+01
    1.9390136719e+02    7.8268005371e+01
    1.9400218201e+02    7.8307998657e+01
    1.9410147095e+02    7.8347000122e+01
    1.9420201111e+02    7.8386001587e+01
    1.9430111694e+02    7.8422988892e+01
    1.9440263367e+02    7.8463012695e+01
[...]
    2.5130525208e+02    8.9953002930e+01
    2.5140496826e+02    8.9912017822e+01
    2.5150505066e+02    8.9869995117e+01
    2.5160516357e+02    8.9826995850e+01
    2.5170469666e+02    8.9786010742e+01
    2.5180487061e+02    8.9743988037e+01
    2.5190501404e+02    8.9700988770e+01
    2.5200515747e+02    8.9658996582e+01
    2.5210531616e+02    8.9617004395e+01
    2.5220550537e+02    8.9572998047e+01
    2.5230467224e+02    8.9531982422e+01
    2.5240487671e+02    8.9488983154e+01
    2.5250512695e+02    8.9446014404e+01
    2.5260542297e+02    8.9403015137e+01
    2.5270581055e+02    8.9359985352e+01
    2.5280471802e+02    8.9316986084e+01
    2.5290512085e+02    8.9273986816e+01
    2.5300585938e+02    8.9229980469e+01
    2.5310502625e+02    8.9186004639e+01
    2.5320562744e+02    8.9143005371e+01
    2.5330619812e+02    8.9098999023e+01
    2.5340524292e+02    8.9055999756e+01
    2.5350573730e+02    8.9011016846e+01
    2.5360620117e+02    8.8966979980e+01
    2.5370498657e+02    8.8923004150e+01
    2.5380540466e+02    8.8878997803e+01
    2.5390580750e+02    8.8834014893e+01
    2.5400610352e+02    8.8788970947e+01
    2.5410522461e+02    8.8744995117e+01
    2.5420582581e+02    8.8700012207e+01
    2.5430581665e+02    8.8656005859e+01
    2.5440478516e+02    8.8611022949e+01
    2.5450532532e+02    8.8566009521e+01
    2.5460542297e+02    8.8520996094e+01
    2.5470594788e+02    8.8476013184e+01
    2.5480491638e+02    8.8429992676e+01
    2.5490530396e+02    8.8385009766e+01
    2.5500625610e+02    8.8338989258e+01
    2.5510493469e+02    8.8294982910e+01
    2.5520512390e+02    8.8247985840e+01
    2.5530526733e+02    8.8201995850e+01
    2.5540539551e+02    8.8157012939e+01
    2.5550579834e+02    8.8110992432e+01
    2.5560589600e+02    8.8065002441e+01
    2.5570591736e+02    8.8019012451e+01
    2.5580584717e+02    8.7972015381e+01
    2.5590568542e+02    8.7927001953e+01
    2.5600549316e+02    8.7880004883e+01
    2.5610525513e+02    8.7833984375e+01
    2.5620498657e+02    8.7787017822e+01
    2.5630630493e+02    8.7740020752e+01
    2.5640612793e+02    8.7692993164e+01
    2.5650598145e+02    8.7647003174e+01
    2.5660586548e+02    8.7600006104e+01
    2.5670581055e+02    8.7553009033e+01
    2.5680569458e+02    8.7505004883e+01
    2.5690582275e+02    8.7458007812e+01
    2.5700616455e+02    8.7410003662e+01
    2.5710638428e+02    8.7363006592e+01
    2.5720507812e+02    8.7316009521e+01
    2.5730578613e+02    8.7269012451e+01
    2.5740618896e+02    8.7221008301e+01
    2.5750540161e+02    8.7173980713e+01
    2.5760583496e+02    8.7126007080e+01
    2.5770581055e+02    8.7078002930e+01
    2.5780633545e+02    8.7029998779e+01
    2.5790548706e+02    8.6983001709e+01
    2.5800598145e+02    8.6933990479e+01
    2.5810650635e+02    8.6886016846e+01
    2.5820550537e+02    8.6838012695e+01
    2.5830609131e+02    8.6790008545e+01
    2.5840560913e+02    8.6740997314e+01
    2.5850628662e+02    8.6691986084e+01
    2.5860552979e+02    8.6644012451e+01
    2.5870623779e+02    8.6596008301e+01
    2.5880557251e+02    8.6546997070e+01
    2.5890524292e+02    8.6498992920e+01
    2.5900610352e+02    8.6449981689e+01
    2.5910525513e+02    8.6401000977e+01
    2.5920578003e+02    8.6351013184e+01
    2.5930630493e+02    8.6303009033e+01
    2.5940539551e+02    8.6253997803e+01
    2.5950534058e+02    8.6204010010e+01
    2.5960623169e+02    8.6154998779e+01
    2.5970553589e+02    8.6106018066e+01
    2.5980621338e+02    8.6055999756e+01
    2.5990524292e+02    8.6006988525e+01
    2.6000518799e+02    8.5957000732e+01
    2.6010644531e+02    8.5907989502e+01
    2.6020535278e+02    8.5859008789e+01
    2.6030569458e+02    8.5808990479e+01
    2.6040600586e+02    8.5760009766e+01
    2.6050625610e+02    8.5711029053e+01
    2.6060617065e+02    8.5661010742e+01
    2.6070651245e+02    8.5610992432e+01
    2.6080661011e+02    8.5562011719e+01
    2.6090661621e+02    8.5513000488e+01
    2.6100656128e+02    8.5461975098e+01
    2.6110647583e+02    8.5411987305e+01
    2.6120635986e+02    8.5361999512e+01
    2.6130670166e+02    8.5312011719e+01
    2.6140655518e+02    8.5261016846e+01
    2.6150650024e+02    8.5210998535e+01
    2.6160647583e+02    8.5161010742e+01
    2.6170642090e+02    8.5110015869e+01
    2.6180639648e+02    8.5059997559e+01
    2.6190637207e+02    8.5007995605e+01
    2.6200549316e+02    8.4958007812e+01
    2.6210552979e+02    8.4906005859e+01
    2.6220556641e+02    8.4854980469e+01
    2.6230563354e+02    8.4803985596e+01
    2.6240567017e+02    8.4752990723e+01
    2.6250674438e+02    8.4700988770e+01
    2.6260528564e+02    8.4648986816e+01
    2.6270544434e+02    8.4597015381e+01
    2.6280572510e+02    8.4544982910e+01
    2.6290609741e+02    8.4493011475e+01
    2.6300656128e+02    8.4439971924e+01
    2.6310635376e+02    8.4388000488e+01
    2.6320629883e+02    8.4334991455e+01
    2.6330587769e+02    8.4283020020e+01
    2.6340646362e+02    8.4230010986e+01
    2.6350555420e+02    8.4177001953e+01
    2.6360610962e+02    8.4122985840e+01
    2.6370666504e+02    8.4069976807e+01
    2.6380572510e+02    8.4016998291e+01
    2.6390551758e+02    8.3963989258e+01
    2.6400604248e+02    8.3910003662e+01
    2.6410662842e+02    8.3856994629e+01
    2.6420565796e+02    8.3802978516e+01
    2.6430627441e+02    8.3748992920e+01
    2.6440533447e+02    8.3695983887e+01
    2.6450595093e+02    8.3641021729e+01
    2.6460552979e+02    8.3587005615e+01
    2.6470617676e+02    8.3532989502e+01
    2.6480673218e+02    8.3477996826e+01
    2.6490573120e+02    8.3423980713e+01
    2.6500619507e+02    8.3369995117e+01
    2.6510662842e+02    8.3315002441e+01
    2.6520663452e+02    8.3260986328e+01
    2.6530694580e+02    8.3205993652e+01
    2.6540573120e+02    8.3152008057e+01
    2.6550610352e+02    8.3097991943e+01
    2.6560644531e+02    8.3041992188e+01
    2.6570614624e+02    8.2988006592e+01
    2.6580648804e+02    8.2932983398e+01
    2.6590670776e+02    8.2876983643e+01
    2.6600680542e+02    8.2822021484e+01
    2.6610684204e+02    8.2766998291e+01
    2.6620590210e+02    8.2712005615e+01
    2.6630578613e+02    8.2656982422e+01
    2.6640628052e+02    8.2601013184e+01
    2.6650619507e+02    8.2546020508e+01
    2.6660626221e+02    8.2489990234e+01
    2.6670617676e+02    8.2433990479e+01
    2.6680593872e+02    8.2378997803e+01
    2.6690612793e+02    8.2322998047e+01
    2.6700677490e+02    8.2266998291e+01
    2.6710702515e+02    8.2210998535e+01
    2.6720581055e+02    8.2156005859e+01
    2.6730624390e+02    8.2099975586e+01
    2.6740676880e+02    8.2042999268e+01
    2.6750579834e+02    8.1987976074e+01
    2.6760601807e+02    8.1932006836e+01
    2.6770669556e+02    8.1875976562e+01
    2.6780590820e+02    8.1820007324e+01
    2.6790661621e+02    8.1761993408e+01
    2.6800640869e+02    8.1705993652e+01
    2.6810705566e+02    8.1649993896e+01
    2.6820617676e+02    8.1593994141e+01
    2.6830682373e+02    8.1535980225e+01
    2.6840591431e+02    8.1480010986e+01
    2.6850671387e+02    8.1423004150e+01
    2.6860589600e+02    8.1367004395e+01
    2.6870657349e+02    8.1309997559e+01
    2.6880575562e+02    8.1252014160e+01
    2.6890643311e+02    8.1195007324e+01
    2.6900653076e+02    8.1137023926e+01
    2.6910562134e+02    8.1080993652e+01
    2.6920635986e+02    8.1022979736e+01
    2.6930712891e+02    8.0965026855e+01
    2.6940637207e+02    8.0907012939e+01
    2.6950720215e+02    8.0848999023e+01
    2.6960641479e+02    8.0791015625e+01
    2.6970675659e+02    8.0733001709e+01
    2.6980603027e+02    8.0675018311e+01
    2.6990664673e+02    8.0615997314e+01
    2.7000723267e+02    8.0557983398e+01
    2.7010623169e+02    8.0498016357e+01
    2.7020663452e+02    8.0437011719e+01
    2.7030694580e+02    8.0376007080e+01
    2.7040725708e+02    8.0316009521e+01
    2.7050665283e+02    8.0255004883e+01
    2.7060681152e+02    8.0195007324e+01
    2.7070690918e+02    8.0132995605e+01
    2.7080706787e+02    8.0072021484e+01
    2.7090707397e+02    8.0010009766e+01
    2.7100698853e+02    7.9949005127e+01
    2.7110684204e+02    7.9886993408e+01
    2.7120669556e+02    7.9826019287e+01
    2.7130657959e+02    7.9763000488e+01
    2.7140658569e+02    7.9700988770e+01
    2.7150628662e+02    7.9639007568e+01
    2.7160626221e+02    7.9576995850e+01
    2.7170629883e+02    7.9514007568e+01
    2.7180642700e+02    7.9450988770e+01
    2.7190664673e+02    7.9388000488e+01
    2.7200698853e+02    7.9324981689e+01
    2.7210620117e+02    7.9261993408e+01
    2.7220666504e+02    7.9197998047e+01
    2.7230706787e+02    7.9135009766e+01
    2.7240637207e+02    7.9071014404e+01
    2.7250674438e+02    7.9007019043e+01
    2.7260714722e+02    7.8943023682e+01
    2.7270602417e+02    7.8880004883e+01
    2.7280648804e+02    7.8815002441e+01
    2.7290701294e+02    7.8750000000e+01
    2.7300607300e+02    7.8686981201e+01
    2.7310601807e+02    7.8621002197e+01
    2.7320672607e+02    7.8556976318e+01
    2.7330596924e+02    7.8492004395e+01
    2.7340686035e+02    7.8427001953e+01
    2.7350622559e+02    7.8361999512e+01
    2.7360726929e+02    7.8295989990e+01
    2.7370681763e+02    7.8231994629e+01
    2.7380636597e+02    7.8165985107e+01
    2.7390740967e+02    7.8099029541e+01
    2.7400698853e+02    7.8035003662e+01
    2.7410705566e+02    7.7968994141e+01
    2.7420645142e+02    7.7903015137e+01
    2.7430740356e+02    7.7836975098e+01
    2.7440679932e+02    7.7770996094e+01
    2.7450616455e+02    7.7706024170e+01
    2.7460644531e+02    7.7638000488e+01
    2.7470739746e+02    7.7571990967e+01
    2.7480673218e+02    7.7506011963e+01
    2.7490750122e+02    7.7439025879e+01
    2.7500671387e+02    7.7373016357e+01
    2.7510733032e+02    7.7305999756e+01
    2.7520645142e+02    7.7239990234e+01
    2.7530688477e+02    7.7171997070e+01
    2.7540740967e+02    7.7105010986e+01
    2.7550637817e+02    7.7039001465e+01
    2.7560699463e+02    7.6971008301e+01
    2.7570602417e+02    7.6904998779e+01
    2.7580718994e+02    7.6837005615e+01
    2.7590631104e+02    7.6770019531e+01
    2.7600680542e+02    7.6701995850e+01
    2.7610720825e+02    7.6634002686e+01
    2.7620748901e+02    7.6566009521e+01
    2.7630621338e+02    7.6498992920e+01
    2.7640631104e+02    7.6430999756e+01
    2.7650637817e+02    7.6361999512e+01
    2.7660678101e+02    7.6293975830e+01
    2.7670681763e+02    7.6225006104e+01
    2.7680694580e+02    7.6157989502e+01
    2.7690637207e+02    7.6089996338e+01
    2.7700714111e+02    7.6019989014e+01
    2.7710736084e+02    7.5950988770e+01
    2.7720767212e+02    7.5882019043e+01
    2.7730645752e+02    7.5813995361e+01
    2.7740695190e+02    7.5743988037e+01
    2.7750756836e+02    7.5675018311e+01
    2.7760626221e+02    7.5606994629e+01
    2.7770706177e+02    7.5536010742e+01
    2.7780639648e+02    7.5467987061e+01
    2.7790734863e+02    7.5397003174e+01
    2.7800726318e+02    7.5328002930e+01
    2.7810650635e+02    7.5257995605e+01
    2.7820739746e+02    7.5187988281e+01
    2.7830673218e+02    7.5118011475e+01
    2.7840768433e+02    7.5048004150e+01
    2.7850686646e+02    7.4977996826e+01
    2.7860632324e+02    7.4907989502e+01
    2.7870721436e+02    7.4837005615e+01
    2.7880654907e+02    7.4766021729e+01
    2.7890621948e+02    7.4696014404e+01
    2.7900695801e+02    7.4625000000e+01
    2.7910772705e+02    7.4552978516e+01
    2.7920632935e+02    7.4483001709e+01
    2.7930694580e+02    7.4410980225e+01
    2.7940774536e+02    7.4339996338e+01
    2.7950698853e+02    7.4269012451e+01
    2.7960781860e+02    7.4196990967e+01
    2.7970706177e+02    7.4125000000e+01
    2.7980633545e+02    7.4054992676e+01
    2.7990719604e+02    7.3982025146e+01
    2.8000650024e+02    7.3910980225e+01
    2.8010739136e+02    7.3834014893e+01
    2.8020718384e+02    7.3759002686e+01
    2.8030664062e+02    7.3683990479e+01
    2.8040756226e+02    7.3608001709e+01
    2.8050689697e+02    7.3532989502e+01
    2.8060763550e+02    7.3454986572e+01
    2.8070678711e+02    7.3381011963e+01
    2.8080728149e+02    7.3303985596e+01
    2.8090765381e+02    7.3226989746e+01
    2.8100790405e+02    7.3149993896e+01
    2.8110665894e+02    7.3075988770e+01
    2.8120681763e+02    7.2998992920e+01
    2.8130700684e+02    7.2921997070e+01
    2.8140722656e+02    7.2845001221e+01
    2.8150701904e+02    7.2769012451e+01
    2.8160733032e+02    7.2692016602e+01
    2.8170773315e+02    7.2615020752e+01
    2.8180670166e+02    7.2539001465e+01
    2.8190740967e+02    7.2460998535e+01
    2.8200665283e+02    7.2384002686e+01
    2.8210675049e+02    7.2308013916e+01
    2.8220776367e+02    7.2230010986e+01
    2.8230734253e+02    7.2151977539e+01
    2.8240689087e+02    7.2075012207e+01
    2.8250790405e+02    7.1998016357e+01
    2.8260742188e+02    7.1920989990e+01
    2.8270767212e+02    7.1842987061e+01
    2.8280700684e+02    7.1765991211e+01
    2.8290795898e+02    7.1686981201e+01
    2.8300750732e+02    7.1610015869e+01
    2.8310708618e+02    7.1532989502e+01
    2.8320669556e+02    7.1455993652e+01
    2.8330764771e+02    7.1377014160e+01
    2.8340771484e+02    7.1300018311e+01
    2.8350726318e+02    7.1222991943e+01
    2.8360681152e+02    7.1144989014e+01
    2.8370800781e+02    7.1066009521e+01
    2.8380764771e+02    7.0988006592e+01
    2.8390731812e+02    7.0910980225e+01
    2.8400701904e+02    7.0832977295e+01
    2.8410671997e+02    7.0755004883e+01
    2.8420809937e+02    7.0677001953e+01
    2.8430795288e+02    7.0597991943e+01
    2.8440747070e+02    7.0520019531e+01
    2.8450714111e+02    7.0442016602e+01
    2.8460678101e+02    7.0363983154e+01
    2.8470727539e+02    7.0286010742e+01
    2.8480697632e+02    7.0208007812e+01
    2.8490805054e+02    7.0128997803e+01
    2.8500753784e+02    7.0050994873e+01
    2.8510690308e+02    6.9973022461e+01
    2.8520816040e+02    6.9894012451e+01
    2.8530728149e+02    6.9815979004e+01
    2.8540795898e+02    6.9736999512e+01
    2.8550711060e+02    6.9659027100e+01
    2.8560757446e+02    6.9579986572e+01
    2.8570687866e+02    6.9502014160e+01
    2.8580758667e+02    6.9423004150e+01
    2.8590753174e+02    6.9343994141e+01
    2.8600811768e+02    6.9264984131e+01
    2.8610705566e+02    6.9187011719e+01
    2.8620779419e+02    6.9107025146e+01
    2.8630682373e+02    6.9028991699e+01
    2.8640731812e+02    6.8950012207e+01
    2.8650762939e+02    6.8869995117e+01
    2.8660815430e+02    6.8790985107e+01
    2.8670718384e+02    6.8712005615e+01
    2.8680792236e+02    6.8632019043e+01
    2.8690716553e+02    6.8553985596e+01
    2.8700787354e+02    6.8472991943e+01
    2.8710702515e+02    6.8394012451e+01
    2.8720819092e+02    6.8313964844e+01
    2.8730722046e+02    6.8235015869e+01
    2.8740789795e+02    6.8153991699e+01
    2.8750711060e+02    6.8075012207e+01
    2.8760800171e+02    6.7994018555e+01
    2.8770816040e+02    6.7914031982e+01
    2.8780770874e+02    6.7835021973e+01
    2.8790710449e+02    6.7755035400e+01
    2.8800823975e+02    6.7674011230e+01
    2.8810787964e+02    6.7593994141e+01
    2.8820761108e+02    6.7513977051e+01
    2.8830743408e+02    6.7433990479e+01
    2.8840731812e+02    6.7352996826e+01
    2.8850708008e+02    6.7273010254e+01
    2.8860711670e+02    6.7192962646e+01
    2.8870706177e+02    6.7112976074e+01
    2.8880691528e+02    6.7032043457e+01
    2.8890689087e+02    6.6951965332e+01
    2.8900811768e+02    6.6871032715e+01
    2.8910772705e+02    6.6790008545e+01
    2.8920742798e+02    6.6709991455e+01
    2.8930715942e+02    6.6629974365e+01
    2.8940832520e+02    6.6548034668e+01
    2.8950799561e+02    6.6468017578e+01
    2.8960696411e+02    6.6388000488e+01
    2.8970724487e+02    6.6306976318e+01
    2.8980697632e+02    6.6227020264e+01
    2.8990713501e+02    6.6144989014e+01
    2.9000839233e+02    6.6062988281e+01
    2.9010812378e+02    6.5977996826e+01
    2.9020794678e+02    6.5892028809e+01
    2.9030841064e+02    6.5805023193e+01
    2.9040844727e+02    6.5720001221e+01
    2.9050842285e+02    6.5633972168e+01
    2.9060830688e+02    6.5549011230e+01
    2.9070809937e+02    6.5463012695e+01
    2.9080776978e+02    6.5377990723e+01
    2.9090731812e+02    6.5291992188e+01
    2.9100823975e+02    6.5204986572e+01
    2.9110757446e+02    6.5119995117e+01
    2.9120834351e+02    6.5034027100e+01
    2.9130743408e+02    6.4947998047e+01
    2.9140808105e+02    6.4861999512e+01
    2.9150720215e+02    6.4776977539e+01
    2.9160797119e+02    6.4689971924e+01
    2.9170724487e+02    6.4604980469e+01
    2.9180819702e+02    6.4518981934e+01
    2.9190771484e+02    6.4432983398e+01
    2.9200729370e+02    6.4347015381e+01
    2.9210855103e+02    6.4260009766e+01
    2.9220828247e+02    6.4173980713e+01
    2.9230728149e+02    6.4089019775e+01
    2.9240795898e+02    6.4003021240e+01
    2.9250775146e+02    6.3916015625e+01
    2.9260760498e+02    6.3831024170e+01
    2.9270745850e+02    6.3744995117e+01
    2.9280734253e+02    6.3658996582e+01
    2.9290731812e+02    6.3572967529e+01
    2.9300750732e+02    6.3487030029e+01
    2.9310763550e+02    6.3401031494e+01
    2.9320776367e+02    6.3315032959e+01
    2.9330783081e+02    6.3227996826e+01
    2.9340783691e+02    6.3142974854e+01
    2.9350784302e+02    6.3057006836e+01
    2.9360775757e+02    6.2971038818e+01
    2.9370755005e+02    6.2884979248e+01
    2.9380728149e+02    6.2798980713e+01
    2.9390856934e+02    6.2712005615e+01
    2.9400833130e+02    6.2625976562e+01
    2.9410806274e+02    6.2540008545e+01
    2.9420724487e+02    6.2453979492e+01
    2.9430868530e+02    6.2367004395e+01
    2.9440783691e+02    6.2282012939e+01
    2.9450769043e+02    6.2196014404e+01
    2.9460757446e+02    6.2109985352e+01
    2.9470770264e+02    6.2023010254e+01
    2.9480776978e+02    6.1937011719e+01
    2.9490774536e+02    6.1851043701e+01
    2.9500765991e+02    6.1764984131e+01
    2.9510748291e+02    6.1679016113e+01
    2.9520727539e+02    6.1592956543e+01
    2.9530844116e+02    6.1506011963e+01
    2.9540795898e+02    6.1420013428e+01
    2.9550808716e+02    6.1333038330e+01
    2.9560772705e+02    6.1247009277e+01
    2.9570730591e+02    6.1161956787e+01
    2.9580834961e+02    6.1074981689e+01
    2.9590783691e+02    6.0989013672e+01
    2.9600759888e+02    6.0902008057e+01
    2.9610778809e+02    6.0816009521e+01
    2.9620870972e+02    6.0729003906e+01
    2.9630816650e+02    6.0641998291e+01
    2.9640826416e+02    6.0555999756e+01
    2.9650769043e+02    6.0470001221e+01
    2.9660879517e+02    6.0381988525e+01
    2.9670846558e+02    6.0295989990e+01
    2.9680822754e+02    6.0209991455e+01
    2.9690798950e+02    6.0124023438e+01
    2.9700808716e+02    6.0036987305e+01
    2.9710800171e+02    5.9950012207e+01
    2.9720791626e+02    5.9863983154e+01
    2.9730822754e+02    5.9778015137e+01
    2.9740798950e+02    5.9690979004e+01
    2.9750875854e+02    5.9604003906e+01
    2.9760873413e+02    5.9517028809e+01
    2.9770874023e+02    5.9432006836e+01
    2.9780740356e+02    5.9346008301e+01
    2.9790890503e+02    5.9257965088e+01
    2.9800894165e+02    5.9170989990e+01
    2.9810745239e+02    5.9087005615e+01
    2.9820767212e+02    5.9000000000e+01
    2.9830798340e+02    5.8912994385e+01
    2.9840832520e+02    5.8827026367e+01
    2.9850894165e+02    5.8739990234e+01
    2.9860794067e+02    5.8653961182e+01
    2.9870837402e+02    5.8567993164e+01
    2.9880874634e+02    5.8481018066e+01
    2.9890756226e+02    5.8395965576e+01
    2.9900836182e+02    5.8308990479e+01
    2.9910787964e+02    5.8222991943e+01
    2.9920809937e+02    5.8136993408e+01
    2.9930825806e+02    5.8050994873e+01
    2.9940838623e+02    5.7964996338e+01
    2.9950866699e+02    5.7877990723e+01
    2.9960858154e+02    5.7791992188e+01
    2.9970883179e+02    5.7705993652e+01
    2.9980892944e+02    5.7621002197e+01
    2.9990899658e+02    5.7535003662e+01
endcurve
