Curveplot
LS-DYNA keyword deck by LS-PrePost
Abscissa
Ordinate
XY data
CHOP_NASX_mo-1 #pts=3000
* Minval=     0.0000000000e+00 at time=         0.0000000000
* Maxval=     5.2046005249e+01 at time=       174.3011932373
    0.0000000000e+00    0.0000000000e+00
    9.9515393376e-02    1.5557199949e-03
    1.9926306605e-01    3.1150800642e-03
    2.9929459095e-01    4.6788700856e-03
    3.9880996943e-01    6.2346002087e-03
    4.9985638261e-01    7.8142499551e-03
    5.9905362129e-01    9.3650091439e-03
    6.9987636805e-01    1.0941196233e-02
    7.9954648018e-01    1.2499296106e-02
    8.9864903688e-01    1.4048596844e-02
    9.9966126680e-01    1.5627704561e-02
    1.0996326208e+00    1.7190620303e-02
    1.1992081404e+00    1.8747210503e-02
    1.2992560863e+00    2.0311215892e-02
    1.3984533548e+00    2.1861765534e-02
    1.4998453856e+00    2.3446816951e-02
    1.5994231701e+00    2.5003779680e-02
    1.6985268593e+00    2.6553679258e-02
    1.7997437716e+00    2.8136679903e-02
    1.8993321657e+00    2.9693938792e-02
    1.9997705221e+00    3.1263742596e-02
    2.0991508961e+00    3.2816309482e-02
    2.1989893913e+00    3.4375444055e-02
    2.2993984222e+00    3.5943061113e-02
    2.3992598057e+00    3.7501968443e-02
    2.4991235733e+00    3.9061222225e-02
    2.5987050533e+00    4.0616795421e-02
    2.6996295452e+00    4.2194411159e-02
    2.7984552383e+00    4.3740734458e-02
    2.8999648094e+00    4.5330520719e-02
    2.9995646477e+00    4.6891782433e-02
    3.0999040604e+00    4.8465926200e-02
    3.1995027065e+00    5.0029430538e-02
    3.2985928059e+00    5.1585704088e-02
    3.3985512257e+00    5.3156092763e-02
    3.4984316826e+00    5.4725430906e-02
    3.5994479656e+00    5.6312724948e-02
    3.6990442276e+00    5.7877525687e-02
    3.7992246151e+00    5.9451036155e-02
    3.8993701935e+00    6.1023462564e-02
    3.9994227886e+00    6.2593862414e-02
    4.0995702744e+00    6.4165450633e-02
    4.1997194290e+00    6.5736986697e-02
    4.2992067337e+00    6.7298240960e-02
    4.3998479843e+00    6.8877719343e-02
    4.4984693527e+00    7.0425696671e-02
    4.5991115570e+00    7.2005279362e-02
    4.6995639801e+00    7.3581717908e-02
    4.7992572784e+00    7.5145751238e-02
    4.8994216919e+00    7.6716460288e-02
    4.9986214638e+00    7.8271009028e-02
    5.0999350548e+00    7.9857289791e-02
    5.1995096207e+00    8.1414632499e-02
    5.2987051010e+00    8.2964070141e-02
    5.3990669250e+00    8.4528990090e-02
    5.4996919632e+00    8.6095117033e-02
    5.5998415947e+00    8.7650530040e-02
    5.6989326477e+00    8.9186191559e-02
    5.7985906601e+00    9.0727224946e-02
    5.8998737335e+00    9.2289760709e-02
    5.9998154640e+00    9.3828290701e-02
    6.0996627808e+00    9.5362141728e-02
    6.1989426613e+00    9.6884384751e-02
    6.2983975410e+00    9.8406516016e-02
    6.3997802734e+00    9.9956013262e-02
    6.4992542267e+00    1.0147365183e-01
    6.5996904373e+00    1.0300356895e-01
    6.6996359825e+00    1.0452318937e-01
    6.7985401154e+00    1.0602561384e-01
    6.8986897469e+00    1.0754248500e-01
    6.9997239113e+00    1.0907048732e-01
    7.0992083549e+00    1.1057057232e-01
    7.1986923218e+00    1.1206673831e-01
    7.2996892929e+00    1.1358185112e-01
    7.3985881805e+00    1.1506116390e-01
    7.4985284805e+00    1.1655168235e-01
    7.5995121002e+00    1.1805447191e-01
    7.6986827850e+00    1.1952695996e-01
    7.7998762131e+00    1.2102444470e-01
    7.8998236656e+00    1.2250196934e-01
    7.9989199638e+00    1.2396376580e-01
    8.0998153687e+00    1.2544991076e-01
    8.1998615265e+00    1.2692199647e-01
    8.2990570068e+00    1.2838022411e-01
    8.3988990784e+00    1.2984618545e-01
    8.4998006821e+00    1.3132548332e-01
    8.5999631882e+00    1.3279278576e-01
    8.6987676620e+00    1.3423871994e-01
    8.7995939255e+00    1.3571184874e-01
    8.8990020752e+00    1.3716253638e-01
    8.9996566772e+00    1.3862989843e-01
    9.0994253159e+00    1.4008109272e-01
    9.1989107132e+00    1.4152739942e-01
    9.2986021042e+00    1.4297330379e-01
    9.3995208740e+00    1.4443559945e-01
    9.4999656677e+00    1.4588823915e-01
    9.5991315842e+00    1.4732031524e-01
    9.6984272003e+00    1.4875343442e-01
    9.7983865738e+00    1.5019305050e-01
    9.8995943069e+00    1.5164962411e-01
    9.9990644455e+00    1.5307991207e-01
    1.0098740578e+01    1.5696956217e-01
    1.0199964523e+01    1.6094183922e-01
    1.0299671173e+01    1.6485351324e-01
    1.0399828911e+01    1.6877995431e-01
    1.0499686241e+01    1.7269393802e-01
    1.0598957062e+01    1.7658273876e-01
    1.0699192047e+01    1.8050609529e-01
    1.0799160004e+01    1.8441747129e-01
    1.0898541451e+01    1.8830417097e-01
    1.0999831200e+01    1.9226147234e-01
    1.1099590302e+01    1.9615741074e-01
    1.1199539185e+01    2.0005750656e-01
    1.1298731804e+01    2.0392632484e-01
    1.1399438858e+01    2.0785047114e-01
    1.1499849319e+01    2.1176213026e-01
    1.1598558426e+01    2.1560603380e-01
    1.1699192047e+01    2.1952360868e-01
    1.1798781395e+01    2.2339925170e-01
    1.1898856163e+01    2.2729083896e-01
    1.1999099731e+01    2.3118735850e-01
    1.2098836899e+01    2.3505969346e-01
    1.2198673248e+01    2.3893389106e-01
    1.2299571037e+01    2.4284654856e-01
    1.2399525642e+01    2.4671947956e-01
    1.2499297142e+01    2.5058397651e-01
    1.2598771095e+01    2.5443595648e-01
    1.2698864937e+01    2.5831139088e-01
    1.2799510002e+01    2.6220890880e-01
    1.2899018288e+01    2.6606166363e-01
    1.2999300957e+01    2.6994505525e-01
    1.3099866867e+01    2.7383860946e-01
    1.3199278831e+01    2.7768653631e-01
    1.3299127579e+01    2.8155151010e-01
    1.3399185181e+01    2.8542160988e-01
    1.3498596191e+01    2.8926602006e-01
    1.3599918365e+01    2.9318067431e-01
    1.3698760033e+01    2.9699826241e-01
    1.3799416542e+01    3.0088201165e-01
    1.3899566650e+01    3.0474200845e-01
    1.3999134064e+01    3.0857646465e-01
    1.4099665642e+01    3.1244441867e-01
    1.4198574066e+01    3.1624650955e-01
    1.4299221039e+01    3.2011181116e-01
    1.4399885178e+01    3.2397580147e-01
    1.4498701096e+01    3.2776460052e-01
    1.4599349976e+01    3.3161979914e-01
    1.4699978828e+01    3.3547091484e-01
    1.4799977303e+01    3.3929279447e-01
    1.4899495125e+01    3.4309169650e-01
    1.4999355316e+01    3.4689828753e-01
    1.5098661423e+01    3.5067710280e-01
    1.5198907852e+01    3.5448467731e-01
    1.5299245834e+01    3.5828840733e-01
    1.5398726463e+01    3.6205190420e-01
    1.5499447823e+01    3.6585190892e-01
    1.5598524094e+01    3.6958110332e-01
    1.5699790955e+01    3.7338289618e-01
    1.5799527168e+01    3.7711602449e-01
    1.5899530411e+01    3.8085019588e-01
    1.5999344826e+01    3.8456580043e-01
    1.6099838257e+01    3.8829818368e-01
    1.6199182510e+01    3.9197692275e-01
    1.6298717499e+01    3.9565479755e-01
    1.6399026871e+01    3.9935219288e-01
    1.6499639511e+01    4.0305179358e-01
    1.6599966049e+01    4.0673160553e-01
    1.6699516296e+01    4.1037440300e-01
    1.6799160004e+01    4.1401150823e-01
    1.6898914337e+01    4.1764339805e-01
    1.6998966217e+01    4.2127451301e-01
    1.7099979401e+01    4.2492929101e-01
    1.7198873520e+01    4.2849710584e-01
    1.7299186707e+01    4.3210420012e-01
    1.7399387360e+01    4.3569511175e-01
    1.7498723984e+01    4.3924489617e-01
    1.7598539352e+01    4.4280061126e-01
    1.7699022293e+01    4.4636860490e-01
    1.7799432755e+01    4.4992521405e-01
    1.7899370193e+01    4.5345619321e-01
    1.7999597549e+01    4.5698979497e-01
    1.8099447250e+01    4.6050199866e-01
    1.8199300766e+01    4.6400761604e-01
    1.8299535751e+01    4.6752071381e-01
    1.8399299622e+01    4.7101110220e-01
    1.8499729156e+01    4.7451752424e-01
    1.8599893570e+01    4.7800996900e-01
    1.8699567795e+01    4.8147776723e-01
    1.8799831390e+01    4.8495969176e-01
    1.8899637222e+01    4.8841837049e-01
    1.8998748779e+01    4.9184653163e-01
    1.9099582672e+01    4.9532717466e-01
    1.9199359894e+01    4.9876508117e-01
    1.9299434662e+01    5.0220519304e-01
    1.9398958206e+01    5.0561994314e-01
    1.9499582291e+01    5.0906622410e-01
    1.9598772049e+01    5.1245629787e-01
    1.9699968338e+01    5.1590991020e-01
    1.9798786163e+01    5.1927667856e-01
    1.9899040222e+01    5.2268850803e-01
    1.9999559402e+01    5.2610409260e-01
    2.0099245071e+01    5.3215897083e-01
    2.0199890137e+01    5.3827929497e-01
    2.0299772263e+01    5.4434955120e-01
    2.0399650574e+01    5.5041527748e-01
    2.0499698639e+01    5.5648589134e-01
    2.0599178314e+01    5.6251609325e-01
    2.0698671341e+01    5.6854259968e-01
    2.0798824310e+01    5.7460218668e-01
    2.0898784637e+01    5.8064341545e-01
    2.0999406815e+01    5.8671778440e-01
    2.1098482132e+01    5.9269088507e-01
    2.1199199677e+01    5.9875696898e-01
    2.1300012589e+01    6.0482001305e-01
    2.1399957657e+01    6.1082428694e-01
    2.1499794006e+01    6.1681568623e-01
    2.1599159241e+01    6.2277257442e-01
    2.1699502945e+01    6.2878221273e-01
    2.1798704147e+01    6.3471716642e-01
    2.1898960114e+01    6.4070838690e-01
    2.1998720169e+01    6.4666295052e-01
    2.2098939896e+01    6.5263622999e-01
    2.2199617386e+01    6.5862989426e-01
    2.2299827576e+01    6.6458761692e-01
    2.2399114609e+01    6.7048209906e-01
    2.2499444962e+01    6.7643320560e-01
    2.2598722458e+01    6.8231451511e-01
    2.2699853897e+01    6.8829965591e-01
    2.2798582077e+01    6.9413727522e-01
    2.2899238586e+01    7.0008337498e-01
    2.2999137878e+01    7.0597922802e-01
    2.3098657608e+01    7.1184623241e-01
    2.3199026108e+01    7.1775740385e-01
    2.3299343109e+01    7.2365808487e-01
    2.3398542404e+01    7.2948616743e-01
    2.3498989105e+01    7.3537969589e-01
    2.3598775864e+01    7.4122607708e-01
    2.3698747635e+01    7.4707520008e-01
    2.3799365997e+01    7.5295317173e-01
    2.3899591446e+01    7.5879800320e-01
    2.3998765945e+01    7.6457196474e-01
    2.4099773407e+01    7.7044248581e-01
    2.4199552536e+01    7.7623331547e-01
    2.4298782349e+01    7.8198301792e-01
    2.4399843216e+01    7.8782981634e-01
    2.4498678207e+01    7.9353749752e-01
    2.4598945618e+01    7.9931795597e-01
    2.4699495316e+01    8.0510354042e-01
    2.4799011230e+01    8.1081759930e-01
    2.4900051117e+01    8.1660664082e-01
    2.4999332428e+01    8.2228171825e-01
    2.5099761963e+01    8.2800918818e-01
    2.5199033737e+01    8.3365571499e-01
    2.5300035477e+01    8.3938640356e-01
    2.5399406433e+01    8.4500765800e-01
    2.5499134064e+01    8.5063362122e-01
    2.5599613190e+01    8.5628390312e-01
    2.5699163437e+01    8.6186420918e-01
    2.5798503876e+01    8.6741518974e-01
    2.5899248123e+01    8.7302786112e-01
    2.5999994278e+01    8.7862122059e-01
    2.6099037170e+01    8.8410198689e-01
    2.6200025558e+01    8.8967233896e-01
    2.6299936295e+01    8.9516615868e-01
    2.6399944305e+01    9.0064752102e-01
    2.6498910904e+01    9.0605622530e-01
    2.6599910736e+01    9.1155219078e-01
    2.6698696136e+01    9.1692316532e-01
    2.6799938202e+01    9.2239356041e-01
    2.6899932861e+01    9.2779141665e-01
    2.6999673843e+01    9.3314296007e-01
    2.7099128723e+01    9.3846905231e-01
    2.7198656082e+01    9.4377398491e-01
    2.7298643112e+01    9.4909197092e-01
    2.7399482727e+01    9.5442801714e-01
    2.7498590469e+01    9.5964902639e-01
    2.7599332809e+01    9.6493703127e-01
    2.7698459625e+01    9.7013199329e-01
    2.7799516678e+01    9.7539901733e-01
    2.7899650574e+01    9.8061501980e-01
    2.7999504089e+01    9.8579001427e-01
    2.8098585129e+01    9.9091398716e-01
    2.8199771881e+01    9.9614095688e-01
    2.8298843384e+01    1.0012400150e+00
    2.8399639130e+01    1.0064079762e+00
    2.8499494553e+01    1.0115300417e+00
    2.8599842072e+01    1.0166610479e+00
    2.8699117661e+01    1.0217180252e+00
    2.8798791885e+01    1.0267859697e+00
    2.8899847031e+01    1.0319179296e+00
    2.8999639511e+01    1.0369700193e+00
    2.9099418640e+01    1.0420099497e+00
    2.9198518753e+01    1.0469989777e+00
    2.9299543381e+01    1.0520739555e+00
    2.9399906158e+01    1.0571089983e+00
    2.9498832703e+01    1.0620579720e+00
    2.9599447250e+01    1.0670880079e+00
    2.9699592590e+01    1.0720759630e+00
    2.9798889160e+01    1.0770200491e+00
    2.9898960114e+01    1.0819920301e+00
    2.9999504089e+01    1.0869780779e+00
    3.0098531723e+01    1.0977740288e+00
    3.0199562073e+01    1.1088160276e+00
    3.0298788071e+01    1.1196529865e+00
    3.0398969650e+01    1.1305850744e+00
    3.0498847961e+01    1.1414740086e+00
    3.0599874496e+01    1.1524829865e+00
    3.0698890686e+01    1.1632599831e+00
    3.0799699783e+01    1.1742219925e+00
    3.0899259567e+01    1.1850469112e+00
    3.0999967575e+01    1.1959679127e+00
    3.1099996567e+01    1.2068200111e+00
    3.1198886871e+01    1.2175199986e+00
    3.1299573898e+01    1.2284140587e+00
    3.1399017334e+01    1.2391580343e+00
    3.1499788284e+01    1.2500250340e+00
    3.1599523544e+01    1.2607799768e+00
    3.1699588776e+01    1.2715480328e+00
    3.1799076080e+01    1.2822450399e+00
    3.1900079727e+01    1.2930979729e+00
    3.1999242783e+01    1.3037329912e+00
    3.2099510193e+01    1.3144700527e+00
    3.2198631287e+01    1.3250749111e+00
    3.2299388885e+01    1.3358309269e+00
    3.2399307251e+01    1.3464899063e+00
    3.2498889923e+01    1.3571020365e+00
    3.2599979401e+01    1.3678510189e+00
    3.2698627472e+01    1.3783400059e+00
    3.2799640656e+01    1.3890700340e+00
    3.2898746490e+01    1.3995800018e+00
    3.2999019623e+01    1.4102050066e+00
    3.3100063324e+01    1.4209029675e+00
    3.3199569702e+01    1.4314310551e+00
    3.3299873352e+01    1.4420200586e+00
    3.3399551392e+01    1.4525380135e+00
    3.3499988556e+01    1.4631139040e+00
    3.3598609924e+01    1.4734959602e+00
    3.3699157715e+01    1.4840579033e+00
    3.3799007416e+01    1.4945189953e+00
    3.3899604797e+01    1.5050560236e+00
    3.3998775482e+01    1.5154169798e+00
    3.4099689484e+01    1.5259420872e+00
    3.4199836731e+01    1.5363780260e+00
    3.4298866272e+01    1.5466849804e+00
    3.4399936676e+01    1.5571779013e+00
    3.4498493195e+01    1.5673950911e+00
    3.4599922180e+01    1.5778958797e+00
    3.4698947906e+01    1.5881359577e+00
    3.4799991608e+01    1.5985579491e+00
    3.4899494171e+01    1.6087949276e+00
    3.4998970032e+01    1.6190110445e+00
    3.5099967957e+01    1.6293659210e+00
    3.5199047089e+01    1.6394929886e+00
    3.5299457550e+01    1.6497299671e+00
    3.5398910522e+01    1.6598429680e+00
    3.5498916626e+01    1.6699819565e+00
    3.5599937439e+01    1.6801820993e+00
    3.5699329376e+01    1.6901929379e+00
    3.5799266815e+01    1.7002280951e+00
    3.5899963379e+01    1.7103089094e+00
    3.5999042511e+01    1.7201919556e+00
    3.6098529816e+01    1.7300820351e+00
    3.6199169159e+01    1.7400580645e+00
    3.6299892426e+01    1.7500110865e+00
    3.6399749756e+01    1.7598478794e+00
    3.6499153137e+01    1.7696189880e+00
    3.6598678589e+01    1.7793560028e+00
    3.6699142456e+01    1.7891649008e+00
    3.6799869537e+01    1.7989639044e+00
    3.6899379730e+01    1.8086169958e+00
    3.6998783112e+01    1.8182200193e+00
    3.7099712372e+01    1.8279299736e+00
    3.7199489594e+01    1.8375000954e+00
    3.7299419403e+01    1.8470499516e+00
    3.7399810791e+01    1.8566088676e+00
    3.7499927521e+01    1.8661019802e+00
    3.7599002838e+01    1.8754659891e+00
    3.7699714661e+01    1.8849539757e+00
    3.7798812866e+01    1.8942559958e+00
    3.7899372101e+01    1.9036709070e+00
    3.7999195099e+01    1.9129951000e+00
    3.8099407196e+01    1.9223219156e+00
    3.8199340820e+01    1.9316060543e+00
    3.8299354553e+01    1.9408760071e+00
    3.8399074554e+01    1.9501049519e+00
    3.8499275208e+01    1.9593479633e+00
    3.8599330902e+01    1.9685550928e+00
    3.8698486328e+01    1.9776740074e+00
    3.8799770355e+01    1.9869568348e+00
    3.8899299622e+01    1.9960539341e+00
    3.8998828888e+01    2.0051410198e+00
    3.9099857330e+01    2.0143439770e+00
    3.9199832916e+01    2.0234358311e+00
    3.9299045563e+01    2.0324268341e+00
    3.9398574829e+01    2.0414378643e+00
    3.9499298096e+01    2.0505368710e+00
    3.9598480225e+01    2.0594758987e+00
    3.9699295044e+01    2.0685579777e+00
    3.9798488617e+01    2.0774660110e+00
    3.9899307251e+01    2.0865099430e+00
    3.9998508453e+01    2.0953998566e+00
    4.0099330902e+01    2.1121568680e+00
    4.0199234009e+01    2.1288549900e+00
    4.0298763275e+01    2.1454839706e+00
    4.0399806976e+01    2.1623508930e+00
    4.0499313354e+01    2.1789519787e+00
    4.0598815918e+01    2.1955270767e+00
    4.0698593140e+01    2.2121338844e+00
    4.0799499512e+01    2.2289090157e+00
    4.0899147034e+01    2.2454631329e+00
    4.0999248505e+01    2.2620580196e+00
    4.1099441528e+01    2.2786579132e+00
    4.1199047089e+01    2.2951400280e+00
    4.1299789429e+01    2.3117749691e+00
    4.1398914337e+01    2.3281331062e+00
    4.1499668121e+01    2.3447339535e+00
    4.1599575043e+01    2.3611800671e+00
    4.1699714661e+01    2.3776359558e+00
    4.1799175262e+01    2.3939690590e+00
    4.1898616791e+01    2.4102702141e+00
    4.1999458313e+01    2.4267771244e+00
    4.2098537445e+01    2.4429619312e+00
    4.2199249268e+01    2.4594008923e+00
    4.2298347473e+01    2.4755430222e+00
    4.2398628235e+01    2.4918489456e+00
    4.2499031067e+01    2.5081560612e+00
    4.2598461151e+01    2.5242829323e+00
    4.2699275970e+01    2.5406088829e+00
    4.2799488068e+01    2.5568220615e+00
    4.2899055481e+01    2.5729138851e+00
    4.2998535156e+01    2.5889689922e+00
    4.3099548340e+01    2.6052460670e+00
    4.3199115753e+01    2.6212739944e+00
    4.3299861908e+01    2.6374659538e+00
    4.3398906708e+01    2.6533579826e+00
    4.3499126434e+01    2.6694118977e+00
    4.3598388672e+01    2.6852829456e+00
    4.3699779510e+01    2.7014689445e+00
    4.3799228668e+01    2.7173252106e+00
    4.3898277283e+01    2.7330789566e+00
    4.3999061584e+01    2.7490730286e+00
    4.4098529816e+01    2.7648401260e+00
    4.4199535370e+01    2.7808170319e+00
    4.4298385620e+01    2.7964270115e+00
    4.4399440765e+01    2.8123540878e+00
    4.4499725342e+01    2.8281400204e+00
    4.4599327087e+01    2.8437790871e+00
    4.4699378967e+01    2.8594641685e+00
    4.4798877716e+01    2.8750219345e+00
    4.4899887085e+01    2.8907899857e+00
    4.4998939514e+01    2.9062080383e+00
    4.5099704742e+01    2.9218521118e+00
    4.5199317932e+01    2.9372830391e+00
    4.5298744202e+01    2.9526410103e+00
    4.5399871826e+01    2.9682059288e+00
    4.5498485565e+01    2.9833431244e+00
    4.5598773956e+01    2.9986951351e+00
    4.5699344635e+01    3.0140318871e+00
    4.5799720764e+01    3.0292870998e+00
    4.5898738861e+01    3.0442948341e+00
    4.5999389648e+01    3.0594949722e+00
    4.6098636627e+01    3.0744299889e+00
    4.6199424744e+01    3.0895519257e+00
    4.6298450470e+01    3.1043529510e+00
    4.6399097443e+01    3.1193549633e+00
    4.6499595642e+01    3.1342880726e+00
    4.6598964691e+01    3.1490080357e+00
    4.6699855804e+01    3.1639010906e+00
    4.6798965454e+01    3.1784770489e+00
    4.6899520874e+01    3.1932182312e+00
    4.6998859406e+01    3.2077281475e+00
    4.7099712372e+01    3.2224030495e+00
    4.7199031830e+01    3.2368061543e+00
    4.7298431396e+01    3.2511601448e+00
    4.7399028778e+01    3.2656359673e+00
    4.7499637604e+01    3.2800588608e+00
    4.7598648071e+01    3.2941999435e+00
    4.7699302673e+01    3.3085308075e+00
    4.7798351288e+01    3.3225860596e+00
    4.7899353027e+01    3.3368752003e+00
    4.7999153137e+01    3.3509607315e+00
    4.8098453522e+01    3.3649308681e+00
    4.8198909760e+01    3.3790321350e+00
    4.8299633026e+01    3.3931312561e+00
    4.8398738861e+01    3.4069831371e+00
    4.8499198914e+01    3.4209828377e+00
    4.8598854065e+01    3.4348359108e+00
    4.8699150085e+01    3.4487538338e+00
    4.8799079895e+01    3.4625859261e+00
    4.8898597717e+01    3.4763360023e+00
    4.8999652863e+01    3.4902610779e+00
    4.9099071503e+01    3.5039362907e+00
    4.9199214935e+01    3.5176720619e+00
    4.9298885345e+01    3.5313220024e+00
    4.9398395538e+01    3.5449242592e+00
    4.9499343872e+01    3.5586800575e+00
    4.9599201202e+01    3.5722737312e+00
    4.9698394775e+01    3.5857498646e+00
    4.9798366547e+01    3.5993099213e+00
    4.9899192810e+01    3.6129679680e+00
    4.9998390198e+01    3.6263799667e+00
    5.0099800110e+01    3.6496562958e+00
    5.0198532104e+01    3.6724400520e+00
    5.0299587250e+01    3.6957397461e+00
    5.0399093628e+01    3.7186679840e+00
    5.0498950958e+01    3.7416479588e+00
    5.0599006653e+01    3.7646608353e+00
    5.0698478699e+01    3.7874989510e+00
    5.0799171448e+01    3.8106021881e+00
    5.0898323059e+01    3.8333160877e+00
    5.0998867035e+01    3.8563199043e+00
    5.1099498749e+01    3.8793098927e+00
    5.1199752808e+01    3.9021799564e+00
    5.1298835754e+01    3.9247498512e+00
    5.1398994446e+01    3.9475297928e+00
    5.1499706268e+01    3.9704000950e+00
    5.1599384308e+01    3.9930098057e+00
    5.1698520660e+01    4.0154695511e+00
    5.1799461365e+01    4.0382900238e+00
    5.1898849487e+01    4.0607299805e+00
    5.1999725342e+01    4.0834698677e+00
    5.2098739624e+01    4.1057400703e+00
    5.2199386597e+01    4.1283402443e+00
    5.2298427582e+01    4.1505298615e+00
    5.2398551941e+01    4.1729402542e+00
    5.2499275208e+01    4.1954402924e+00
    5.2598937988e+01    4.2176699638e+00
    5.2698734283e+01    4.2398796082e+00
    5.2798408508e+01    4.2620401382e+00
    5.2899562836e+01    4.2844896317e+00
    5.2998989105e+01    4.3065400124e+00
    5.3098411560e+01    4.3285303116e+00
    5.3199359894e+01    4.3508300781e+00
    5.3298328400e+01    4.3726396561e+00
    5.3398296356e+01    4.3946399689e+00
    5.3499610901e+01    4.4169001579e+00
    5.3598720551e+01    4.4386200905e+00
    5.3698627472e+01    4.4604802132e+00
    5.3798198700e+01    4.4822196960e+00
    5.3898925781e+01    4.5041499138e+00
    5.3999671936e+01    4.5260500908e+00
    5.4098808289e+01    4.5475502014e+00
    5.4199142456e+01    4.5692601204e+00
    5.4298648834e+01    4.5907597542e+00
    5.4399677277e+01    4.6125402451e+00
    5.4499649048e+01    4.6340398788e+00
    5.4599693298e+01    4.6555099487e+00
    5.4698577881e+01    4.6766901016e+00
    5.4799564362e+01    4.6982703209e+00
    5.4898994446e+01    4.7194600105e+00
    5.4999210358e+01    4.7407598495e+00
    5.5098278046e+01    4.7617597580e+00
    5.5199554443e+01    4.7831702232e+00
    5.5298919678e+01    4.8041095734e+00
    5.5398529053e+01    4.8250398636e+00
    5.5498878479e+01    4.8460502625e+00
    5.5599460602e+01    4.8670401573e+00
    5.5698905945e+01    4.8877296448e+00
    5.5798271179e+01    4.9083399773e+00
    5.5898849487e+01    4.9291200638e+00
    5.5999435425e+01    4.9498300552e+00
    5.6098999023e+01    4.9702596664e+00
    5.6199249268e+01    4.9907698631e+00
    5.6298202515e+01    5.0109400749e+00
    5.6398120880e+01    5.0312404633e+00
    5.6499198914e+01    5.0517101288e+00
    5.6598491669e+01    5.0717401505e+00
    5.6699291229e+01    5.0920200348e+00
    5.6799270630e+01    5.1120500565e+00
    5.6898563385e+01    5.1318798065e+00
    5.6999332428e+01    5.1519203186e+00
    5.7098556519e+01    5.1715803146e+00
    5.7199298859e+01    5.1914696693e+00
    5.7299049377e+01    5.2110800743e+00
    5.7399551392e+01    5.2307600975e+00
    5.7498447418e+01    5.2500500679e+00
    5.7598999023e+01    5.2696003914e+00
    5.7699577332e+01    5.2890796661e+00
    5.7798553467e+01    5.3081898689e+00
    5.7898429871e+01    5.3274202347e+00
    5.7999313354e+01    5.3467798233e+00
    5.8099056244e+01    5.3658599854e+00
    5.8199077606e+01    5.3849501610e+00
    5.8299358368e+01    5.4040403366e+00
    5.8398315430e+01    5.4228401184e+00
    5.8499008179e+01    5.4419102669e+00
    5.8599185944e+01    5.4608502388e+00
    5.8698398590e+01    5.4795503616e+00
    5.8799144745e+01    5.4984998703e+00
    5.8899295807e+01    5.5172996521e+00
    5.8998798370e+01    5.5359301567e+00
    5.9099071503e+01    5.5546703339e+00
    5.9198818207e+01    5.5732598305e+00
    5.9299606323e+01    5.5920000076e+00
    5.9398818970e+01    5.6104202271e+00
    5.9498332977e+01    5.6288499832e+00
    5.9598651886e+01    5.6473898888e+00
    5.9699459076e+01    5.6659998894e+00
    5.9798648834e+01    5.6842699051e+00
    5.9899463654e+01    5.7028098106e+00
    5.9998657227e+01    5.7210297585e+00
    6.0099468231e+01    5.7506699562e+00
    6.0199417114e+01    5.7802000046e+00
    6.0298927307e+01    5.8095598221e+00
    6.0398414612e+01    5.8388800621e+00
    6.0498451233e+01    5.8683400154e+00
    6.0599441528e+01    5.8980398178e+00
    6.0698879242e+01    5.9272599220e+00
    6.0798358917e+01    5.9564499855e+00
    6.0898712158e+01    5.9858498573e+00
    6.0998638153e+01    6.0150899887e+00
    6.1098850250e+01    6.0443596840e+00
    6.1198661804e+01    6.0734696388e+00
    6.1299304962e+01    6.1027803421e+00
    6.1398910522e+01    6.1317300797e+00
    6.1499561310e+01    6.1609501839e+00
    6.1599170685e+01    6.1898097992e+00
    6.1699386597e+01    6.2188005447e+00
    6.1798725128e+01    6.2474803925e+00
    6.1899555206e+01    6.2765502930e+00
    6.1998531342e+01    6.3050193787e+00
    6.2099079132e+01    6.3338804245e+00
    6.2198017120e+01    6.3622303009e+00
    6.2298595428e+01    6.3909802437e+00
    6.2399600983e+01    6.4197893143e+00
    6.2499008179e+01    6.4481000900e+00
    6.2599357605e+01    6.4766097069e+00
    6.2699073792e+01    6.5048904419e+00
    6.2798751831e+01    6.5331096649e+00
    6.2898178101e+01    6.5612096786e+00
    6.2999042511e+01    6.5896601677e+00
    6.3098369598e+01    6.6176300049e+00
    6.3199218750e+01    6.6459598541e+00
    6.3299423218e+01    6.6740403175e+00
    6.3399105072e+01    6.7019195557e+00
    6.3499263763e+01    6.7298698425e+00
    6.3598846436e+01    6.7575902939e+00
    6.3699417114e+01    6.7855205536e+00
    6.3798416138e+01    6.8129501343e+00
    6.3899059296e+01    6.8407697678e+00
    6.3998111725e+01    6.8680801392e+00
    6.4098808289e+01    6.8957800865e+00
    6.4198616028e+01    6.9231595993e+00
    6.4298065186e+01    6.9503903389e+00
    6.4399047852e+01    6.9779806137e+00
    6.4498497009e+01    7.0050802231e+00
    6.4598205566e+01    7.0321998596e+00
    6.4698471069e+01    7.0593900681e+00
    6.4799392700e+01    7.0866899490e+00
    6.4898757935e+01    7.1135005951e+00
    6.4998992920e+01    7.1404595375e+00
    6.5098457336e+01    7.1671400070e+00
    6.5199485779e+01    7.1941599846e+00
    6.5298767090e+01    7.2206296921e+00
    6.5398094177e+01    7.2470207214e+00
    6.5498542786e+01    7.2736301422e+00
    6.5599021912e+01    7.3001403809e+00
    6.5698654175e+01    7.3263597488e+00
    6.5798309326e+01    7.3524694443e+00
    6.5898796082e+01    7.3787002563e+00
    6.5999298096e+01    7.4049005508e+00
    6.6099357605e+01    7.4307804108e+00
    6.6198089600e+01    7.4563694000e+00
    6.6298568726e+01    7.4822096825e+00
    6.6399055481e+01    7.5079498291e+00
    6.6499374390e+01    7.5336399078e+00
    6.6598571777e+01    7.5589103699e+00
    6.6699279785e+01    7.5845499039e+00
    6.6798873901e+01    7.6096701622e+00
    6.6898162842e+01    7.6347494125e+00
    6.6998817444e+01    7.6600098610e+00
    6.7099456787e+01    7.6851801872e+00
    6.7198554993e+01    7.7098903656e+00
    6.7298095703e+01    7.7345399857e+00
    6.7398475647e+01    7.7593402863e+00
    6.7498878479e+01    7.7840499878e+00
    6.7599319458e+01    7.8087501526e+00
    6.7698173523e+01    7.8328394890e+00
    6.7798675537e+01    7.8573598862e+00
    6.7898078918e+01    7.8814902306e+00
    6.7998870850e+01    7.9059095383e+00
    6.8098144531e+01    7.9298200607e+00
    6.8198066711e+01    7.9538497925e+00
    6.8298637390e+01    7.9780001640e+00
    6.8399040222e+01    8.0020198822e+00
    6.8498031616e+01    8.0256204605e+00
    6.8599357605e+01    8.0497503281e+00
    6.8698394775e+01    8.0733299255e+00
    6.8799079895e+01    8.0971698761e+00
    6.8898124695e+01    8.1206302643e+00
    6.8999107361e+01    8.1443996429e+00
    6.9098579407e+01    8.1677799225e+00
    6.9198295593e+01    8.1912698746e+00
    6.9299041748e+01    8.2148199081e+00
    6.9399078369e+01    8.2382402420e+00
    6.9498542786e+01    8.2614192963e+00
    6.9599403381e+01    8.2848997116e+00
    6.9698539734e+01    8.3079500198e+00
    6.9799308777e+01    8.3312597275e+00
    6.9898460388e+01    8.3542299271e+00
    6.9999237061e+01    8.3775606155e+00
    7.0098388672e+01    8.4113502502e+00
    7.0198394775e+01    8.4455499649e+00
    7.0298057556e+01    8.4794807434e+00
    7.0399032593e+01    8.5139293671e+00
    7.0498466492e+01    8.5477199554e+00
    7.0599403381e+01    8.5820903778e+00
    7.0698791504e+01    8.6158094406e+00
    7.0798881531e+01    8.6497402191e+00
    7.0898231506e+01    8.6833696365e+00
    7.0999336243e+01    8.7175102234e+00
    7.1098709106e+01    8.7510099411e+00
    7.1198707581e+01    8.7847404480e+00
    7.1299278259e+01    8.8185005188e+00
    7.1398231506e+01    8.8516998291e+00
    7.1498794556e+01    8.8854398727e+00
    7.1598716736e+01    8.9188299179e+00
    7.1697982788e+01    8.9518699646e+00
    7.1798751831e+01    8.9854698181e+00
    7.1897949219e+01    9.0183906555e+00
    7.1998519897e+01    9.0517606735e+00
    7.2098945618e+01    9.0848903656e+00
    7.2199378967e+01    9.1180305481e+00
    7.2298210144e+01    9.1505098343e+00
    7.2398147583e+01    9.1832895279e+00
    7.2498870850e+01    9.2163400650e+00
    7.2598121643e+01    9.2487001419e+00
    7.2698532104e+01    9.2814702988e+00
    7.2799018860e+01    9.3141403198e+00
    7.2898773193e+01    9.3464794159e+00
    7.2997962952e+01    9.3785600662e+00
    7.3098670959e+01    9.4110603333e+00
    7.3199371338e+01    9.4435701370e+00
    7.3298095703e+01    9.4751996994e+00
    7.3398689270e+01    9.5074596405e+00
    7.3498687744e+01    9.5393495560e+00
    7.3597930908e+01    9.5710096359e+00
    7.3698081970e+01    9.6027889252e+00
    7.3798294067e+01    9.6345691681e+00
    7.3898818970e+01    9.6662902832e+00
    7.3999389648e+01    9.6979198456e+00
    7.4098358154e+01    9.7289896011e+00
    7.4198646545e+01    9.7604007721e+00
    7.4297996521e+01    9.7914295197e+00
    7.4398872375e+01    9.8229598999e+00
    7.4498786926e+01    9.8540000916e+00
    7.4598777771e+01    9.8849506378e+00
    7.4698471069e+01    9.9157695770e+00
    7.4799293518e+01    9.9468603134e+00
    7.4898551941e+01    9.9772901535e+00
    7.4998977661e+01    1.0008079529e+01
    7.5099006653e+01    1.0038559914e+01
    7.5198219299e+01    1.0068820000e+01
    7.5298927307e+01    1.0099340439e+01
    7.5399108887e+01    1.0129579544e+01
    7.5498382568e+01    1.0159509659e+01
    7.5598762512e+01    1.0189579964e+01
    7.5699150085e+01    1.0219640732e+01
    7.5798500061e+01    1.0249219894e+01
    7.5898895264e+01    1.0279060364e+01
    7.5999313354e+01    1.0308679581e+01
    7.6099197388e+01    1.0338109970e+01
    7.6198791504e+01    1.0367309570e+01
    7.6298805237e+01    1.0396599770e+01
    7.6399192810e+01    1.0425809860e+01
    7.6499221802e+01    1.0454889297e+01
    7.6598320007e+01    1.0483579636e+01
    7.6698913574e+01    1.0512510300e+01
    7.6799156189e+01    1.0541319847e+01
    7.6899078369e+01    1.0569890022e+01
    7.6998100281e+01    1.0598060608e+01
    7.7098617554e+01    1.0626649857e+01
    7.7199111938e+01    1.0655030251e+01
    7.7298439026e+01    1.0682979584e+01
    7.7398689270e+01    1.0710990906e+01
    7.7498970032e+01    1.0738980293e+01
    7.7599281311e+01    1.0766849518e+01
    7.7698013306e+01    1.0794210434e+01
    7.7798393250e+01    1.0821969986e+01
    7.7898521423e+01    1.0849479675e+01
    7.7999191284e+01    1.0877079964e+01
    7.8098335266e+01    1.0904170036e+01
    7.8197845459e+01    1.0931289673e+01
    7.8298294067e+01    1.0958489418e+01
    7.8398773193e+01    1.0985709190e+01
    7.8499282837e+01    1.1012950897e+01
    7.8598693848e+01    1.1039690018e+01
    7.8699264526e+01    1.1066679001e+01
    7.8798240662e+01    1.1093299866e+01
    7.8898727417e+01    1.1120169640e+01
    7.8998100281e+01    1.1146671295e+01
    7.9099014282e+01    1.1173499107e+01
    7.9198646545e+01    1.1200000763e+01
    7.9299301147e+01    1.1226580620e+01
    7.9398857117e+01    1.1252980232e+01
    7.9498237610e+01    1.1279169083e+01
    7.9598648071e+01    1.1305540085e+01
    7.9699325562e+01    1.1331979752e+01
    7.9798385620e+01    1.1357999802e+01
    7.9899085999e+01    1.1384340286e+01
    7.9998161316e+01    1.1410261154e+01
    8.0098861694e+01    1.1448101044e+01
    8.0197929382e+01    1.1485538483e+01
    8.0298751831e+01    1.1523570061e+01
    8.0398132324e+01    1.1561038971e+01
    8.0499023438e+01    1.1599060059e+01
    8.0598365784e+01    1.1636440277e+01
    8.0699211121e+01    1.1674268723e+01
    8.0798362732e+01    1.1711488724e+01
    8.0899169922e+01    1.1749219894e+01
    8.0998023987e+01    1.1786100388e+01
    8.1099250793e+01    1.1823881149e+01
    8.1198242188e+01    1.1860779762e+01
    8.1298713684e+01    1.1898120880e+01
    8.1399169922e+01    1.1935379028e+01
    8.1498008728e+01    1.1971909523e+01
    8.1599243164e+01    1.2009300232e+01
    8.1698394775e+01    1.2045879364e+01
    8.1799026489e+01    1.2082870483e+01
    8.1898094177e+01    1.2119190216e+01
    8.1998344421e+01    1.2155790329e+01
    8.2098625183e+01    1.2192390442e+01
    8.2198913574e+01    1.2228879929e+01
    8.2299217224e+01    1.2265270233e+01
    8.2397872925e+01    1.2300929070e+01
    8.2498443604e+01    1.2337259293e+01
    8.2598587036e+01    1.2373310089e+01
    8.2698928833e+01    1.2409318924e+01
    8.2799247742e+01    1.2445239067e+01
    8.2898834229e+01    1.2480769157e+01
    8.2997856140e+01    1.2516069412e+01
    8.3098388672e+01    1.2551740646e+01
    8.3198905945e+01    1.2587409973e+01
    8.3298507690e+01    1.2622529984e+01
    8.3398628235e+01    1.2657789230e+01
    8.3498840332e+01    1.2692909241e+01
    8.3598663330e+01    1.2727840424e+01
    8.3698081970e+01    1.2762470245e+01
    8.3798988342e+01    1.2797538757e+01
    8.3897727966e+01    1.2831748962e+01
    8.3998138428e+01    1.2866349220e+01
    8.4098587036e+01    1.2900939941e+01
    8.4198059082e+01    1.2935119629e+01
    8.4298797607e+01    1.2969609261e+01
    8.4398010254e+01    1.3003471375e+01
    8.4498764038e+01    1.3037660599e+01
    8.4597770691e+01    1.3071289062e+01
    8.4698585510e+01    1.3105370522e+01
    8.4797760010e+01    1.3138839722e+01
    8.4898429871e+01    1.3172650337e+01
    8.4998825073e+01    1.3206331253e+01
    8.5098945618e+01    1.3239690781e+01
    8.5198036194e+01    1.3272749901e+01
    8.5298629761e+01    1.3306030273e+01
    8.5398887634e+01    1.3339200974e+01
    8.5498062134e+01    1.3371880531e+01
    8.5598335266e+01    1.3404701233e+01
    8.5698608398e+01    1.3437490463e+01
    8.5798507690e+01    1.3469970703e+01
    8.5898803711e+01    1.3502510071e+01
    8.5999130249e+01    1.3534919739e+01
    8.6098640442e+01    1.3566970825e+01
    8.6199195862e+01    1.3599269867e+01
    8.6298072815e+01    1.3630790710e+01
    8.6398361206e+01    1.3662750244e+01
    8.6498855591e+01    1.3694730759e+01
    8.6597862244e+01    1.3725979805e+01
    8.6698356628e+01    1.3757619858e+01
    8.6798484802e+01    1.3789069176e+01
    8.6898498535e+01    1.3820341110e+01
    8.6998924255e+01    1.3851638794e+01
    8.7097801208e+01    1.3882330894e+01
    8.7198173523e+01    1.3913300514e+01
    8.7298309326e+01    1.3944108963e+01
    8.7398429871e+01    1.3974809647e+01
    8.7498573303e+01    1.4005279541e+01
    8.7598747253e+01    1.4035820961e+01
    8.7698951721e+01    1.4066129684e+01
    8.7799179077e+01    1.4096319199e+01
    8.7897918701e+01    1.4126020432e+01
    8.7998443604e+01    1.4156108856e+01
    8.8098976135e+01    1.4186199188e+01
    8.8198997498e+01    1.4215970993e+01
    8.8297691345e+01    1.4245320320e+01
    8.8398033142e+01    1.4275010109e+01
    8.8498413086e+01    1.4304610252e+01
    8.8597984314e+01    1.4333920479e+01
    8.8698921204e+01    1.4363570213e+01
    8.8797782898e+01    1.4392580032e+01
    8.8898147583e+01    1.4421879768e+01
    8.8998939514e+01    1.4451280594e+01
    8.9098205566e+01    1.4480229378e+01
    8.9199073792e+01    1.4509450912e+01
    8.9297981262e+01    1.4538089752e+01
    8.9398658752e+01    1.4567249298e+01
    8.9497917175e+01    1.4595840454e+01
    8.9598388672e+01    1.4624730110e+01
    8.9698928833e+01    1.4653540611e+01
    8.9797874451e+01    1.4681859970e+01
    8.9898452759e+01    1.4710650444e+01
    8.9999046326e+01    1.4739379883e+01
    9.0098007202e+01    1.4781830788e+01
    9.0198593140e+01    1.4825069427e+01
    9.0298278809e+01    1.4867880821e+01
    9.0399085999e+01    1.4911029816e+01
    9.0498336792e+01    1.4953599930e+01
    9.0599113464e+01    1.4996659279e+01
    9.0698715210e+01    1.5039189339e+01
    9.0798736572e+01    1.5081909180e+01
    9.0897918701e+01    1.5124179840e+01
    9.0998588562e+01    1.5166930199e+01
    9.1097702026e+01    1.5209080696e+01
    9.1198005676e+01    1.5251509666e+01
    9.1298339844e+01    1.5293950081e+01
    9.1398674011e+01    1.5336311340e+01
    9.1498992920e+01    1.5378579140e+01
    9.1599052429e+01    1.5420649529e+01
    9.1698066711e+01    1.5462221146e+01
    9.1798553467e+01    1.5504240036e+01
    9.1898986816e+01    1.5546170235e+01
    9.1997833252e+01    1.5587281227e+01
    9.2097953796e+01    1.5628808975e+01
    9.2198081970e+01    1.5670320511e+01
    9.2298233032e+01    1.5711610794e+01
    9.2398345947e+01    1.5752810478e+01
    9.2498764038e+01    1.5794080734e+01
    9.2598083496e+01    1.5834770203e+01
    9.2699035645e+01    1.5876040459e+01
    9.2797569275e+01    1.5916220665e+01
    9.2897949219e+01    1.5956998825e+01
    9.2998306274e+01    1.5997669220e+01
    9.3098655701e+01    1.6038240433e+01
    9.3198982239e+01    1.6078689575e+01
    9.3298011780e+01    1.6118509293e+01
    9.3397842407e+01    1.6158500671e+01
    9.3499000549e+01    1.6198841095e+01
    9.3598716736e+01    1.6238498688e+01
    9.3699081421e+01    1.6278400421e+01
    9.3797912598e+01    1.6317399979e+01
    9.3897895813e+01    1.6356800079e+01
    9.3998115540e+01    1.6396099091e+01
    9.4098388672e+01    1.6435401917e+01
    9.4197883606e+01    1.6474199295e+01
    9.4298469543e+01    1.6513401031e+01
    9.4397819519e+01    1.6551898956e+01
    9.4498794556e+01    1.6590999603e+01
    9.4598228455e+01    1.6629400253e+01
    9.4699005127e+01    1.6668199539e+01
    9.4798049927e+01    1.6706100464e+01
    9.4898864746e+01    1.6744701385e+01
    9.4997505188e+01    1.6782400131e+01
    9.5098075867e+01    1.6820600510e+01
    9.5198554993e+01    1.6858699799e+01
    9.5299003601e+01    1.6896598816e+01
    9.5397895813e+01    1.6933799744e+01
    9.5498283386e+01    1.6971500397e+01
    9.5597854614e+01    1.7008701324e+01
    9.5697975159e+01    1.7045900345e+01
    9.5798103333e+01    1.7083000183e+01
    9.5898262024e+01    1.7120100021e+01
    9.5998458862e+01    1.7156999588e+01
    9.6098693848e+01    1.7193700790e+01
    9.6197608948e+01    1.7229900360e+01
    9.6298835754e+01    1.7266799927e+01
    9.6399009705e+01    1.7303300858e+01
    9.6497978210e+01    1.7339099884e+01
    9.6598396301e+01    1.7375301361e+01
    9.6698791504e+01    1.7411500931e+01
    9.6798995972e+01    1.7447399139e+01
    9.6899085999e+01    1.7483200073e+01
    9.6997871399e+01    1.7518402100e+01
    9.7098136902e+01    1.7553899765e+01
    9.7198371887e+01    1.7589298248e+01
    9.7298835754e+01    1.7624599457e+01
    9.7398796082e+01    1.7659700394e+01
    9.7498764038e+01    1.7694599152e+01
    9.7598762512e+01    1.7729499817e+01
    9.7698776245e+01    1.7764101028e+01
    9.7798820496e+01    1.7798700333e+01
    9.7897666931e+01    1.7832698822e+01
    9.7998001099e+01    1.7867099762e+01
    9.8098442078e+01    1.7901500702e+01
    9.8198554993e+01    1.7935600281e+01
    9.8298698425e+01    1.7969699860e+01
    9.8398887634e+01    1.8003700256e+01
    9.8497497559e+01    1.8037097931e+01
    9.8597778320e+01    1.8070899963e+01
    9.8698692322e+01    1.8104900360e+01
    9.8799034119e+01    1.8138599396e+01
    9.8898605347e+01    1.8172000885e+01
    9.8997726440e+01    1.8205200195e+01
    9.9098381042e+01    1.8238700867e+01
    9.9198158264e+01    1.8271900177e+01
    9.9297866821e+01    1.8305000305e+01
    9.9398483276e+01    1.8338397980e+01
    9.9497573853e+01    1.8371101379e+01
    9.9599006653e+01    1.8404598236e+01
    9.9697753906e+01    1.8437000275e+01
    9.9798133850e+01    1.8470001221e+01
    9.9898544312e+01    1.8502901077e+01
    9.9998962402e+01    1.8535800934e+01
    1.0009777832e+02    1.8585201263e+01
    1.0019821167e+02    1.8635601044e+01
    1.0029888916e+02    1.8686100006e+01
    1.0039781952e+02    1.8735599518e+01
    1.0049822998e+02    1.8785800934e+01
    1.0059887695e+02    1.8836200714e+01
    1.0069798279e+02    1.8885499954e+01
    1.0079834747e+02    1.8935600281e+01
    1.0089894104e+02    1.8985698700e+01
    1.0099797058e+02    1.9034900665e+01
    1.0109847260e+02    1.9084699631e+01
    1.0119817352e+02    1.9134099960e+01
    1.0129834747e+02    1.9183601379e+01
    1.0139852905e+02    1.9233001709e+01
    1.0149870300e+02    1.9282402039e+01
    1.0159868622e+02    1.9331501007e+01
    1.0169754028e+02    1.9379898071e+01
    1.0179785156e+02    1.9429000854e+01
    1.0189808655e+02    1.9477897644e+01
    1.0199855042e+02    1.9526800156e+01
    1.0209848785e+02    1.9575298309e+01
    1.0219844055e+02    1.9623600006e+01
    1.0229840851e+02    1.9671899796e+01
    1.0239816284e+02    1.9719898224e+01
    1.0249878693e+02    1.9768299103e+01
    1.0259880066e+02    1.9816200256e+01
    1.0269789124e+02    1.9863599777e+01
    1.0279759979e+02    1.9911199570e+01
    1.0289856720e+02    1.9959300995e+01
    1.0299875641e+02    2.0006801605e+01
    1.0309892273e+02    2.0054199219e+01
    1.0319754028e+02    2.0100700378e+01
    1.0329884338e+02    2.0148399353e+01
    1.0339807892e+02    2.0194999695e+01
    1.0349862671e+02    2.0242000580e+01
    1.0359784698e+02    2.0288200378e+01
    1.0369799042e+02    2.0334800720e+01
    1.0379820251e+02    2.0381101608e+01
    1.0389814758e+02    2.0427299500e+01
    1.0399816132e+02    2.0473201752e+01
    1.0409822845e+02    2.0519100189e+01
    1.0419790649e+02    2.0564599991e+01
    1.0429830170e+02    2.0610397339e+01
    1.0439785767e+02    2.0655700684e+01
    1.0449749756e+02    2.0700801849e+01
    1.0459821320e+02    2.0746400833e+01
    1.0469891357e+02    2.0791801453e+01
    1.0479779816e+02    2.0836299896e+01
    1.0489872742e+02    2.0881498337e+01
    1.0499881744e+02    2.0926200867e+01
    1.0509835815e+02    2.0970600128e+01
    1.0519866180e+02    2.1015201569e+01
    1.0529892731e+02    2.1059600830e+01
    1.0539762878e+02    2.1103200912e+01
    1.0549781036e+02    2.1147300720e+01
    1.0559812164e+02    2.1191200256e+01
    1.0569802856e+02    2.1234798431e+01
    1.0579797363e+02    2.1278301239e+01
    1.0589794159e+02    2.1321701050e+01
    1.0599794769e+02    2.1364801407e+01
    1.0609821320e+02    2.1408000946e+01
    1.0619876862e+02    2.1451198578e+01
    1.0629879761e+02    2.1493999481e+01
    1.0639884186e+02    2.1536701202e+01
    1.0649861145e+02    2.1579101562e+01
    1.0659890747e+02    2.1621700287e+01
    1.0669764709e+02    2.1663400650e+01
    1.0679782104e+02    2.1705598831e+01
    1.0689777374e+02    2.1747600555e+01
    1.0699813080e+02    2.1789699554e+01
    1.0709822845e+02    2.1831399918e+01
    1.0719830322e+02    2.1873001099e+01
    1.0729747772e+02    2.1914098740e+01
    1.0739781952e+02    2.1955501556e+01
    1.0749749756e+02    2.1996501923e+01
    1.0759887695e+02    2.2037900925e+01
    1.0769866943e+02    2.2078699112e+01
    1.0779847717e+02    2.2119298935e+01
    1.0789862061e+02    2.2159900665e+01
    1.0799873352e+02    2.2200302124e+01
    1.0809854889e+02    2.2240499496e+01
    1.0819844818e+02    2.2280599594e+01
    1.0829839325e+02    2.2320497513e+01
    1.0839837646e+02    2.2360500336e+01
    1.0849842834e+02    2.2400201797e+01
    1.0859854126e+02    2.2440097809e+01
    1.0869870758e+02    2.2479799271e+01
    1.0879804230e+02    2.2518898010e+01
    1.0889849854e+02    2.2558601379e+01
    1.0899745178e+02    2.2597499847e+01
    1.0909792328e+02    2.2636901855e+01
    1.0919837952e+02    2.2676298141e+01
    1.0929881287e+02    2.2715400696e+01
    1.0939768982e+02    2.2753999710e+01
    1.0949806976e+02    2.2792900085e+01
    1.0959860992e+02    2.2831901550e+01
    1.0969873810e+02    2.2870498657e+01
    1.0979888916e+02    2.2909198761e+01
    1.0989743805e+02    2.2947101593e+01
    1.0999764252e+02    2.2985599518e+01
    1.1009784698e+02    2.3044900894e+01
    1.1019806671e+02    2.3104600906e+01
    1.1029750061e+02    2.3163797379e+01
    1.1039803314e+02    2.3223499298e+01
    1.1049826050e+02    2.3283100128e+01
    1.1059835052e+02    2.3342500687e+01
    1.1069815826e+02    2.3401601791e+01
    1.1079779816e+02    2.3460599899e+01
    1.1089824677e+02    2.3519897461e+01
    1.1099864960e+02    2.3579099655e+01
    1.1109748840e+02    2.3637298584e+01
    1.1119779205e+02    2.3696298599e+01
    1.1129824066e+02    2.3755201340e+01
    1.1139797211e+02    2.3813701630e+01
    1.1149794006e+02    2.3872100830e+01
    1.1159764862e+02    2.3930301666e+01
    1.1169780731e+02    2.3988597870e+01
    1.1179788971e+02    2.4046699524e+01
    1.1189791107e+02    2.4104598999e+01
    1.1199832153e+02    2.4162500381e+01
    1.1209802246e+02    2.4219898224e+01
    1.1219774628e+02    2.4277200699e+01
    1.1229752350e+02    2.4334400177e+01
    1.1239769745e+02    2.4391601562e+01
    1.1249874878e+02    2.4449201584e+01
    1.1259858704e+02    2.4505897522e+01
    1.1269844055e+02    2.4562601089e+01
    1.1279827118e+02    2.4619102478e+01
    1.1289792633e+02    2.4675399780e+01
    1.1299793243e+02    2.4731798172e+01
    1.1309790802e+02    2.4788000107e+01
    1.1319786072e+02    2.4843900681e+01
    1.1329754639e+02    2.4899702072e+01
    1.1339761353e+02    2.4955400467e+01
    1.1349858856e+02    2.5011501312e+01
    1.1359841156e+02    2.5066699982e+01
    1.1369828033e+02    2.5121700287e+01
    1.1379739380e+02    2.5176200867e+01
    1.1389837646e+02    2.5231500626e+01
    1.1399813080e+02    2.5286001205e+01
    1.1409793854e+02    2.5340297699e+01
    1.1419764709e+02    2.5394199371e+01
    1.1429779816e+02    2.5448400497e+01
    1.1439766693e+02    2.5502300262e+01
    1.1449852753e+02    2.5556398392e+01
    1.1459780121e+02    2.5609600067e+01
    1.1469750977e+02    2.5662899017e+01
    1.1479772949e+02    2.5716398239e+01
    1.1489826202e+02    2.5769699097e+01
    1.1499815369e+02    2.5822698593e+01
    1.1509851837e+02    2.5875698090e+01
    1.1519860077e+02    2.5928400040e+01
    1.1529863739e+02    2.5980901718e+01
    1.1539862061e+02    2.6033102036e+01
    1.1549854279e+02    2.6085300446e+01
    1.1559774780e+02    2.6136699677e+01
    1.1569737244e+02    2.6188201904e+01
    1.1579863739e+02    2.6240398407e+01
    1.1589833832e+02    2.6291500092e+01
    1.1599809265e+02    2.6342601776e+01
    1.1609742737e+02    2.6393098831e+01
    1.1619766235e+02    2.6443998337e+01
    1.1629746246e+02    2.6494400024e+01
    1.1639727783e+02    2.6544799805e+01
    1.1649874878e+02    2.6595798492e+01
    1.1659828186e+02    2.6645599365e+01
    1.1669835663e+02    2.6695600510e+01
    1.1679872894e+02    2.6745599747e+01
    1.1689813232e+02    2.6794898987e+01
    1.1699812317e+02    2.6844398499e+01
    1.1709803772e+02    2.6893602371e+01
    1.1719789886e+02    2.6942598343e+01
    1.1729772186e+02    2.6991397858e+01
    1.1739749146e+02    2.7039899826e+01
    1.1749807739e+02    2.7088800430e+01
    1.1759757233e+02    2.7136800766e+01
    1.1769866943e+02    2.7185499191e+01
    1.1779818726e+02    2.7233299255e+01
    1.1789737701e+02    2.7280700684e+01
    1.1799870300e+02    2.7328798294e+01
    1.1809850311e+02    2.7376197815e+01
    1.1819811249e+02    2.7423200607e+01
    1.1829779816e+02    2.7470199585e+01
    1.1839755249e+02    2.7517000198e+01
    1.1849736786e+02    2.7563699722e+01
    1.1859726715e+02    2.7610300064e+01
    1.1869722748e+02    2.7656799316e+01
    1.1879788971e+02    2.7703498840e+01
    1.1889816284e+02    2.7749898911e+01
    1.1899844360e+02    2.7796197891e+01
    1.1909870911e+02    2.7842298508e+01
    1.1919743347e+02    2.7887601852e+01
    1.1929763031e+02    2.7933399200e+01
    1.1939778137e+02    2.7979200363e+01
    1.1949787140e+02    2.8024700165e+01
    1.1959718323e+02    2.8069698334e+01
    1.1969860840e+02    2.8115598679e+01
    1.1979844666e+02    2.8160499573e+01
    1.1989830780e+02    2.8205398560e+01
    1.1999819946e+02    2.8250099182e+01
    1.2009810638e+02    2.8317899704e+01
    1.2019803619e+02    2.8385999680e+01
    1.2029746246e+02    2.8453599930e+01
    1.2039837646e+02    2.8522100449e+01
    1.2049838257e+02    2.8590002060e+01
    1.2059731293e+02    2.8656799316e+01
    1.2069747925e+02    2.8724502563e+01
    1.2079750824e+02    2.8792100906e+01
    1.2089788055e+02    2.8859601974e+01
    1.2099810791e+02    2.8926998138e+01
    1.2109828949e+02    2.8994201660e+01
    1.2119840240e+02    2.9061201096e+01
    1.2129788971e+02    2.9127698898e+01
    1.2139817047e+02    2.9194599152e+01
    1.2149790955e+02    2.9260898590e+01
    1.2159729004e+02    2.9326799393e+01
    1.2169869995e+02    2.9393798828e+01
    1.2179850769e+02    2.9459701538e+01
    1.2189823914e+02    2.9525300980e+01
    1.2199845123e+02    2.9590999603e+01
    1.2209786987e+02    2.9655998230e+01
    1.2219731903e+02    2.9720802307e+01
    1.2229843140e+02    2.9786500931e+01
    1.2239797974e+02    2.9850898743e+01
    1.2249756622e+02    2.9915201187e+01
    1.2259719849e+02    2.9979501724e+01
    1.2269846344e+02    3.0044601440e+01
    1.2279811096e+02    3.0108398438e+01
    1.2289813995e+02    3.0172397614e+01
    1.2299794769e+02    3.0236101151e+01
    1.2309818268e+02    3.0299798965e+01
    1.2319792175e+02    3.0362998962e+01
    1.2329759979e+02    3.0425998688e+01
    1.2339721680e+02    3.0488700867e+01
    1.2349726105e+02    3.0551500320e+01
    1.2359774017e+02    3.0614198685e+01
    1.2369730377e+02    3.0676200867e+01
    1.2379833984e+02    3.0738800049e+01
    1.2389852142e+02    3.0800802231e+01
    1.2399794006e+02    3.0861801147e+01
    1.2409837341e+02    3.0923400879e+01
    1.2419815826e+02    3.0984298706e+01
    1.2429711914e+02    3.1044401169e+01
    1.2439836121e+02    3.1105697632e+01
    1.2449759674e+02    3.1165599823e+01
    1.2459809875e+02    3.1226099014e+01
    1.2469780731e+02    3.1285902023e+01
    1.2479802704e+02    3.1345800400e+01
    1.2489716339e+02    3.1404798508e+01
    1.2499838257e+02    3.1464799881e+01
    1.2509752655e+02    3.1523498535e+01
    1.2519734955e+02    3.1582302094e+01
    1.2529862213e+02    3.1641698837e+01
    1.2539830780e+02    3.1699998856e+01
    1.2549793243e+02    3.1757999420e+01
    1.2559748840e+02    3.1815601349e+01
    1.2569809723e+02    3.1873600006e+01
    1.2579741669e+02    3.1930698395e+01
    1.2589839172e+02    3.1988399506e+01
    1.2599781036e+02    3.2044998169e+01
    1.2609860229e+02    3.2102001190e+01
    1.2619831085e+02    3.2158199310e+01
    1.2629731750e+02    3.2213798523e+01
    1.2639843750e+02    3.2270301819e+01
    1.2649800873e+02    3.2325698853e+01
    1.2659857941e+02    3.2381500244e+01
    1.2669841766e+02    3.2436698914e+01
    1.2679750061e+02    3.2491203308e+01
    1.2689707184e+02    3.2545799255e+01
    1.2699855804e+02    3.2601196289e+01
    1.2709826660e+02    3.2655498505e+01
    1.2719792938e+02    3.2709396362e+01
    1.2729753876e+02    3.2763099670e+01
    1.2739856720e+02    3.2817398071e+01
    1.2749803925e+02    3.2870498657e+01
    1.2759748077e+02    3.2923400879e+01
    1.2769715118e+02    3.2976196289e+01
    1.2779794312e+02    3.3029300690e+01
    1.2789859772e+02    3.3082099915e+01
    1.2799804688e+02    3.3134101868e+01
    1.2809729004e+02    3.3185501099e+01
    1.2819816589e+02    3.3237701416e+01
    1.2829751587e+02    3.3288894653e+01
    1.2839854431e+02    3.3340705872e+01
    1.2849806213e+02    3.3391399384e+01
    1.2859768677e+02    3.3442100525e+01
    1.2869737244e+02    3.3492599487e+01
    1.2879791260e+02    3.3543395996e+01
    1.2889794922e+02    3.3593704224e+01
    1.2899801636e+02    3.3643898010e+01
    1.2909805298e+02    3.3693901062e+01
    1.2919807434e+02    3.3743698120e+01
    1.2929803467e+02    3.3793201447e+01
    1.2939791870e+02    3.3842601776e+01
    1.2949772644e+02    3.3891700745e+01
    1.2959745789e+02    3.3940597534e+01
    1.2969772339e+02    3.3989498138e+01
    1.2979719543e+02    3.4037902832e+01
    1.2989828491e+02    3.4086803436e+01
    1.2999778748e+02    3.4134796143e+01
    1.3009729004e+02    3.4207500458e+01
    1.3019845581e+02    3.4281799316e+01
    1.3029803467e+02    3.4354797363e+01
    1.3039767456e+02    3.4427597046e+01
    1.3049737549e+02    3.4500301361e+01
    1.3059793091e+02    3.4573402405e+01
    1.3069831848e+02    3.4646198273e+01
    1.3079812622e+02    3.4718502045e+01
    1.3089779663e+02    3.4790596008e+01
    1.3099781799e+02    3.4862598419e+01
    1.3109779358e+02    3.4934497833e+01
    1.3119770813e+02    3.5006000519e+01
    1.3129783630e+02    3.5077697754e+01
    1.3139874268e+02    3.5149604797e+01
    1.3149824524e+02    3.5220401764e+01
    1.3159841919e+02    3.5291400909e+01
    1.3169802856e+02    3.5361698151e+01
    1.3179753113e+02    3.5431800842e+01
    1.3189843750e+02    3.5502502441e+01
    1.3199801636e+02    3.5572101593e+01
    1.3209866333e+02    3.5642101288e+01
    1.3219776917e+02    3.5710800171e+01
    1.3229852295e+02    3.5780303955e+01
    1.3239776611e+02    3.5848598480e+01
    1.3249865723e+02    3.5917800903e+01
    1.3259802246e+02    3.5985595703e+01
    1.3269741821e+02    3.6053199768e+01
    1.3279843140e+02    3.6121799469e+01
    1.3289776611e+02    3.6189002991e+01
    1.3299734497e+02    3.6256099701e+01
    1.3309744263e+02    3.6323299408e+01
    1.3319845581e+02    3.6390903473e+01
    1.3329789734e+02    3.6457202911e+01
    1.3339875793e+02    3.6524097443e+01
    1.3349804688e+02    3.6589702606e+01
    1.3359878540e+02    3.6655899048e+01
    1.3369798279e+02    3.6720901489e+01
    1.3379864502e+02    3.6786403656e+01
    1.3389779663e+02    3.6850601196e+01
    1.3399839783e+02    3.6915500641e+01
    1.3409788513e+02    3.6979198456e+01
    1.3419876099e+02    3.7043601990e+01
    1.3429833984e+02    3.7106800079e+01
    1.3439755249e+02    3.7169498444e+01
    1.3449792480e+02    3.7232601166e+01
    1.3459765625e+02    3.7295097351e+01
    1.3469857788e+02    3.7358001709e+01
    1.3479898071e+02    3.7420204163e+01
    1.3489746094e+02    3.7481002808e+01
    1.3499833679e+02    3.7542999268e+01
    1.3509762573e+02    3.7603702545e+01
    1.3519865417e+02    3.7665203094e+01
    1.3529809570e+02    3.7725502014e+01
    1.3539900208e+02    3.7786300659e+01
    1.3549830627e+02    3.7845901489e+01
    1.3559901428e+02    3.7905899048e+01
    1.3569825745e+02    3.7964702606e+01
    1.3579881287e+02    3.8024002075e+01
    1.3589782715e+02    3.8082000732e+01
    1.3599882507e+02    3.8140796661e+01
    1.3609780884e+02    3.8198001862e+01
    1.3619860840e+02    3.8256099701e+01
    1.3629872131e+02    3.8313301086e+01
    1.3639782715e+02    3.8369697571e+01
    1.3649859619e+02    3.8426601410e+01
    1.3659780884e+02    3.8482498169e+01
    1.3669842529e+02    3.8538700104e+01
    1.3679768372e+02    3.8594001770e+01
    1.3689859009e+02    3.8649898529e+01
    1.3699830627e+02    3.8704803467e+01
    1.3709779358e+02    3.8759403229e+01
    1.3719877625e+02    3.8814395905e+01
    1.3729818726e+02    3.8868396759e+01
    1.3739898682e+02    3.8922801971e+01
    1.3749821472e+02    3.8975997925e+01
    1.3759890747e+02    3.9029697418e+01
    1.3769900513e+02    3.9082801819e+01
    1.3779789734e+02    3.9134895325e+01
    1.3789869690e+02    3.9187702179e+01
    1.3799778748e+02    3.9239299774e+01
    1.3809777832e+02    3.9291000366e+01
    1.3819825745e+02    3.9342601776e+01
    1.3829881287e+02    3.9393901825e+01
    1.3839785767e+02    3.9444202423e+01
    1.3849859619e+02    3.9495098114e+01
    1.3859786987e+02    3.9544902802e+01
    1.3869885254e+02    3.9595294952e+01
    1.3879890442e+02    3.9645004272e+01
    1.3889868164e+02    3.9694297791e+01
    1.3899847412e+02    3.9743301392e+01
    1.3909825134e+02    3.9792198181e+01
    1.3919912720e+02    3.9841304779e+01
    1.3929815674e+02    3.9889301300e+01
    1.3939779663e+02    3.9937297821e+01
    1.3949882507e+02    3.9985801697e+01
    1.3959825134e+02    4.0033203125e+01
    1.3969923401e+02    4.0081104279e+01
    1.3979832458e+02    4.0127799988e+01
    1.3989828491e+02    4.0174602509e+01
    1.3999815369e+02    4.0221199036e+01
    1.4009883118e+02    4.0292400360e+01
    1.4019793701e+02    4.0362701416e+01
    1.4029869080e+02    4.0433799744e+01
    1.4039790344e+02    4.0503601074e+01
    1.4049880981e+02    4.0574398041e+01
    1.4059927368e+02    4.0644500732e+01
    1.4069894409e+02    4.0713901520e+01
    1.4079841614e+02    4.0782794952e+01
    1.4089863586e+02    4.0852096558e+01
    1.4099836731e+02    4.0920803070e+01
    1.4109806824e+02    4.0989204407e+01
    1.4119786072e+02    4.1057399750e+01
    1.4129887390e+02    4.1126201630e+01
    1.4139828491e+02    4.1193698883e+01
    1.4149916077e+02    4.1261795044e+01
    1.4159887695e+02    4.1328895569e+01
    1.4169822693e+02    4.1395401001e+01
    1.4179895020e+02    4.1462600708e+01
    1.4189804077e+02    4.1528301239e+01
    1.4199853516e+02    4.1594596863e+01
    1.4209884644e+02    4.1660503387e+01
    1.4219917297e+02    4.1726001740e+01
    1.4229794312e+02    4.1790100098e+01
    1.4239839172e+02    4.1855003357e+01
    1.4249891663e+02    4.1919498444e+01
    1.4259791565e+02    4.1982803345e+01
    1.4269854736e+02    4.2046802521e+01
    1.4279920959e+02    4.2110504150e+01
    1.4289848328e+02    4.2173099518e+01
    1.4299862671e+02    4.2235801697e+01
    1.4309934998e+02    4.2298801422e+01
    1.4319859314e+02    4.2360401154e+01
    1.4329930115e+02    4.2422401428e+01
    1.4339839172e+02    4.2483303070e+01
    1.4349890137e+02    4.2544597626e+01
    1.4359933472e+02    4.2605400085e+01
    1.4369821167e+02    4.2664997101e+01
    1.4379852295e+02    4.2724903107e+01
    1.4389805603e+02    4.2784099579e+01
    1.4399826050e+02    4.2843097687e+01
    1.4409875488e+02    4.2902099609e+01
    1.4419917297e+02    4.2960502625e+01
    1.4429875183e+02    4.3017898560e+01
    1.4439907837e+02    4.3075504303e+01
    1.4449894714e+02    4.3132400513e+01
    1.4459950256e+02    4.3189201355e+01
    1.4469831848e+02    4.3244701385e+01
    1.4479878235e+02    4.3300697327e+01
    1.4489920044e+02    4.3356201172e+01
    1.4499963379e+02    4.3411495209e+01
    1.4509945679e+02    4.3466003418e+01
    1.4519860840e+02    4.3519702911e+01
    1.4529924011e+02    4.3574005127e+01
    1.4539834595e+02    4.3626998901e+01
    1.4549887085e+02    4.3680400848e+01
    1.4559930420e+02    4.3733303070e+01
    1.4569920349e+02    4.3785499573e+01
    1.4579946899e+02    4.3837497711e+01
    1.4589816284e+02    4.3888198853e+01
    1.4599911499e+02    4.3939701080e+01
    1.4609951782e+02    4.3990497589e+01
    1.4619841003e+02    4.4040004730e+01
    1.4629905701e+02    4.4089996338e+01
    1.4639930725e+02    4.4139404297e+01
    1.4649961853e+02    4.4188400269e+01
    1.4659840393e+02    4.4236400604e+01
    1.4669885254e+02    4.4284603119e+01
    1.4679937744e+02    4.4332599640e+01
    1.4689836121e+02    4.4379501343e+01
    1.4699847412e+02    4.4426502228e+01
    1.4709924316e+02    4.4473602295e+01
    1.4719940186e+02    4.4520000458e+01
    1.4729922485e+02    4.4565799713e+01
    1.4739837646e+02    4.4611099243e+01
    1.4749894714e+02    4.4656600952e+01
    1.4759947205e+02    4.4701805115e+01
    1.4769845581e+02    4.4745998383e+01
    1.4779876709e+02    4.4790298462e+01
    1.4789859009e+02    4.4833904266e+01
    1.4799894714e+02    4.4877601624e+01
    1.4809941101e+02    4.4920803070e+01
    1.4819955444e+02    4.4963504791e+01
    1.4829977417e+02    4.5005802155e+01
    1.4839848328e+02    4.5047096252e+01
    1.4849884033e+02    4.5088703156e+01
    1.4859930420e+02    4.5130104065e+01
    1.4869830322e+02    4.5170200348e+01
    1.4879846191e+02    4.5210601807e+01
    1.4889938354e+02    4.5251502991e+01
    1.4899882507e+02    4.5291297913e+01
    1.4909979248e+02    4.5330596924e+01
    1.4919975281e+02    4.5369998932e+01
    1.4929914856e+02    4.5409000397e+01
    1.4939851379e+02    4.5446704865e+01
    1.4949926758e+02    4.5486003876e+01
    1.4959843445e+02    4.5523399353e+01
    1.4969902039e+02    4.5561298370e+01
    1.4979867554e+02    4.5598300934e+01
    1.4989886475e+02    4.5635101318e+01
    1.4999931335e+02    4.5672103882e+01
    1.5009977722e+02    4.5731800079e+01
    1.5019847107e+02    4.5790897369e+01
    1.5029879761e+02    4.5850997925e+01
    1.5039918518e+02    4.5909702301e+01
    1.5049966431e+02    4.5968898773e+01
    1.5059939575e+02    4.6026901245e+01
    1.5069918823e+02    4.6085498810e+01
    1.5079981995e+02    4.6143501282e+01
    1.5089997864e+02    4.6200798035e+01
    1.5099931335e+02    4.6257099152e+01
    1.5109934998e+02    4.6313995361e+01
    1.5119996643e+02    4.6370700836e+01
    1.5129995728e+02    4.6427001953e+01
    1.5139897156e+02    4.6482498169e+01
    1.5149957275e+02    4.6538204193e+01
    1.5159933472e+02    4.6592899323e+01
    1.5169995117e+02    4.6647800446e+01
    1.5179896545e+02    4.6701999664e+01
    1.5189933777e+02    4.6755603790e+01
    1.5199894714e+02    4.6808998108e+01
    1.5209901428e+02    4.6862201691e+01
    1.5219906616e+02    4.6915096283e+01
    1.5229910278e+02    4.6967601776e+01
    1.5239918518e+02    4.7019496918e+01
    1.5249934387e+02    4.7070999146e+01
    1.5259996033e+02    4.7122203827e+01
    1.5269964600e+02    4.7172599792e+01
    1.5279988098e+02    4.7222702026e+01
    1.5289854431e+02    4.7271999359e+01
    1.5299879456e+02    4.7322303772e+01
    1.5309999084e+02    4.7371597290e+01
    1.5319888306e+02    4.7419403076e+01
    1.5329927063e+02    4.7468196869e+01
    1.5339959717e+02    4.7515701294e+01
    1.5349984741e+02    4.7563995361e+01
    1.5360000610e+02    4.7610900879e+01
    1.5370013428e+02    4.7657402039e+01
    1.5379870605e+02    4.7703102112e+01
    1.5389900208e+02    4.7748397827e+01
    1.5399894714e+02    4.7793899536e+01
    1.5409877014e+02    4.7838096619e+01
    1.5419885254e+02    4.7882301331e+01
    1.5430000305e+02    4.7926303864e+01
    1.5439991760e+02    4.7969902039e+01
    1.5449903870e+02    4.8012405396e+01
    1.5459910583e+02    4.8054695129e+01
    1.5469914246e+02    4.8095603943e+01
    1.5479963684e+02    4.8137298584e+01
    1.5489950562e+02    4.8178504944e+01
    1.5499943542e+02    4.8218200684e+01
    1.5509944153e+02    4.8258300781e+01
    1.5519898987e+02    4.8297698975e+01
    1.5529997253e+02    4.8337196350e+01
    1.5539918518e+02    4.8375297546e+01
    1.5549945068e+02    4.8413101196e+01
    1.5559965515e+02    4.8450599670e+01
    1.5570025635e+02    4.8488899231e+01
    1.5580029297e+02    4.8524803162e+01
    1.5589877319e+02    4.8560897827e+01
    1.5600025940e+02    4.8597198486e+01
    1.5609890747e+02    4.8632202148e+01
    1.5619900513e+02    4.8666999817e+01
    1.5629908752e+02    4.8701499939e+01
    1.5639903259e+02    4.8734603882e+01
    1.5649899292e+02    4.8768394470e+01
    1.5659899902e+02    4.8801498413e+01
    1.5669908142e+02    4.8834098816e+01
    1.5679924011e+02    4.8866096497e+01
    1.5689950562e+02    4.8897506714e+01
    1.5699934387e+02    4.8929298401e+01
    1.5710032654e+02    4.8959503174e+01
    1.5719912720e+02    4.8990402222e+01
    1.5729968262e+02    4.9020599365e+01
    1.5740020752e+02    4.9050598145e+01
    1.5749914551e+02    4.9079101562e+01
    1.5759956360e+02    4.9108497620e+01
    1.5769993591e+02    4.9136604309e+01
    1.5779942322e+02    4.9165000916e+01
    1.5789971924e+02    4.9192398071e+01
    1.5799995422e+02    4.9220603943e+01
    1.5809956360e+02    4.9247497559e+01
    1.5819956970e+02    4.9273292542e+01
    1.5829960632e+02    4.9299598694e+01
    1.5839968872e+02    4.9325401306e+01
    1.5849981689e+02    4.9350700378e+01
    1.5860000610e+02    4.9375503540e+01
    1.5870027161e+02    4.9400695801e+01
    1.5880015564e+02    4.9424301147e+01
    1.5889923096e+02    4.9448097229e+01
    1.5899980164e+02    4.9471603394e+01
    1.5910035706e+02    4.9494697571e+01
    1.5919900513e+02    4.9517204285e+01
    1.5929942322e+02    4.9538894653e+01
    1.5939929199e+02    4.9561302185e+01
    1.5949974060e+02    4.9583305359e+01
    1.5960011292e+02    4.9603996277e+01
    1.5970042419e+02    4.9625404358e+01
    1.5980018616e+02    4.9645599365e+01
    1.5990005493e+02    4.9665100098e+01
    1.6000022888e+02    4.9685699463e+01
    1.6009919739e+02    4.9726196289e+01
    1.6019912720e+02    4.9766494751e+01
    1.6029908752e+02    4.9807296753e+01
    1.6039910889e+02    4.9847602844e+01
    1.6049917603e+02    4.9887306213e+01
    1.6059915161e+02    4.9925903320e+01
    1.6069943237e+02    4.9965400696e+01
    1.6079946899e+02    5.0002998352e+01
    1.6089927673e+02    5.0040596008e+01
    1.6099958801e+02    5.0078796387e+01
    1.6110003662e+02    5.0116294861e+01
    1.6120013428e+02    5.0153205872e+01
    1.6130024719e+02    5.0188598633e+01
    1.6140043640e+02    5.0225502014e+01
    1.6150065613e+02    5.0260803223e+01
    1.6159942627e+02    5.0295791626e+01
    1.6169978333e+02    5.0330101013e+01
    1.6180007935e+02    5.0364204407e+01
    1.6190029907e+02    5.0399002075e+01
    1.6200051880e+02    5.0432395935e+01
    1.6210043335e+02    5.0464897156e+01
    1.6220031738e+02    5.0498100281e+01
    1.6230015564e+02    5.0529998779e+01
    1.6239999390e+02    5.0561302185e+01
    1.6249986267e+02    5.0593208313e+01
    1.6259930420e+02    5.0623497009e+01
    1.6269935608e+02    5.0654106140e+01
    1.6279985046e+02    5.0684303284e+01
    1.6289970398e+02    5.0713401794e+01
    1.6299955750e+02    5.0742004395e+01
    1.6309941101e+02    5.0771194458e+01
    1.6319981384e+02    5.0798805237e+01
    1.6329983521e+02    5.0826690674e+01
    1.6339987183e+02    5.0854202271e+01
    1.6349986267e+02    5.0880195618e+01
    1.6359982300e+02    5.0906906128e+01
    1.6369973755e+02    5.0933197021e+01
    1.6379962158e+02    5.0958099365e+01
    1.6389929199e+02    5.0982994080e+01
    1.6400065613e+02    5.1007690430e+01
    1.6410052490e+02    5.1031295776e+01
    1.6420043945e+02    5.1055198669e+01
    1.6429942322e+02    5.1077598572e+01
    1.6440066528e+02    5.1099609375e+01
    1.6450042725e+02    5.1122299194e+01
    1.6460017395e+02    5.1143592834e+01
    1.6469987488e+02    5.1164398193e+01
    1.6480012512e+02    5.1184501648e+01
    1.6489959717e+02    5.1203895569e+01
    1.6500065613e+02    5.1224189758e+01
    1.6510021973e+02    5.1242301941e+01
    1.6519970703e+02    5.1261100769e+01
    1.6529983521e+02    5.1279006958e+01
    1.6540072632e+02    5.1295707703e+01
    1.6550067139e+02    5.1312995911e+01
    1.6560058594e+02    5.1328994751e+01
    1.6570019531e+02    5.1345092773e+01
    1.6580000305e+02    5.1360397339e+01
    1.6589987183e+02    5.1376098633e+01
    1.6600013733e+02    5.1390396118e+01
    1.6610011292e+02    5.1404899597e+01
    1.6620004272e+02    5.1417999268e+01
    1.6629995728e+02    5.1431701660e+01
    1.6640086365e+02    5.1443702698e+01
    1.6650065613e+02    5.1456794739e+01
    1.6660049438e+02    5.1468292236e+01
    1.6670036316e+02    5.1479393005e+01
    1.6680029297e+02    5.1490798950e+01
    1.6690032959e+02    5.1501609802e+01
    1.6700076294e+02    5.1511100769e+01
    1.6710057068e+02    5.1521507263e+01
    1.6720074463e+02    5.1530799866e+01
    1.6730024719e+02    5.1539100647e+01
    1.6740055847e+02    5.1547294617e+01
    1.6750079346e+02    5.1556297302e+01
    1.6759953308e+02    5.1563400269e+01
    1.6769953918e+02    5.1571090698e+01
    1.6780090332e+02    5.1578407288e+01
    1.6789959717e+02    5.1585403442e+01
    1.6800062561e+02    5.1591697693e+01
    1.6810060120e+02    5.1597000122e+01
    1.6820057678e+02    5.1603004456e+01
    1.6830056763e+02    5.1608596802e+01
    1.6840060425e+02    5.1612594604e+01
    1.6850028992e+02    5.1617095947e+01
    1.6860011292e+02    5.1621902466e+01
    1.6870019531e+02    5.1624702454e+01
    1.6880055237e+02    5.1628395081e+01
    1.6890081787e+02    5.1631004333e+01
    1.6900103760e+02    5.1633293152e+01
    1.6909970093e+02    5.1635894775e+01
    1.6920062256e+02    5.1637802124e+01
    1.6930059814e+02    5.1638504028e+01
    1.6940103149e+02    5.1639701843e+01
    1.6950102234e+02    5.1640609741e+01
    1.6960066223e+02    5.1640907288e+01
    1.6970060730e+02    5.1640106201e+01
    1.6980050659e+02    5.1640098572e+01
    1.6990025330e+02    5.1638999939e+01
    1.7000094604e+02    5.1637191772e+01
    1.7010078430e+02    5.1656105042e+01
    1.7020089722e+02    5.1673904419e+01
    1.7030055237e+02    5.1691505432e+01
    1.7040023804e+02    5.1708496094e+01
    1.7049996948e+02    5.1726005554e+01
    1.7059971619e+02    5.1741996765e+01
    1.7070010376e+02    5.1758094788e+01
    1.7080085754e+02    5.1773803711e+01
    1.7090109253e+02    5.1789291382e+01
    1.7100088501e+02    5.1803497314e+01
    1.7110058594e+02    5.1818489075e+01
    1.7120095825e+02    5.1832298279e+01
    1.7130053711e+02    5.1844703674e+01
    1.7140017700e+02    5.1858505249e+01
    1.7149992371e+02    5.1870605469e+01
    1.7160124207e+02    5.1881996155e+01
    1.7170121765e+02    5.1894004822e+01
    1.7180119324e+02    5.1904998779e+01
    1.7190115356e+02    5.1915992737e+01
    1.7200105286e+02    5.1927009583e+01
    1.7210096741e+02    5.1937004089e+01
    1.7220066833e+02    5.1946006775e+01
    1.7230036926e+02    5.1954994202e+01
    1.7240005493e+02    5.1963996887e+01
    1.7250131226e+02    5.1973007202e+01
    1.7260099792e+02    5.1979995728e+01
    1.7270042419e+02    5.1987007141e+01
    1.7280094910e+02    5.1995002747e+01
    1.7290054321e+02    5.2001007080e+01
    1.7300013733e+02    5.2006996155e+01
    1.7310130310e+02    5.2012992859e+01
    1.7320066833e+02    5.2018005371e+01
    1.7330029297e+02    5.2022994995e+01
    1.7339997864e+02    5.2027000427e+01
    1.7350126648e+02    5.2030990601e+01
    1.7360104370e+02    5.2033996582e+01
    1.7370082092e+02    5.2038009644e+01
    1.7380056763e+02    5.2039993286e+01
    1.7390046692e+02    5.2042007446e+01
    1.7400010681e+02    5.2043998718e+01
    1.7410105896e+02    5.2045005798e+01
    1.7420089722e+02    5.2045997620e+01
    1.7430119324e+02    5.2046005249e+01
    1.7440078735e+02    5.2046005249e+01
    1.7450083923e+02    5.2046005249e+01
    1.7460049438e+02    5.2045005798e+01
    1.7470010376e+02    5.2042991638e+01
    1.7480111694e+02    5.2041999817e+01
    1.7490075684e+02    5.2039001465e+01
    1.7500004578e+02    5.2035995483e+01
    1.7510095215e+02    5.2033004761e+01
    1.7520071411e+02    5.2028999329e+01
    1.7530026245e+02    5.2025009155e+01
    1.7540046692e+02    5.2020004272e+01
    1.7550091553e+02    5.2015007019e+01
    1.7560054016e+02    5.2008995056e+01
    1.7570124817e+02    5.2004005432e+01
    1.7580075073e+02    5.1998008728e+01
    1.7590032959e+02    5.1990997314e+01
    1.7600041199e+02    5.1983009338e+01
    1.7610017395e+02    5.1975997925e+01
    1.7620140076e+02    5.1968002319e+01
    1.7630114746e+02    5.1959007263e+01
    1.7640034485e+02    5.1951004028e+01
    1.7650001526e+02    5.1941009521e+01
    1.7660075378e+02    5.1931999207e+01
    1.7670155334e+02    5.1920997620e+01
    1.7680137634e+02    5.1912010193e+01
    1.7690121460e+02    5.1899993896e+01
    1.7700111389e+02    5.1889007568e+01
    1.7710104370e+02    5.1878005981e+01
    1.7720054626e+02    5.1867004395e+01
    1.7730064392e+02    5.1854003906e+01
    1.7740068054e+02    5.1841995239e+01
    1.7750062561e+02    5.1828994751e+01
    1.7760052490e+02    5.1816001892e+01
    1.7770046997e+02    5.1803001404e+01
    1.7780152893e+02    5.1787994385e+01
    1.7790144348e+02    5.1774002075e+01
    1.7800102234e+02    5.1758995056e+01
    1.7810079956e+02    5.1745002747e+01
    1.7820062256e+02    5.1728996277e+01
    1.7830050659e+02    5.1714004517e+01
    1.7840043640e+02    5.1698997498e+01
    1.7850041199e+02    5.1681991577e+01
    1.7860023499e+02    5.1665000916e+01
    1.7870126343e+02    5.1649002075e+01
    1.7880137634e+02    5.1630996704e+01
    1.7890141296e+02    5.1613006592e+01
    1.7900135803e+02    5.1596000671e+01
    1.7910119629e+02    5.1577995300e+01
    1.7920065308e+02    5.1558998108e+01
    1.7930116272e+02    5.1540000916e+01
    1.7940080261e+02    5.1520996094e+01
    1.7950059509e+02    5.1500999451e+01
    1.7960156250e+02    5.1480995178e+01
    1.7970164490e+02    5.1459991455e+01
    1.7980116272e+02    5.1439994812e+01
    1.7990046692e+02    5.1417991638e+01
    1.8000042725e+02    5.1397003174e+01
    1.8010139465e+02    5.1392005920e+01
    1.8020178223e+02    5.1387001038e+01
    1.8030107117e+02    5.1380996704e+01
    1.8040037537e+02    5.1375991821e+01
    1.8050131226e+02    5.1369995117e+01
    1.8060069275e+02    5.1362998962e+01
    1.8070162964e+02    5.1355995178e+01
    1.8080166626e+02    5.1348007202e+01
    1.8090104675e+02    5.1340995789e+01
    1.8100044250e+02    5.1332992554e+01
    1.8110122681e+02    5.1324005127e+01
    1.8120103455e+02    5.1314994812e+01
    1.8130175781e+02    5.1305999756e+01
    1.8140097046e+02    5.1295005798e+01
    1.8150184631e+02    5.1285003662e+01
    1.8160069275e+02    5.1273994446e+01
    1.8170173645e+02    5.1262992859e+01
    1.8180131531e+02    5.1252006531e+01
    1.8190089417e+02    5.1240005493e+01
    1.8200047302e+02    5.1226989746e+01
    1.8210104370e+02    5.1214004517e+01
    1.8220051575e+02    5.1201004028e+01
    1.8230157471e+02    5.1187988281e+01
    1.8240109253e+02    5.1175003052e+01
    1.8250117493e+02    5.1160003662e+01
    1.8260070801e+02    5.1145996094e+01
    1.8270187378e+02    5.1130004883e+01
    1.8280120850e+02    5.1115997314e+01
    1.8290124512e+02    5.1099990845e+01
    1.8300152588e+02    5.1083999634e+01
    1.8310101318e+02    5.1068008423e+01
    1.8320051575e+02    5.1051986694e+01
    1.8330163574e+02    5.1034011841e+01
    1.8340150452e+02    5.1016998291e+01
    1.8350120544e+02    5.0998992920e+01
    1.8360087585e+02    5.0981002808e+01
    1.8370051575e+02    5.0963012695e+01
    1.8380162048e+02    5.0944000244e+01
    1.8390081787e+02    5.0925994873e+01
    1.8400189209e+02    5.0904998779e+01
    1.8410098267e+02    5.0886001587e+01
    1.8420069885e+02    5.0865997314e+01
    1.8430099487e+02    5.0845001221e+01
    1.8440051270e+02    5.0824996948e+01
    1.8450160217e+02    5.0802993774e+01
    1.8460110474e+02    5.0781997681e+01
    1.8470137024e+02    5.0759994507e+01
    1.8480093384e+02    5.0737991333e+01
    1.8490191650e+02    5.0714996338e+01
    1.8500114441e+02    5.0692001343e+01
    1.8510061646e+02    5.0668991089e+01
    1.8520150757e+02    5.0644989014e+01
    1.8530085754e+02    5.0621994019e+01
    1.8540155029e+02    5.0597000122e+01
    1.8550123596e+02    5.0572998047e+01
    1.8560203552e+02    5.0548004150e+01
    1.8570106506e+02    5.0522003174e+01
    1.8580180359e+02    5.0496994019e+01
    1.8590103149e+02    5.0470993042e+01
    1.8600187683e+02    5.0444000244e+01
    1.8610116577e+02    5.0417007446e+01
    1.8620164490e+02    5.0389999390e+01
    1.8630113220e+02    5.0363006592e+01
    1.8640101624e+02    5.0334991455e+01
    1.8650201416e+02    5.0307006836e+01
    1.8660150146e+02    5.0279006958e+01
    1.8670106506e+02    5.0250000000e+01
    1.8680172729e+02    5.0220993042e+01
    1.8690151978e+02    5.0191986084e+01
    1.8700201416e+02    5.0162002563e+01
    1.8710168457e+02    5.0132003784e+01
    1.8720118713e+02    5.0102005005e+01
    1.8730099487e+02    5.0072006226e+01
    1.8740220642e+02    5.0041000366e+01
    1.8750181580e+02    5.0009994507e+01
    1.8760134888e+02    4.9979003906e+01
    1.8770118713e+02    4.9947998047e+01
    1.8780154419e+02    4.9916000366e+01
    1.8790106201e+02    4.9884002686e+01
    1.8800163269e+02    4.9851013184e+01
    1.8810102844e+02    4.9819000244e+01
    1.8820205688e+02    4.9785995483e+01
    1.8830162048e+02    4.9753997803e+01
    1.8840126038e+02    4.9720001221e+01
    1.8850097656e+02    4.9686996460e+01
    1.8860227966e+02    4.9652999878e+01
    1.8870123291e+02    4.9617996216e+01
    1.8880165100e+02    4.9585006714e+01
    1.8890144348e+02    4.9549987793e+01
    1.8900111389e+02    4.9514999390e+01
    1.8910215759e+02    4.9480010986e+01
    1.8920159912e+02    4.9444992065e+01
    1.8930096436e+02    4.9410003662e+01
    1.8940170288e+02    4.9374008179e+01
    1.8950140381e+02    4.9337997437e+01
    1.8960200500e+02    4.9300994873e+01
    1.8970190430e+02    4.9264999390e+01
    1.8980111694e+02    4.9229003906e+01
    1.8990179443e+02    4.9190994263e+01
    1.9000099182e+02    4.9154006958e+01
    1.9010165405e+02    4.9130996704e+01
    1.9020227051e+02    4.9106994629e+01
    1.9030105591e+02    4.9083999634e+01
    1.9040156555e+02    4.9059997559e+01
    1.9050210571e+02    4.9035003662e+01
    1.9060112000e+02    4.9011993408e+01
    1.9070172119e+02    4.8986999512e+01
    1.9080233765e+02    4.8961013794e+01
    1.9090138245e+02    4.8936004639e+01
    1.9100221252e+02    4.8909988403e+01
    1.9110136414e+02    4.8885009766e+01
    1.9120124817e+02    4.8858993530e+01
    1.9130226135e+02    4.8832000732e+01
    1.9140130615e+02    4.8804992676e+01
    1.9150198364e+02    4.8777999878e+01
    1.9160215759e+02    4.8751007080e+01
    1.9170144653e+02    4.8723007202e+01
    1.9180220032e+02    4.8694992065e+01
    1.9190150452e+02    4.8667007446e+01
    1.9200230408e+02    4.8639007568e+01
    1.9210130310e+02    4.8610000610e+01
    1.9220210266e+02    4.8582000732e+01
    1.9230139160e+02    4.8552993774e+01
    1.9240229797e+02    4.8522003174e+01
    1.9250166321e+02    4.8494003296e+01
    1.9260105896e+02    4.8464004517e+01
    1.9270210266e+02    4.8432998657e+01
    1.9280160522e+02    4.8404006958e+01
    1.9290133667e+02    4.8373001099e+01
    1.9300242615e+02    4.8342010498e+01
    1.9310226440e+02    4.8311996460e+01
    1.9320172119e+02    4.8281997681e+01
    1.9330122375e+02    4.8251007080e+01
    1.9340150452e+02    4.8218994141e+01
    1.9350114441e+02    4.8187988281e+01
    1.9360223389e+02    4.8156997681e+01
    1.9370178223e+02    4.8125000000e+01
    1.9380122375e+02    4.8093994141e+01
    1.9390136719e+02    4.8062011719e+01
    1.9400218201e+02    4.8029998779e+01
    1.9410147095e+02    4.7998992920e+01
    1.9420201111e+02    4.7967010498e+01
    1.9430111694e+02    4.7933990479e+01
    1.9440263367e+02    4.7901000977e+01
[...]
    2.5130525208e+02    4.6304016113e+01
    2.5140496826e+02    4.6290008545e+01
    2.5150505066e+02    4.6276000977e+01
    2.5160516357e+02    4.6261993408e+01
    2.5170469666e+02    4.6250000000e+01
    2.5180487061e+02    4.6235992432e+01
    2.5190501404e+02    4.6222991943e+01
    2.5200515747e+02    4.6210998535e+01
    2.5210531616e+02    4.6197998047e+01
    2.5220550537e+02    4.6186004639e+01
    2.5230467224e+02    4.6174011230e+01
    2.5240487671e+02    4.6161987305e+01
    2.5250512695e+02    4.6151000977e+01
    2.5260542297e+02    4.6139007568e+01
    2.5270581055e+02    4.6127990723e+01
    2.5280471802e+02    4.6115997314e+01
    2.5290512085e+02    4.6105010986e+01
    2.5300585938e+02    4.6093994141e+01
    2.5310502625e+02    4.6083007812e+01
    2.5320562744e+02    4.6072998047e+01
    2.5330619812e+02    4.6062988281e+01
    2.5340524292e+02    4.6053009033e+01
    2.5350573730e+02    4.6042022705e+01
    2.5360620117e+02    4.6031982422e+01
    2.5370498657e+02    4.6022979736e+01
    2.5380540466e+02    4.6013000488e+01
    2.5390580750e+02    4.6003021240e+01
    2.5400610352e+02    4.5993988037e+01
    2.5410522461e+02    4.5984985352e+01
    2.5420582581e+02    4.5977020264e+01
    2.5430581665e+02    4.5968017578e+01
    2.5440478516e+02    4.5959014893e+01
    2.5450532532e+02    4.5950988770e+01
    2.5460542297e+02    4.5942993164e+01
    2.5470594788e+02    4.5935028076e+01
    2.5480491638e+02    4.5927001953e+01
    2.5490530396e+02    4.5919006348e+01
    2.5500625610e+02    4.5911987305e+01
    2.5510493469e+02    4.5904998779e+01
    2.5520512390e+02    4.5897003174e+01
    2.5530526733e+02    4.5889984131e+01
    2.5540539551e+02    4.5884002686e+01
    2.5550579834e+02    4.5877014160e+01
    2.5560589600e+02    4.5869995117e+01
    2.5570591736e+02    4.5863006592e+01
    2.5580584717e+02    4.5855987549e+01
    2.5590568542e+02    4.5850006104e+01
    2.5600549316e+02    4.5843994141e+01
    2.5610525513e+02    4.5836975098e+01
    2.5620498657e+02    4.5831024170e+01
    2.5630630493e+02    4.5824005127e+01
    2.5640612793e+02    4.5817993164e+01
    2.5650598145e+02    4.5812011719e+01
    2.5660586548e+02    4.5804992676e+01
    2.5670581055e+02    4.5799987793e+01
    2.5680569458e+02    4.5792999268e+01
    2.5690582275e+02    4.5785980225e+01
    2.5700616455e+02    4.5779998779e+01
    2.5710638428e+02    4.5775024414e+01
    2.5720507812e+02    4.5768005371e+01
    2.5730578613e+02    4.5763000488e+01
    2.5740618896e+02    4.5757019043e+01
    2.5750540161e+02    4.5750976562e+01
    2.5760583496e+02    4.5746002197e+01
    2.5770581055e+02    4.5739990234e+01
    2.5780633545e+02    4.5735015869e+01
    2.5790548706e+02    4.5729980469e+01
    2.5800598145e+02    4.5723999023e+01
    2.5810650635e+02    4.5720001221e+01
    2.5820550537e+02    4.5714019775e+01
    2.5830609131e+02    4.5708984375e+01
    2.5840560913e+02    4.5703979492e+01
    2.5850628662e+02    4.5699005127e+01
    2.5860552979e+02    4.5695007324e+01
    2.5870623779e+02    4.5691009521e+01
    2.5880557251e+02    4.5684997559e+01
    2.5890524292e+02    4.5680999756e+01
    2.5900610352e+02    4.5677001953e+01
    2.5910525513e+02    4.5671997070e+01
    2.5920578003e+02    4.5667022705e+01
    2.5930630493e+02    4.5662994385e+01
    2.5940539551e+02    4.5658996582e+01
    2.5950534058e+02    4.5653991699e+01
    2.5960623169e+02    4.5649993896e+01
    2.5970553589e+02    4.5645996094e+01
    2.5980621338e+02    4.5641998291e+01
    2.5990524292e+02    4.5636993408e+01
    2.6000518799e+02    4.5632995605e+01
    2.6010644531e+02    4.5630004883e+01
    2.6020535278e+02    4.5627014160e+01
    2.6030569458e+02    4.5622985840e+01
    2.6040600586e+02    4.5619995117e+01
    2.6050625610e+02    4.5616027832e+01
    2.6060617065e+02    4.5612030029e+01
    2.6070651245e+02    4.5608001709e+01
    2.6080661011e+02    4.5605010986e+01
    2.6090661621e+02    4.5601013184e+01
    2.6100656128e+02    4.5596984863e+01
    2.6110647583e+02    4.5592987061e+01
    2.6120635986e+02    4.5587982178e+01
    2.6130670166e+02    4.5584014893e+01
    2.6140655518e+02    4.5580017090e+01
    2.6150650024e+02    4.5575012207e+01
    2.6160647583e+02    4.5571014404e+01
    2.6170642090e+02    4.5566009521e+01
    2.6180639648e+02    4.5561981201e+01
    2.6190637207e+02    4.5556976318e+01
    2.6200549316e+02    4.5552001953e+01
    2.6210552979e+02    4.5546020508e+01
    2.6220556641e+02    4.5540985107e+01
    2.6230563354e+02    4.5535980225e+01
    2.6240567017e+02    4.5531005859e+01
    2.6250674438e+02    4.5524993896e+01
    2.6260528564e+02    4.5518005371e+01
    2.6270544434e+02    4.5511993408e+01
    2.6280572510e+02    4.5506988525e+01
    2.6290609741e+02    4.5501007080e+01
    2.6300656128e+02    4.5493988037e+01
    2.6310635376e+02    4.5487976074e+01
    2.6320629883e+02    4.5480987549e+01
    2.6330587769e+02    4.5473999023e+01
    2.6340646362e+02    4.5468017578e+01
    2.6350555420e+02    4.5460998535e+01
    2.6360610962e+02    4.5454010010e+01
    2.6370666504e+02    4.5447998047e+01
    2.6380572510e+02    4.5440002441e+01
    2.6390551758e+02    4.5433990479e+01
    2.6400604248e+02    4.5427001953e+01
    2.6410662842e+02    4.5420013428e+01
    2.6420565796e+02    4.5412994385e+01
    2.6430627441e+02    4.5407012939e+01
    2.6440533447e+02    4.5399993896e+01
    2.6450595093e+02    4.5393005371e+01
    2.6460552979e+02    4.5386016846e+01
    2.6470617676e+02    4.5380004883e+01
    2.6480673218e+02    4.5372009277e+01
    2.6490573120e+02    4.5364990234e+01
    2.6500619507e+02    4.5358001709e+01
    2.6510662842e+02    4.5350982666e+01
    2.6520663452e+02    4.5345001221e+01
    2.6530694580e+02    4.5337005615e+01
    2.6540573120e+02    4.5331024170e+01
    2.6550610352e+02    4.5325012207e+01
    2.6560644531e+02    4.5317016602e+01
    2.6570614624e+02    4.5311004639e+01
    2.6580648804e+02    4.5303985596e+01
    2.6590670776e+02    4.5296997070e+01
    2.6600680542e+02    4.5290008545e+01
    2.6610684204e+02    4.5282012939e+01
    2.6620590210e+02    4.5276000977e+01
    2.6630578613e+02    4.5268005371e+01
    2.6640628052e+02    4.5261016846e+01
    2.6650619507e+02    4.5253997803e+01
    2.6660626221e+02    4.5246978760e+01
    2.6670617676e+02    4.5238983154e+01
    2.6680593872e+02    4.5231994629e+01
    2.6690612793e+02    4.5223999023e+01
    2.6700677490e+02    4.5216979980e+01
    2.6710702515e+02    4.5208984375e+01
    2.6720581055e+02    4.5201995850e+01
    2.6730624390e+02    4.5194976807e+01
    2.6740676880e+02    4.5187011719e+01
    2.6750579834e+02    4.5178985596e+01
    2.6760601807e+02    4.5171997070e+01
    2.6770669556e+02    4.5164978027e+01
    2.6780590820e+02    4.5157012939e+01
    2.6790661621e+02    4.5148986816e+01
    2.6800640869e+02    4.5141998291e+01
    2.6810705566e+02    4.5133972168e+01
    2.6820617676e+02    4.5127990723e+01
    2.6830682373e+02    4.5118988037e+01
    2.6840591431e+02    4.5111999512e+01
    2.6850671387e+02    4.5104980469e+01
    2.6860589600e+02    4.5097015381e+01
    2.6870657349e+02    4.5089996338e+01
    2.6880575562e+02    4.5082000732e+01
    2.6890643311e+02    4.5074005127e+01
    2.6900653076e+02    4.5067016602e+01
    2.6910562134e+02    4.5059997559e+01
    2.6920635986e+02    4.5052001953e+01
    2.6930712891e+02    4.5044006348e+01
    2.6940637207e+02    4.5036987305e+01
    2.6950720215e+02    4.5027984619e+01
    2.6960641479e+02    4.5020996094e+01
    2.6970675659e+02    4.5013000488e+01
    2.6980603027e+02    4.5005004883e+01
    2.6990664673e+02    4.4996002197e+01
    2.7000723267e+02    4.4988983154e+01
    2.7010623169e+02    4.4977996826e+01
    2.7020663452e+02    4.4968017578e+01
    2.7030694580e+02    4.4957000732e+01
    2.7040725708e+02    4.4947021484e+01
    2.7050665283e+02    4.4936981201e+01
    2.7060681152e+02    4.4927001953e+01
    2.7070690918e+02    4.4914978027e+01
    2.7080706787e+02    4.4904022217e+01
    2.7090707397e+02    4.4891998291e+01
    2.7100698853e+02    4.4881011963e+01
    2.7110684204e+02    4.4868988037e+01
    2.7120669556e+02    4.4856994629e+01
    2.7130657959e+02    4.4843994141e+01
    2.7140658569e+02    4.4832000732e+01
    2.7150628662e+02    4.4819000244e+01
    2.7160626221e+02    4.4805999756e+01
    2.7170629883e+02    4.4792999268e+01
    2.7180642700e+02    4.4778991699e+01
    2.7190664673e+02    4.4765991211e+01
    2.7200698853e+02    4.4751983643e+01
    2.7210620117e+02    4.4738006592e+01
    2.7220666504e+02    4.4722991943e+01
    2.7230706787e+02    4.4709014893e+01
    2.7240637207e+02    4.4694000244e+01
    2.7250674438e+02    4.4679016113e+01
    2.7260714722e+02    4.4665008545e+01
    2.7270602417e+02    4.4649993896e+01
    2.7280648804e+02    4.4634002686e+01
    2.7290701294e+02    4.4618988037e+01
    2.7300607300e+02    4.4602996826e+01
    2.7310601807e+02    4.4587005615e+01
    2.7320672607e+02    4.4571990967e+01
    2.7330596924e+02    4.4554992676e+01
    2.7340686035e+02    4.4539001465e+01
    2.7350622559e+02    4.4522979736e+01
    2.7360726929e+02    4.4506011963e+01
    2.7370681763e+02    4.4490997314e+01
    2.7380636597e+02    4.4473999023e+01
    2.7390740967e+02    4.4456024170e+01
    2.7400698853e+02    4.4440002441e+01
    2.7410705566e+02    4.4423004150e+01
    2.7420645142e+02    4.4407012939e+01
    2.7430740356e+02    4.4389984131e+01
    2.7440679932e+02    4.4372985840e+01
    2.7450616455e+02    4.4356018066e+01
    2.7460644531e+02    4.4338012695e+01
    2.7470739746e+02    4.4320983887e+01
    2.7480673218e+02    4.4303009033e+01
    2.7490750122e+02    4.4286010742e+01
    2.7500671387e+02    4.4269012451e+01
    2.7510733032e+02    4.4251007080e+01
    2.7520645142e+02    4.4233001709e+01
    2.7530688477e+02    4.4214996338e+01
    2.7540740967e+02    4.4196990967e+01
    2.7550637817e+02    4.4178985596e+01
    2.7560699463e+02    4.4160003662e+01
    2.7570602417e+02    4.4141998291e+01
    2.7580718994e+02    4.4123992920e+01
    2.7590631104e+02    4.4105010986e+01
    2.7600680542e+02    4.4085998535e+01
    2.7610720825e+02    4.4066009521e+01
    2.7620748901e+02    4.4046997070e+01
    2.7630621338e+02    4.4028991699e+01
    2.7640631104e+02    4.4009002686e+01
    2.7650637817e+02    4.3988983154e+01
    2.7660678101e+02    4.3968994141e+01
    2.7670681763e+02    4.3949005127e+01
    2.7680694580e+02    4.3929992676e+01
    2.7690637207e+02    4.3908996582e+01
    2.7700714111e+02    4.3888000488e+01
    2.7710736084e+02    4.3868011475e+01
    2.7720767212e+02    4.3847015381e+01
    2.7730645752e+02    4.3826995850e+01
    2.7740695190e+02    4.3804992676e+01
    2.7750756836e+02    4.3783020020e+01
    2.7760626221e+02    4.3763000488e+01
    2.7770706177e+02    4.3740020752e+01
    2.7780639648e+02    4.3718994141e+01
    2.7790734863e+02    4.3697021484e+01
    2.7800726318e+02    4.3675994873e+01
    2.7810650635e+02    4.3653991699e+01
    2.7820739746e+02    4.3631988525e+01
    2.7830673218e+02    4.3609985352e+01
    2.7840768433e+02    4.3587005615e+01
    2.7850686646e+02    4.3564971924e+01
    2.7860632324e+02    4.3542999268e+01
    2.7870721436e+02    4.3520019531e+01
    2.7880654907e+02    4.3497009277e+01
    2.7890621948e+02    4.3475006104e+01
    2.7900695801e+02    4.3452026367e+01
    2.7910772705e+02    4.3428985596e+01
    2.7920632935e+02    4.3406005859e+01
    2.7930694580e+02    4.3382995605e+01
    2.7940774536e+02    4.3360015869e+01
    2.7950698853e+02    4.3337005615e+01
    2.7960781860e+02    4.3312988281e+01
    2.7970706177e+02    4.3290008545e+01
    2.7980633545e+02    4.3266998291e+01
    2.7990719604e+02    4.3243011475e+01
    2.8000650024e+02    4.3220001221e+01
    2.8010739136e+02    4.3192016602e+01
    2.8020718384e+02    4.3165008545e+01
    2.8030664062e+02    4.3136993408e+01
    2.8040756226e+02    4.3110015869e+01
    2.8050689697e+02    4.3082977295e+01
    2.8060763550e+02    4.3054016113e+01
    2.8070678711e+02    4.3027008057e+01
    2.8080728149e+02    4.2998992920e+01
    2.8090765381e+02    4.2970001221e+01
    2.8100790405e+02    4.2941986084e+01
    2.8110665894e+02    4.2915008545e+01
    2.8120681763e+02    4.2886016846e+01
    2.8130700684e+02    4.2856994629e+01
    2.8140722656e+02    4.2828002930e+01
    2.8150701904e+02    4.2799987793e+01
    2.8160733032e+02    4.2770996094e+01
    2.8170773315e+02    4.2742004395e+01
    2.8180670166e+02    4.2712982178e+01
    2.8190740967e+02    4.2683990479e+01
    2.8200665283e+02    4.2654998779e+01
    2.8210675049e+02    4.2626007080e+01
    2.8220776367e+02    4.2597015381e+01
    2.8230734253e+02    4.2566986084e+01
    2.8240689087e+02    4.2537994385e+01
    2.8250790405e+02    4.2509002686e+01
    2.8260742188e+02    4.2479980469e+01
    2.8270767212e+02    4.2449981689e+01
    2.8280700684e+02    4.2421020508e+01
    2.8290795898e+02    4.2390991211e+01
    2.8300750732e+02    4.2361999512e+01
    2.8310708618e+02    4.2333007812e+01
    2.8320669556e+02    4.2303985596e+01
    2.8330764771e+02    4.2274017334e+01
    2.8340771484e+02    4.2244995117e+01
    2.8350726318e+02    4.2216003418e+01
    2.8360681152e+02    4.2186981201e+01
    2.8370800781e+02    4.2157012939e+01
    2.8380764771e+02    4.2127990723e+01
    2.8390731812e+02    4.2098999023e+01
    2.8400701904e+02    4.2070983887e+01
    2.8410671997e+02    4.2041992188e+01
    2.8420809937e+02    4.2013000488e+01
    2.8430795288e+02    4.1983001709e+01
    2.8440747070e+02    4.1954010010e+01
    2.8450714111e+02    4.1925994873e+01
    2.8460678101e+02    4.1897003174e+01
    2.8470727539e+02    4.1868011475e+01
    2.8480697632e+02    4.1839996338e+01
    2.8490805054e+02    4.1811981201e+01
    2.8500753784e+02    4.1782012939e+01
    2.8510690308e+02    4.1754028320e+01
    2.8520816040e+02    4.1725006104e+01
    2.8530728149e+02    4.1696990967e+01
    2.8540795898e+02    4.1667999268e+01
    2.8550711060e+02    4.1639007568e+01
    2.8560757446e+02    4.1610992432e+01
    2.8570687866e+02    4.1582000732e+01
    2.8580758667e+02    4.1552978516e+01
    2.8590753174e+02    4.1523986816e+01
    2.8600811768e+02    4.1494995117e+01
    2.8610705566e+02    4.1466003418e+01
    2.8620779419e+02    4.1437011719e+01
    2.8630682373e+02    4.1408996582e+01
    2.8640731812e+02    4.1380004883e+01
    2.8650762939e+02    4.1350006104e+01
    2.8660815430e+02    4.1320983887e+01
    2.8670718384e+02    4.1291992188e+01
    2.8680792236e+02    4.1263000488e+01
    2.8690716553e+02    4.1233978271e+01
    2.8700787354e+02    4.1204010010e+01
    2.8710702515e+02    4.1175018311e+01
    2.8720819092e+02    4.1144989014e+01
    2.8730722046e+02    4.1115997314e+01
    2.8740789795e+02    4.1084991455e+01
    2.8750711060e+02    4.1055999756e+01
    2.8760800171e+02    4.1027008057e+01
    2.8770816040e+02    4.0997009277e+01
    2.8780770874e+02    4.0968017578e+01
    2.8790710449e+02    4.0938018799e+01
    2.8800823975e+02    4.0909027100e+01
    2.8810787964e+02    4.0878997803e+01
    2.8820761108e+02    4.0849975586e+01
    2.8830743408e+02    4.0820983887e+01
    2.8840731812e+02    4.0790985107e+01
    2.8850708008e+02    4.0763000488e+01
    2.8860711670e+02    4.0732971191e+01
    2.8870706177e+02    4.0704986572e+01
    2.8880691528e+02    4.0675018311e+01
    2.8890689087e+02    4.0646972656e+01
    2.8900811768e+02    4.0618041992e+01
    2.8910772705e+02    4.0589019775e+01
    2.8920742798e+02    4.0561004639e+01
    2.8930715942e+02    4.0532958984e+01
    2.8940832520e+02    4.0504028320e+01
    2.8950799561e+02    4.0475006104e+01
    2.8960696411e+02    4.0447998047e+01
    2.8970724487e+02    4.0418975830e+01
    2.8980697632e+02    4.0391021729e+01
    2.8990713501e+02    4.0361968994e+01
    2.9000839233e+02    4.0333984375e+01
    2.9010812378e+02    4.0302001953e+01
    2.9020794678e+02    4.0269012451e+01
    2.9030841064e+02    4.0235015869e+01
    2.9040844727e+02    4.0203002930e+01
    2.9050842285e+02    4.0169982910e+01
    2.9060830688e+02    4.0138000488e+01
    2.9070809937e+02    4.0106018066e+01
    2.9080776978e+02    4.0074005127e+01
    2.9090731812e+02    4.0041992188e+01
    2.9100823975e+02    4.0009002686e+01
    2.9110757446e+02    3.9977020264e+01
    2.9120834351e+02    3.9945007324e+01
    2.9130743408e+02    3.9911987305e+01
    2.9140808105e+02    3.9881011963e+01
    2.9150720215e+02    3.9847961426e+01
    2.9160797119e+02    3.9816986084e+01
    2.9170724487e+02    3.9785003662e+01
    2.9180819702e+02    3.9752990723e+01
    2.9190771484e+02    3.9720977783e+01
    2.9200729370e+02    3.9690032959e+01
    2.9210855103e+02    3.9657989502e+01
    2.9220828247e+02    3.9626983643e+01
    2.9230728149e+02    3.9595001221e+01
    2.9240795898e+02    3.9564025879e+01
    2.9250775146e+02    3.9532012939e+01
    2.9260760498e+02    3.9502014160e+01
    2.9270745850e+02    3.9470977783e+01
    2.9280734253e+02    3.9440002441e+01
    2.9290731812e+02    3.9408966064e+01
    2.9300750732e+02    3.9379028320e+01
    2.9310763550e+02    3.9348022461e+01
    2.9320776367e+02    3.9318023682e+01
    2.9330783081e+02    3.9287994385e+01
    2.9340783691e+02    3.9257995605e+01
    2.9350784302e+02    3.9227996826e+01
    2.9360775757e+02    3.9198028564e+01
    2.9370755005e+02    3.9168975830e+01
    2.9380728149e+02    3.9138977051e+01
    2.9390856934e+02    3.9109985352e+01
    2.9400833130e+02    3.9079986572e+01
    2.9410806274e+02    3.9050994873e+01
    2.9420724487e+02    3.9021972656e+01
    2.9430868530e+02    3.8993011475e+01
    2.9440783691e+02    3.8964996338e+01
    2.9450769043e+02    3.8936035156e+01
    2.9460757446e+02    3.8907989502e+01
    2.9470770264e+02    3.8878021240e+01
    2.9480776978e+02    3.8851013184e+01
    2.9490774536e+02    3.8822021484e+01
    2.9500765991e+02    3.8793975830e+01
    2.9510748291e+02    3.8766021729e+01
    2.9520727539e+02    3.8738983154e+01
    2.9530844116e+02    3.8710021973e+01
    2.9540795898e+02    3.8683013916e+01
    2.9550808716e+02    3.8654022217e+01
    2.9560772705e+02    3.8627014160e+01
    2.9570730591e+02    3.8599975586e+01
    2.9580834961e+02    3.8571990967e+01
    2.9590783691e+02    3.8545013428e+01
    2.9600759888e+02    3.8516021729e+01
    2.9610778809e+02    3.8489013672e+01
    2.9620870972e+02    3.8462005615e+01
    2.9630816650e+02    3.8434020996e+01
    2.9640826416e+02    3.8407012939e+01
    2.9650769043e+02    3.8380004883e+01
    2.9660879517e+02    3.8351989746e+01
    2.9670846558e+02    3.8324981689e+01
    2.9680822754e+02    3.8299011230e+01
    2.9690798950e+02    3.8272033691e+01
    2.9700808716e+02    3.8244995117e+01
    2.9710800171e+02    3.8218017578e+01
    2.9720791626e+02    3.8191955566e+01
    2.9730822754e+02    3.8166015625e+01
    2.9740798950e+02    3.8138977051e+01
    2.9750875854e+02    3.8113006592e+01
    2.9760873413e+02    3.8087036133e+01
    2.9770874023e+02    3.8061035156e+01
    2.9780740356e+02    3.8036010742e+01
    2.9790890503e+02    3.8008972168e+01
    2.9800894165e+02    3.7984008789e+01
    2.9810745239e+02    3.7958984375e+01
    2.9820767212e+02    3.7933990479e+01
    2.9830798340e+02    3.7907989502e+01
    2.9840832520e+02    3.7884033203e+01
    2.9850894165e+02    3.7859008789e+01
    2.9860794067e+02    3.7833984375e+01
    2.9870837402e+02    3.7809997559e+01
    2.9880874634e+02    3.7786010742e+01
    2.9890756226e+02    3.7763000488e+01
    2.9900836182e+02    3.7739013672e+01
    2.9910787964e+02    3.7714965820e+01
    2.9920809937e+02    3.7690979004e+01
    2.9930825806e+02    3.7667968750e+01
    2.9940838623e+02    3.7645996094e+01
    2.9950866699e+02    3.7622009277e+01
    2.9960858154e+02    3.7600036621e+01
    2.9970883179e+02    3.7577026367e+01
    2.9980892944e+02    3.7554992676e+01
    2.9990899658e+02    3.7533020020e+01
endcurve
