Curveplot
LS-DYNA keyword deck by LS-Prepost
Abcissa
Ordinate
Define Curve
Curve 1 #pts=149
* Minval=   0.000000e+000 at time=        0.000000
* Maxval=   0.000000e+000 at time=        0.000000
0.00,19.1795
10.00,19.1830
20.00,19.1243
30.00,19.4546
40.00,20.3157
50.00,21.6588
60.00,23.6790
70.00,26.3746
80.00,29.6082
90.00,33.1552
100.00,36.2761
110.00,40.0804
120.00,44.2675
130.00,48.6272
140.00,53.2277
150.00,56.9968
160.00,59.7953
170.00,61.6048
180.00,62.7114
190.00,63.4651
200.00,63.8003
210.00,63.8892
220.00,63.9465
230.00,64.1868
240.00,64.4903
250.00,64.8853
260.00,65.2358
270.00,65.2288
280.00,64.8835
290.00,64.4973
300.00,64.1406
310.00,63.7998
320.00,63.3871
330.00,62.8630
340.00,62.3060
350.00,61.7525
360.00,61.2633
370.00,60.7056
380.00,60.2075
390.00,59.5733
400.00,58.9783
410.00,58.4054
420.00,57.5243
430.00,56.7915
440.00,56.1678
450.00,55.5427
460.00,54.9899
470.00,54.3399
480.00,53.6524
490.00,52.8510
500.00,51.1810
500.00,18.9907
490.00,21.7272
480.00,22.4695
470.00,22.9341
460.00,23.9574
450.00,24.8913
440.00,26.1784
430.00,27.5096
420.00,28.8722
410.00,30.3332
400.00,31.8003
390.00,33.6462
380.00,35.7494
370.00,37.4115
360.00,38.7963
350.00,40.6366
340.00,41.7334
330.00,42.4992
320.00,42.9683
310.00,43.2235
300.00,43.4553
290.00,43.3775
280.00,43.1653
270.00,42.6814
260.00,42.0197
250.00,41.5529
240.00,40.8824
230.00,40.5691
220.00,40.4638
210.00,40.6631
200.00,41.1766
190.00,41.7051
180.00,42.0516
170.00,41.5937
160.00,40.1918
150.00,37.3897
140.00,32.7264
130.00,26.1122
120.00,18.7626
110.00,11.4092
100.00,5.6910
90.00,1.9184
80.00,-3.1584
70.00,-8.0672
60.00,-12.5362
50.00,-15.9431
40.00,-17.9849
30.00,-18.2325
20.00,-18.6611
10.00,-19.3464
0.00,-19.4051
endcurve
