Curveplot
LS-DYNA keyword deck by LS-Prepost
Abcissa
Ordinate
Define Curve
Curve 1 #pts=149
* Minval=   0.000000e+000 at time=        0.000000
* Maxval=   0.000000e+000 at time=        0.000000
0.00,13.5899
10.00,13.5998
20.00,13.7026
30.00,13.9786
40.00,14.5608
50.00,15.8656
60.00,17.9290
70.00,20.9489
80.00,24.5071
90.00,28.4683
100.00,32.4938
110.00,36.4990
120.00,41.3459
130.00,47.0050
140.00,52.9042
150.00,57.8809
160.00,61.8367
170.00,64.7716
180.00,66.9666
190.00,68.7761
200.00,69.9358
210.00,70.4701
220.00,70.6205
230.00,70.6921
240.00,70.7373
250.00,70.8352
260.00,71.1443
270.00,70.7508
280.00,69.8985
290.00,68.8104
300.00,67.6432
310.00,66.5037
320.00,65.3937
330.00,64.1332
340.00,62.9580
350.00,61.6745
360.00,60.4426
370.00,59.2587
380.00,58.1645
390.00,57.0053
400.00,56.1580
410.00,55.3757
420.00,54.1439
430.00,53.1141
440.00,52.3718
450.00,51.6959
460.00,51.2625
470.00,50.6131
480.00,50.0585
490.00,49.2665
500.00,47.6289
500.00,17.4161
490.00,20.2211
480.00,20.8008
470.00,21.2872
460.00,22.0201
450.00,22.8015
440.00,24.0417
430.00,24.8200
420.00,25.9875
410.00,27.1966
400.00,28.4163
390.00,30.0642
380.00,31.9310
370.00,33.7293
360.00,35.4307
350.00,37.5600
340.00,39.2172
330.00,40.7166
320.00,42.1574
310.00,43.6046
300.00,45.0703
290.00,46.3248
280.00,47.2896
270.00,48.1047
260.00,48.2256
250.00,48.2668
240.00,47.9305
230.00,47.7046
220.00,47.1785
210.00,46.7194
200.00,46.3458
190.00,45.7950
180.00,44.8470
170.00,43.1592
160.00,40.7484
150.00,37.4595
140.00,32.6945
130.00,25.8777
120.00,18.5906
110.00,12.2290
100.00,7.6197
90.00,5.5429
80.00,1.2203
70.00,-3.0843
60.00,-7.0284
50.00,-10.1181
40.00,-12.1512
30.00,-12.7053
20.00,-13.2084
10.00,-13.7180
0.00,-13.7417
endcurve
