Curveplot
LS-DYNA keyword deck by LS-PrePost
Abscissa
Ordinate
XY data
CHOPHeadyRot-1 #pts=3000
* Minval=    -5.8421397853e-07 at time=         4.1997194290
* Maxval=     1.2789000273e+00 at time=       234.7050628662
    0.0000000000e+00    0.0000000000e+00
    9.9515393376e-02    0.0000000000e+00
    1.9926306605e-01    0.0000000000e+00
    2.9929459095e-01    1.2025700337e-24
    3.9880996943e-01    6.1291002142e-19
    4.9985638261e-01    4.1766100263e-14
    5.9905362129e-01    4.5484900568e-11
    6.9987636805e-01    2.2637799968e-10
    7.9954648018e-01    3.2621799706e-10
    8.9864903688e-01    3.5765199136e-10
    9.9966126680e-01    3.0559998976e-10
    1.0996326208e+00    1.9549199759e-10
    1.1992081404e+00    4.2266298794e-10
    1.2992560863e+00    1.4644799817e-09
    1.3984533548e+00    2.8227000737e-09
    1.4998453856e+00    3.0830000775e-09
    1.5994231701e+00    7.5942002686e-10
    1.6985268593e+00   -4.2322998439e-09
    1.7997437716e+00   -1.0207299894e-08
    1.8993321657e+00   -1.3923499687e-08
    1.9997705221e+00   -1.2525600113e-08
    2.0991508961e+00   -4.4262198351e-09
    2.1989893913e+00    1.0572899889e-08
    2.2993984222e+00    3.1016998747e-08
    2.3992598057e+00    5.3355201146e-08
    2.4991235733e+00    7.2864096978e-08
    2.5987050533e+00    8.4216701168e-08
    2.6996295452e+00    8.3230602854e-08
    2.7984552383e+00    6.7838996642e-08
    2.8999648094e+00    3.7257500196e-08
    2.9995646477e+00   -5.6079398902e-09
    3.0999040604e+00   -5.9535299357e-08
    3.1995027065e+00   -1.2161399354e-07
    3.2985928059e+00   -1.8941500457e-07
    3.3985512257e+00   -2.6127199249e-07
    3.4984316826e+00   -3.3364500496e-07
    3.5994479656e+00   -4.0358298747e-07
    3.6990442276e+00   -4.6461698844e-07
    3.7992246151e+00   -5.1387399935e-07
    3.8993701935e+00   -5.4894502455e-07
    3.9994227886e+00   -5.7057297909e-07
    4.0995702744e+00   -5.8140699366e-07
    4.1997194290e+00   -5.8421397853e-07
    4.2992067337e+00   -5.8048402707e-07
    4.3998479843e+00   -5.6997100728e-07
    4.4984693527e+00   -5.5173097735e-07
    4.5991115570e+00   -5.2251397165e-07
    4.6995639801e+00   -4.7977601980e-07
    4.7992572784e+00   -4.2128800715e-07
    4.8994216919e+00   -3.4343798916e-07
    4.9986214638e+00   -2.4407600563e-07
    5.0999350548e+00   -1.1531499666e-07
    5.1995096207e+00    4.3461099608e-08
    5.2987051010e+00    2.3921799652e-07
    5.3990669250e+00    4.8101600214e-07
    5.4996919632e+00    7.7178799529e-07
    5.5998415947e+00    1.1120799854e-06
    5.6989326477e+00    1.4998399820e-06
    5.7985906601e+00    1.9409098968e-06
    5.8998737335e+00    2.4408700483e-06
    5.9998154640e+00    2.9848399663e-06
    6.0996627808e+00    3.5780899452e-06
    6.1989426613e+00    4.2159199438e-06
    6.2983975410e+00    4.9000000217e-06
    6.3997802734e+00    5.6406402109e-06
    6.4992542267e+00    6.4075697992e-06
    6.5996904373e+00    7.2222801464e-06
    6.6996359825e+00    8.0754098235e-06
    6.7985401154e+00    8.9646800916e-06
    6.8986897469e+00    9.9153003248e-06
    6.9997239113e+00    1.0930200006e-05
    7.0992083549e+00    1.1987400285e-05
    7.1986923218e+00    1.3103899619e-05
    7.2996892929e+00    1.4299000213e-05
    7.3985881805e+00    1.5530600649e-05
    7.4985284805e+00    1.6837500880e-05
    7.5995121002e+00    1.8221400751e-05
    7.6986827850e+00    1.9641000108e-05
    7.7998762131e+00    2.1147499865e-05
    7.8998236656e+00    2.2687299861e-05
    7.9989199638e+00    2.4259099519e-05
    8.0998153687e+00    2.5900200853e-05
    8.1998615265e+00    2.7564899938e-05
    8.2990570068e+00    2.9251099477e-05
    8.3988990784e+00    3.0984600016e-05
    8.4998006821e+00    3.2774300053e-05
    8.5999631882e+00    3.4589000279e-05
    8.6987676620e+00    3.6416200601e-05
    8.7995939255e+00    3.8319198211e-05
    8.8990020752e+00    4.0234699554e-05
    8.9996566772e+00    4.2216201109e-05
    9.0994253159e+00    4.4224700105e-05
    9.1989107132e+00    4.6273398766e-05
    9.2986021042e+00    4.8371999583e-05
    9.3995208740e+00    5.0541100791e-05
    9.4999656677e+00    5.2741801483e-05
    9.5991315842e+00    5.4952299251e-05
    9.6984272003e+00    5.7201501477e-05
    9.7983865738e+00    5.9500500356e-05
    9.8995943069e+00    6.1863800511e-05
    9.9990644455e+00    6.4221501816e-05
    1.0098740578e+01    6.6618697019e-05
    1.0199964523e+01    6.9088302553e-05
    1.0299671173e+01    7.1556096373e-05
    1.0399828911e+01    7.4071402196e-05
    1.0499686241e+01    7.6617398008e-05
    1.0598957062e+01    7.9188197560e-05
    1.0699192047e+01    8.1826299720e-05
    1.0799160004e+01    8.4500599769e-05
    1.0898541451e+01    8.7202497525e-05
    1.0999831200e+01    8.9999899501e-05
    1.1099590302e+01    9.2797097750e-05
    1.1199539185e+01    9.5641400549e-05
    1.1298731804e+01    9.8506301583e-05
    1.1399438858e+01    1.0145700071e-04
    1.1499849319e+01    1.0443900101e-04
    1.1598558426e+01    1.0740399739e-04
    1.1699192047e+01    1.1046099826e-04
    1.1798781395e+01    1.1352000001e-04
    1.1898856163e+01    1.1663199984e-04
    1.1999099731e+01    1.1979400006e-04
    1.2098836899e+01    1.2298699585e-04
    1.2198673248e+01    1.2623300427e-04
    1.2299571037e+01    1.2956200226e-04
    1.2399525642e+01    1.3290399511e-04
    1.2499297142e+01    1.3627599401e-04
    1.2598771095e+01    1.3966500410e-04
    1.2698864937e+01    1.4309899416e-04
    1.2799510002e+01    1.4657099382e-04
    1.2899018288e+01    1.5002599685e-04
    1.2999300957e+01    1.5353399795e-04
    1.3099866867e+01    1.5708200226e-04
    1.3199278831e+01    1.6062300710e-04
    1.3299127579e+01    1.6421600594e-04
    1.3399185181e+01    1.6785800108e-04
    1.3498596191e+01    1.7152300279e-04
    1.3599918365e+01    1.7531300546e-04
    1.3698760033e+01    1.7907300207e-04
    1.3799416542e+01    1.8297600036e-04
    1.3899566650e+01    1.8693899619e-04
    1.3999134064e+01    1.9095800235e-04
    1.4099665642e+01    1.9509300182e-04
    1.4198574066e+01    1.9923500076e-04
    1.4299221039e+01    2.0352400315e-04
    1.4399885178e+01    2.0788999973e-04
    1.4498701096e+01    2.1225500677e-04
    1.4599349976e+01    2.1678500343e-04
    1.4699978828e+01    2.2140500369e-04
    1.4799977303e+01    2.2609200096e-04
    1.4899495125e+01    2.3085699650e-04
    1.4999355316e+01    2.3574499937e-04
    1.5098661423e+01    2.4072099768e-04
    1.5198907852e+01    2.4587201187e-04
    1.5299245834e+01    2.5116698816e-04
    1.5398726463e+01    2.5656301295e-04
    1.5499447823e+01    2.6218401035e-04
    1.5598524094e+01    2.6787098614e-04
    1.5699790955e+01    2.7384801069e-04
    1.5799527168e+01    2.7989799855e-04
    1.5899530411e+01    2.8612499591e-04
    1.5999344826e+01    2.9250100488e-04
    1.6099838257e+01    2.9908199213e-04
    1.6199182510e+01    3.0574499397e-04
    1.6298717499e+01    3.1257400406e-04
    1.6399026871e+01    3.1960499473e-04
    1.6499639511e+01    3.2680301229e-04
    1.6599966049e+01    3.3412998891e-04
    1.6699516296e+01    3.4155100002e-04
    1.6799160004e+01    3.4913799027e-04
    1.6898914337e+01    3.5690001096e-04
    1.6998966217e+01    3.6485900637e-04
    1.7099979401e+01    3.7307498860e-04
    1.7198873520e+01    3.8129600580e-04
    1.7299186707e+01    3.8981300895e-04
    1.7399387360e+01    3.9850198664e-04
    1.7498723984e+01    4.0729501052e-04
    1.7598539352e+01    4.1630701162e-04
    1.7699022293e+01    4.2555600521e-04
    1.7799432755e+01    4.3496800936e-04
    1.7899370193e+01    4.4449299457e-04
    1.7999597549e+01    4.5419100206e-04
    1.8099447250e+01    4.6398901031e-04
    1.8199300766e+01    4.7391699627e-04
    1.8299535751e+01    4.8401200911e-04
    1.8399299622e+01    4.9418699928e-04
    1.8499729156e+01    5.0455797464e-04
    1.8599893570e+01    5.1503098803e-04
    1.8699567795e+01    5.2558002062e-04
    1.8799831390e+01    5.3632102208e-04
    1.8899637222e+01    5.4714502767e-04
    1.8998748779e+01    5.5802700808e-04
    1.9099582672e+01    5.6923902594e-04
    1.9199359894e+01    5.8047601487e-04
    1.9299434662e+01    5.9188599698e-04
    1.9398958206e+01    6.0336501338e-04
    1.9499582291e+01    6.1510002706e-04
    1.9598772049e+01    6.2678597169e-04
    1.9699968338e+01    6.3882500399e-04
    1.9798786163e+01    6.5068999538e-04
    1.9899040222e+01    6.6283397609e-04
    1.9999559402e+01    6.7511800444e-04
    2.0099245071e+01    6.8740197457e-04
    2.0199890137e+01    6.9990399061e-04
    2.0299772263e+01    7.1241200203e-04
    2.0399650574e+01    7.2502100375e-04
    2.0499698639e+01    7.3775899364e-04
    2.0599178314e+01    7.5053499313e-04
    2.0698671341e+01    7.6343002729e-04
    2.0798824310e+01    7.7653100016e-04
    2.0898784637e+01    7.8972900519e-04
    2.0999406815e+01    8.0313702347e-04
    2.1098482132e+01    8.1646098988e-04
    2.1199199677e+01    8.3013001131e-04
    2.1300012589e+01    8.4394001169e-04
    2.1399957657e+01    8.5775897605e-04
    2.1499794006e+01    8.7168702157e-04
    2.1599159241e+01    8.8566902559e-04
    2.1699502945e+01    8.9990498964e-04
    2.1798704147e+01    9.1409700690e-04
    2.1898960114e+01    9.2856201809e-04
    2.1998720169e+01    9.4308401458e-04
    2.2098939896e+01    9.5780700212e-04
    2.2199617386e+01    9.7273802385e-04
    2.2299827576e+01    9.8773802165e-04
    2.2399114609e+01    1.0027299868e-03
    2.2499444962e+01    1.0180099634e-03
    2.2598722458e+01    1.0332600214e-03
    2.2699853897e+01    1.0489099659e-03
    2.2798582077e+01    1.0643099668e-03
    2.2899238586e+01    1.0801299941e-03
    2.2999137878e+01    1.0959600331e-03
    2.3098657608e+01    1.1118700495e-03
    2.3199026108e+01    1.1280500330e-03
    2.3299343109e+01    1.1443699477e-03
    2.3398542404e+01    1.1606500484e-03
    2.3498989105e+01    1.1772799771e-03
    2.3598775864e+01    1.1939699762e-03
    2.3698747635e+01    1.2108699884e-03
    2.3799365997e+01    1.2280499795e-03
    2.3899591446e+01    1.2453600066e-03
    2.3998765945e+01    1.2626800453e-03
    2.4099773407e+01    1.2805099832e-03
    2.4199552536e+01    1.2982999906e-03
    2.4298782349e+01    1.3161899988e-03
    2.4399843216e+01    1.3346000342e-03
    2.4498678207e+01    1.3528099516e-03
    2.4598945618e+01    1.3714799425e-03
    2.4699495316e+01    1.3904200168e-03
    2.4799011230e+01    1.4093900099e-03
    2.4900051117e+01    1.4288900420e-03
    2.4999332428e+01    1.4482799452e-03
    2.5099761963e+01    1.4681499451e-03
    2.5199033737e+01    1.4880499803e-03
    2.5300035477e+01    1.5085600317e-03
    2.5399406433e+01    1.5290300362e-03
    2.5499134064e+01    1.5498499852e-03
    2.5599613190e+01    1.5711300075e-03
    2.5699163437e+01    1.5925100306e-03
    2.5798503876e+01    1.6141299857e-03
    2.5899248123e+01    1.6363599570e-03
    2.5999994278e+01    1.6588900471e-03
    2.6099037170e+01    1.6813300317e-03
    2.6200025558e+01    1.7045099521e-03
    2.6299936295e+01    1.7277300358e-03
    2.6399944305e+01    1.7512700288e-03
    2.6498910904e+01    1.7748400569e-03
    2.6599910736e+01    1.7991899513e-03
    2.6698696136e+01    1.8232900184e-03
    2.6799938202e+01    1.8482999876e-03
    2.6899932861e+01    1.8733199686e-03
    2.6999673843e+01    1.8985799979e-03
    2.7099128723e+01    1.9240999827e-03
    2.7198656082e+01    1.9499500049e-03
    2.7298643112e+01    1.9762399606e-03
    2.7399482727e+01    2.0030699670e-03
    2.7498590469e+01    2.0297600422e-03
    2.7599332809e+01    2.0572000649e-03
    2.7698459625e+01    2.0844999235e-03
    2.7799516678e+01    2.1126200445e-03
    2.7899650574e+01    2.1407699678e-03
    2.7999504089e+01    2.1691101138e-03
    2.8098585129e+01    2.1974700503e-03
    2.8199771881e+01    2.2266900633e-03
    2.8298843384e+01    2.2555300966e-03
    2.8399639130e+01    2.2851100657e-03
    2.8499494553e+01    2.3146399762e-03
    2.8599842072e+01    2.3445500992e-03
    2.8699117661e+01    2.3743698839e-03
    2.8798791885e+01    2.4045400787e-03
    2.8899847031e+01    2.4353601038e-03
    2.8999639511e+01    2.4660299532e-03
    2.9099418640e+01    2.4969300721e-03
    2.9198518753e+01    2.5278499816e-03
    2.9299543381e+01    2.5595999323e-03
    2.9399906158e+01    2.5913598947e-03
    2.9498832703e+01    2.6228800416e-03
    2.9599447250e+01    2.6551398914e-03
    2.9699592590e+01    2.6874500327e-03
    2.9798889160e+01    2.7196600568e-03
    2.9898960114e+01    2.7522998862e-03
    2.9999504089e+01    2.7852801140e-03
    3.0098531723e+01    2.8179299552e-03
    3.0199562073e+01    2.8514100704e-03
    3.0298788071e+01    2.8844699264e-03
    3.0398969650e+01    2.9180101119e-03
    3.0498847961e+01    2.9516299255e-03
    3.0599874496e+01    2.9858299531e-03
    3.0698890686e+01    3.0195300933e-03
    3.0799699783e+01    3.0540500302e-03
    3.0899259567e+01    3.0883399304e-03
    3.0999967575e+01    3.1232400797e-03
    3.1099996567e+01    3.1581099611e-03
    3.1198886871e+01    3.1928000972e-03
    3.1299573898e+01    3.2283400651e-03
    3.1399017334e+01    3.2636499964e-03
    3.1499788284e+01    3.2996600494e-03
    3.1599523544e+01    3.3354999032e-03
    3.1699588776e+01    3.3716799226e-03
    3.1799076080e+01    3.4078599419e-03
    3.1900079727e+01    3.4448199440e-03
    3.1999242783e+01    3.4813499078e-03
    3.2099510193e+01    3.5185399465e-03
    3.2198631287e+01    3.5555500071e-03
    3.2299388885e+01    3.5934299231e-03
    3.2399307251e+01    3.6312399898e-03
    3.2498889923e+01    3.6691499408e-03
    3.2599979401e+01    3.7078598980e-03
    3.2698627472e+01    3.7458399311e-03
    3.2799640656e+01    3.7849401124e-03
    3.2898746490e+01    3.8235199172e-03
    3.2999019623e+01    3.8627600297e-03
    3.3100063324e+01    3.9025500882e-03
    3.3199569702e+01    3.9419699460e-03
    3.3299873352e+01    3.9819600061e-03
    3.3399551392e+01    4.0219500661e-03
    3.3499988556e+01    4.0625301190e-03
    3.3598609924e+01    4.1026598774e-03
    3.3699157715e+01    4.1438699700e-03
    3.3799007416e+01    4.1851298884e-03
    3.3899604797e+01    4.2270198464e-03
    3.3998775482e+01    4.2686499655e-03
    3.4099689484e+01    4.3113301508e-03
    3.4199836731e+01    4.3540098704e-03
    3.4298866272e+01    4.3965200894e-03
    3.4399936676e+01    4.4402400963e-03
    3.4498493195e+01    4.4831801206e-03
    3.4599922180e+01    4.5277201571e-03
    3.4698947906e+01    4.5715598390e-03
    3.4799991608e+01    4.6166698448e-03
    3.4899494171e+01    4.6614799649e-03
    3.4998970032e+01    4.7066700645e-03
    3.5099967957e+01    4.7529800795e-03
    3.5199047089e+01    4.7988500446e-03
    3.5299457550e+01    4.8458101228e-03
    3.5398910522e+01    4.8927902244e-03
    3.5498916626e+01    4.9405400641e-03
    3.5599937439e+01    4.9892999232e-03
    3.5699329376e+01    5.0377901644e-03
    3.5799266815e+01    5.0870701671e-03
    3.5899963379e+01    5.1372400485e-03
    3.5999042511e+01    5.1871198229e-03
    3.6098529816e+01    5.2377101965e-03
    3.6199169159e+01    5.2893902175e-03
    3.6299892426e+01    5.3416299634e-03
    3.6399749756e+01    5.3939102218e-03
    3.6499153137e+01    5.4464400746e-03
    3.6598678589e+01    5.4995198734e-03
    3.6699142456e+01    5.5535901338e-03
    3.6799869537e+01    5.6083197705e-03
    3.6899379730e+01    5.6629101746e-03
    3.6998783112e+01    5.7179699652e-03
    3.7099712372e+01    5.7744299993e-03
    3.7199489594e+01    5.8307899162e-03
    3.7299419403e+01    5.8877901174e-03
    3.7399810791e+01    5.9456098825e-03
    3.7499927521e+01    6.0037998483e-03
    3.7599002838e+01    6.0619101860e-03
    3.7699714661e+01    6.1214901507e-03
    3.7798812866e+01    6.1805997975e-03
    3.7899372101e+01    6.2410598621e-03
    3.7999195099e+01    6.3015101478e-03
    3.8099407196e+01    6.3626198098e-03
    3.8199340820e+01    6.4239501953e-03
    3.8299354553e+01    6.4857201651e-03
    3.8399074554e+01    6.5476801246e-03
    3.8499275208e+01    6.6103101708e-03
    3.8599330902e+01    6.6732200794e-03
    3.8698486328e+01    6.7359302193e-03
    3.8799770355e+01    6.8003600463e-03
    3.8899299622e+01    6.8640401587e-03
    3.8998828888e+01    6.9280900061e-03
    3.9099857330e+01    6.9934800267e-03
    3.9199832916e+01    7.0585599169e-03
    3.9299045563e+01    7.1235098876e-03
    3.9398574829e+01    7.1890098043e-03
    3.9499298096e+01    7.2556398809e-03
    3.9598480225e+01    7.3215598240e-03
    3.9699295044e+01    7.3888897896e-03
    3.9798488617e+01    7.4554202147e-03
    3.9899307251e+01    7.5233401731e-03
    3.9998508453e+01    7.5904498808e-03
    4.0099330902e+01    7.6589398086e-03
    4.0199234009e+01    7.7270898037e-03
    4.0298763275e+01    7.7952700667e-03
    4.0399806976e+01    7.8647797927e-03
    4.0499313354e+01    7.9335197806e-03
    4.0598815918e+01    8.0025596544e-03
    4.0698593140e+01    8.0721098930e-03
    4.0799499512e+01    8.1427898258e-03
    4.0899147034e+01    8.2129202783e-03
    4.0999248505e+01    8.2837101072e-03
    4.1099441528e+01    8.3549199626e-03
    4.1199047089e+01    8.4260599688e-03
    4.1299789429e+01    8.4983697161e-03
    4.1398914337e+01    8.5698803887e-03
    4.1499668121e+01    8.6429202929e-03
    4.1599575043e+01    8.7156901136e-03
    4.1699714661e+01    8.7889898568e-03
    4.1799175262e+01    8.8621396571e-03
    4.1898616791e+01    8.9356498793e-03
    4.1999458313e+01    9.0105896816e-03
    4.2098537445e+01    9.0846102685e-03
    4.2199249268e+01    9.1602699831e-03
    4.2298347473e+01    9.2351296917e-03
    4.2398628235e+01    9.3112802133e-03
    4.2499031067e+01    9.3879196793e-03
    4.2598461151e+01    9.4641800970e-03
    4.2699275970e+01    9.5418700948e-03
    4.2799488068e+01    9.6194501966e-03
    4.2899055481e+01    9.6968896687e-03
    4.2998535156e+01    9.7746504471e-03
    4.3099548340e+01    9.8539898172e-03
    4.3199115753e+01    9.9326204509e-03
    4.3299861908e+01    1.0012599640e-02
    4.3398906708e+01    1.0091600008e-02
    4.3499126434e+01    1.0172099806e-02
    4.3598388672e+01    1.0252200067e-02
    4.3699779510e+01    1.0334599763e-02
    4.3799228668e+01    1.0415899567e-02
    4.3898277283e+01    1.0497399606e-02
    4.3999061584e+01    1.0580900125e-02
    4.4098529816e+01    1.0663700290e-02
    4.4199535370e+01    1.0748400353e-02
    4.4298385620e+01    1.0831899941e-02
    4.4399440765e+01    1.0917600244e-02
    4.4499725342e+01    1.1003299616e-02
    4.4599327087e+01    1.1088999920e-02
    4.4699378967e+01    1.1175599881e-02
    4.4798877716e+01    1.1262300424e-02
    4.4899887085e+01    1.1350899935e-02
    4.4998939514e+01    1.1438500136e-02
    4.5099704742e+01    1.1528199539e-02
    4.5199317932e+01    1.1617599986e-02
    4.5298744202e+01    1.1707600206e-02
    4.5399871826e+01    1.1799899861e-02
    4.5498485565e+01    1.1890600435e-02
    4.5598773956e+01    1.1983600445e-02
    4.5699344635e+01    1.2077700347e-02
    4.5799720764e+01    1.2172400020e-02
    4.5898738861e+01    1.2266599573e-02
    4.5999389648e+01    1.2363200076e-02
    4.6098636627e+01    1.2459100224e-02
    4.6199424744e+01    1.2557299808e-02
    4.6298450470e+01    1.2654599734e-02
    4.6399097443e+01    1.2754200026e-02
    4.6499595642e+01    1.2854400091e-02
    4.6598964691e+01    1.2954199687e-02
    4.6699855804e+01    1.3056299649e-02
    4.6798965454e+01    1.3157400303e-02
    4.6899520874e+01    1.3260699809e-02
    4.6998859406e+01    1.3363599777e-02
    4.7099712372e+01    1.3468800113e-02
    4.7199031830e+01    1.3573300093e-02
    4.7298431396e+01    1.3678600080e-02
    4.7399028778e+01    1.3786099851e-02
    4.7499637604e+01    1.3894299977e-02
    4.7598648071e+01    1.4001499861e-02
    4.7699302673e+01    1.4111299999e-02
    4.7798351288e+01    1.4220099896e-02
    4.7899353027e+01    1.4331700280e-02
    4.7999153137e+01    1.4442600310e-02
    4.8098453522e+01    1.4553500339e-02
    4.8198909760e+01    1.4666300267e-02
    4.8299633026e+01    1.4779999852e-02
    4.8398738861e+01    1.4892499894e-02
    4.8499198914e+01    1.5007000417e-02
    4.8598854065e+01    1.5121099539e-02
    4.8699150085e+01    1.5236499719e-02
    4.8799079895e+01    1.5351999551e-02
    4.8898597717e+01    1.5467599966e-02
    4.8999652863e+01    1.5585499816e-02
    4.9099071503e+01    1.5701999888e-02
    4.9199214935e+01    1.5819899738e-02
    4.9298885345e+01    1.5937799588e-02
    4.9398395538e+01    1.6055999324e-02
    4.9499343872e+01    1.6176400706e-02
    4.9599201202e+01    1.6295900568e-02
    4.9698394775e+01    1.6415100545e-02
    4.9798366547e+01    1.6535699368e-02
    4.9899192810e+01    1.6657700762e-02
    4.9998390198e+01    1.6778100282e-02
    5.0099800110e+01    1.6901699826e-02
    5.0198532104e+01    1.7022300512e-02
    5.0299587250e+01    1.7146300524e-02
    5.0399093628e+01    1.7268700525e-02
    5.0498950958e+01    1.7391899601e-02
    5.0599006653e+01    1.7515899613e-02
    5.0698478699e+01    1.7639499158e-02
    5.0799171448e+01    1.7765199766e-02
    5.0898323059e+01    1.7889399081e-02
    5.0998867035e+01    1.8015800044e-02
    5.1099498749e+01    1.8142800778e-02
    5.1199752808e+01    1.8269900233e-02
    5.1298835754e+01    1.8395900726e-02
    5.1398994446e+01    1.8523899838e-02
    5.1499706268e+01    1.8653100356e-02
    5.1599384308e+01    1.8781399354e-02
    5.1698520660e+01    1.8909599632e-02
    5.1799461365e+01    1.9040700048e-02
    5.1898849487e+01    1.9170200452e-02
    5.1999725342e+01    1.9302299246e-02
    5.2098739624e+01    1.9432600588e-02
    5.2199386597e+01    1.9565500319e-02
    5.2298427582e+01    1.9696999341e-02
    5.2398551941e+01    1.9830500707e-02
    5.2499275208e+01    1.9965300336e-02
    5.2598937988e+01    2.0099300891e-02
    5.2698734283e+01    2.0233999938e-02
    5.2798408508e+01    2.0369099453e-02
    5.2899562836e+01    2.0506700501e-02
    5.2998989105e+01    2.0642599091e-02
    5.3098411560e+01    2.0779099315e-02
    5.3199359894e+01    2.0918300375e-02
    5.3298328400e+01    2.1055400372e-02
    5.3398296356e+01    2.1194599569e-02
    5.3499610901e+01    2.1336300299e-02
    5.3598720551e+01    2.1475600079e-02
    5.3698627472e+01    2.1616699174e-02
    5.3798198700e+01    2.1758200601e-02
    5.3898925781e+01    2.1902000532e-02
    5.3999671936e+01    2.2046700120e-02
    5.4098808289e+01    2.2189799696e-02
    5.4199142456e+01    2.2335300222e-02
    5.4298648834e+01    2.2480500862e-02
    5.4399677277e+01    2.2628499195e-02
    5.4499649048e+01    2.2775899619e-02
    5.4599693298e+01    2.2924099118e-02
    5.4698577881e+01    2.3071300238e-02
    5.4799564362e+01    2.3222599179e-02
    5.4898994446e+01    2.3372400552e-02
    5.4999210358e+01    2.3524299264e-02
    5.5098278046e+01    2.3675400764e-02
    5.5199554443e+01    2.3830799386e-02
    5.5298919678e+01    2.3984199390e-02
    5.5398529053e+01    2.4139100686e-02
    5.5498878479e+01    2.4296099320e-02
    5.5599460602e+01    2.4454599246e-02
    5.5698905945e+01    2.4612300098e-02
    5.5798271179e+01    2.4770900607e-02
    5.5898849487e+01    2.4932499975e-02
    5.5999435425e+01    2.5095200166e-02
    5.6098999023e+01    2.5257200003e-02
    5.6199249268e+01    2.5421399623e-02
    5.6298202515e+01    2.5584399700e-02
    5.6398120880e+01    2.5750000030e-02
    5.6499198914e+01    2.5918500498e-02
    5.6598491669e+01    2.6085099205e-02
    5.6699291229e+01    2.6255199686e-02
    5.6799270630e+01    2.6424899697e-02
    5.6898563385e+01    2.6594499126e-02
    5.6999332428e+01    2.6767700911e-02
    5.7098556519e+01    2.6939300820e-02
    5.7199298859e+01    2.7114599943e-02
    5.7299049377e+01    2.7289299294e-02
    5.7399551392e+01    2.7466300875e-02
    5.7498447418e+01    2.7641499415e-02
    5.7598999023e+01    2.7820600197e-02
    5.7699577332e+01    2.8000799939e-02
    5.7798553467e+01    2.8179099783e-02
    5.7898429871e+01    2.8359800577e-02
    5.7999313354e+01    2.8543200344e-02
    5.8099056244e+01    2.8725400567e-02
    5.8199077606e+01    2.8908800334e-02
    5.8299358368e+01    2.9093399644e-02
    5.8398315430e+01    2.9276300222e-02
    5.8499008179e+01    2.9463099316e-02
    5.8599185944e+01    2.9649699107e-02
    5.8698398590e+01    2.9835099354e-02
    5.8799144745e+01    3.0024100095e-02
    5.8899295807e+01    3.0212700367e-02
    5.8998798370e+01    3.0400700867e-02
    5.9099071503e+01    3.0590899289e-02
    5.9198818207e+01    3.0780699104e-02
    5.9299606323e+01    3.0973199755e-02
    5.9398818970e+01    3.1163299456e-02
    5.9498332977e+01    3.1354598701e-02
    5.9598651886e+01    3.1548000872e-02
    5.9699459076e+01    3.1742900610e-02
    5.9798648834e+01    3.1935099512e-02
    5.9899463654e+01    3.2131098211e-02
    5.9998657227e+01    3.2324399799e-02
    6.0099468231e+01    3.2521300018e-02
    6.0199417114e+01    3.2717101276e-02
    6.0298927307e+01    3.2912399620e-02
    6.0398414612e+01    3.3108200878e-02
    6.0498451233e+01    3.3305600286e-02
    6.0599441528e+01    3.3505398780e-02
    6.0698879242e+01    3.3702600747e-02
    6.0798358917e+01    3.3900599927e-02
    6.0898712158e+01    3.4100800753e-02
    6.0998638153e+01    3.4300699830e-02
    6.1098850250e+01    3.4501899034e-02
    6.1198661804e+01    3.4702900797e-02
    6.1299304962e+01    3.4906201065e-02
    6.1398910522e+01    3.5108000040e-02
    6.1499561310e+01    3.5312701017e-02
    6.1599170685e+01    3.5515900701e-02
    6.1699386597e+01    3.5721000284e-02
    6.1798725128e+01    3.5925000906e-02
    6.1899555206e+01    3.6132801324e-02
    6.1998531342e+01    3.6337599158e-02
    6.2099079132e+01    3.6546301097e-02
    6.2198017120e+01    3.6752399057e-02
    6.2298595428e+01    3.6962799728e-02
    6.2399600983e+01    3.7174798548e-02
    6.2499008179e+01    3.7384200841e-02
    6.2599357605e+01    3.7596400827e-02
    6.2699073792e+01    3.7807900459e-02
    6.2798751831e+01    3.8020100445e-02
    6.2898178101e+01    3.8232501596e-02
    6.2999042511e+01    3.8448698819e-02
    6.3098369598e+01    3.8662500679e-02
    6.3199218750e+01    3.8880400360e-02
    6.3299423218e+01    3.9097700268e-02
    6.3399105072e+01    3.9314799011e-02
    6.3499263763e+01    3.9533801377e-02
    6.3598846436e+01    3.9752498269e-02
    6.3699417114e+01    3.9974298328e-02
    6.3798416138e+01    4.0193598717e-02
    6.3899059296e+01    4.0417600423e-02
    6.3998111725e+01    4.0638998151e-02
    6.4098808289e+01    4.0865100920e-02
    6.4198616028e+01    4.1090101004e-02
    6.4298065186e+01    4.1315201670e-02
    6.4399047852e+01    4.1544798762e-02
    6.4498497009e+01    4.1771799326e-02
    6.4598205566e+01    4.2000498623e-02
    6.4698471069e+01    4.2231298983e-02
    6.4799392700e+01    4.2464800179e-02
    6.4898757935e+01    4.2695701122e-02
    6.4998992920e+01    4.2929798365e-02
    6.5098457336e+01    4.3163198978e-02
    6.5199485779e+01    4.3401401490e-02
    6.5298767090e+01    4.3636798859e-02
    6.5398094177e+01    4.3873399496e-02
    6.5498542786e+01    4.4114001095e-02
    6.5599021912e+01    4.4355999678e-02
    6.5698654175e+01    4.4597201049e-02
    6.5798309326e+01    4.4839698821e-02
    6.5898796082e+01    4.5085500926e-02
    6.5999298096e+01    4.5332599431e-02
    6.6099357605e+01    4.5579899102e-02
    6.6198089600e+01    4.5825000852e-02
    6.6298568726e+01    4.6075701714e-02
    6.6399055481e+01    4.6327598393e-02
    6.6499374390e+01    4.6580299735e-02
    6.6598571777e+01    4.6831298620e-02
    6.6699279785e+01    4.7087300569e-02
    6.6798873901e+01    4.7341700643e-02
    6.6898162842e+01    4.7596599907e-02
    6.6998817444e+01    4.7856200486e-02
    6.7099456787e+01    4.8117101192e-02
    6.7198554993e+01    4.8375200480e-02
    6.7298095703e+01    4.8635698855e-02
    6.7398475647e+01    4.8899699003e-02
    6.7498878479e+01    4.9164999276e-02
    6.7599319458e+01    4.9431499094e-02
    6.7698173523e+01    4.9694899470e-02
    6.7798675537e+01    4.9963798374e-02
    6.7898078918e+01    5.0230801105e-02
    6.7998870850e+01    5.0502501428e-02
    6.8098144531e+01    5.0771098584e-02
    6.8198066711e+01    5.1042299718e-02
    6.8298637390e+01    5.1316101104e-02
    6.8399040222e+01    5.1590200514e-02
    6.8498031616e+01    5.1861301064e-02
    6.8599357605e+01    5.2139498293e-02
    6.8698394775e+01    5.2412301302e-02
    6.8799079895e+01    5.2690301090e-02
    6.8898124695e+01    5.2964501083e-02
    6.8999107361e+01    5.3244899958e-02
    6.9098579407e+01    5.3521800786e-02
    6.9198295593e+01    5.3800199181e-02
    6.9299041748e+01    5.4082099348e-02
    6.9399078369e+01    5.4362799972e-02
    6.9498542786e+01    5.4642498493e-02
    6.9599403381e+01    5.4926801473e-02
    6.9698539734e+01    5.5206801742e-02
    6.9799308777e+01    5.5491998792e-02
    6.9898460388e+01    5.5773101747e-02
    6.9999237061e+01    5.6059401482e-02
    7.0098388672e+01    5.6341599673e-02
    7.0198394775e+01    5.6626699865e-02
    7.0298057556e+01    5.6911401451e-02
    7.0399032593e+01    5.7200301439e-02
    7.0498466492e+01    5.7485301048e-02
    7.0599403381e+01    5.7775199413e-02
    7.0698791504e+01    5.8061201125e-02
    7.0798881531e+01    5.8349799365e-02
    7.0898231506e+01    5.8636900038e-02
    7.0999336243e+01    5.8929800987e-02
    7.1098709106e+01    5.9218298644e-02
    7.1198707581e+01    5.9509299695e-02
    7.1299278259e+01    5.9802699834e-02
    7.1398231506e+01    6.0092099011e-02
    7.1498794556e+01    6.0387000442e-02
    7.1598716736e+01    6.0680799186e-02
    7.1697982788e+01    6.0973498970e-02
    7.1798751831e+01    6.1271399260e-02
    7.1897949219e+01    6.1565499753e-02
    7.1998519897e+01    6.1864599586e-02
    7.2098945618e+01    6.2164101750e-02
    7.2199378967e+01    6.2464598566e-02
    7.2298210144e+01    6.2761098146e-02
    7.2398147583e+01    6.3061900437e-02
    7.2498870850e+01    6.3365899026e-02
    7.2598121643e+01    6.3666403294e-02
    7.2698532104e+01    6.3971199095e-02
    7.2799018860e+01    6.4277097583e-02
    7.2898773193e+01    6.4581699669e-02
    7.2997962952e+01    6.4885497093e-02
    7.3098670959e+01    6.5194897354e-02
    7.3199371338e+01    6.5505303442e-02
    7.3298095703e+01    6.5810598433e-02
    7.3398689270e+01    6.6122800112e-02
    7.3498687744e+01    6.6434100270e-02
    7.3597930908e+01    6.6744297743e-02
    7.3698081970e+01    6.7058302462e-02
    7.3798294067e+01    6.7373700440e-02
    7.3898818970e+01    6.7691296339e-02
    7.3999389648e+01    6.8010099232e-02
    7.4098358154e+01    6.8324901164e-02
    7.4198646545e+01    6.8645097315e-02
    7.4297996521e+01    6.8963199854e-02
    7.4398872375e+01    6.9287396967e-02
    7.4498786926e+01    6.9609500468e-02
    7.4598777771e+01    6.9932997227e-02
    7.4698471069e+01    7.0256598294e-02
    7.4799293518e+01    7.0584997535e-02
    7.4898551941e+01    7.0909500122e-02
    7.4998977661e+01    7.1239002049e-02
    7.5099006653e+01    7.1568496525e-02
    7.5198219299e+01    7.1896500885e-02
    7.5298927307e+01    7.2230800986e-02
    7.5399108887e+01    7.2564698756e-02
    7.5498382568e+01    7.2896897793e-02
    7.5598762512e+01    7.3234200478e-02
    7.5699150085e+01    7.3572896421e-02
    7.5798500061e+01    7.3909401894e-02
    7.5898895264e+01    7.4250802398e-02
    7.5999313354e+01    7.4593603611e-02
    7.6099197388e+01    7.4935697019e-02
    7.6198791504e+01    7.5278200209e-02
    7.6298805237e+01    7.5623303652e-02
    7.6399192810e+01    7.5970999897e-02
    7.6499221802e+01    7.6318599284e-02
    7.6598320007e+01    7.6664201915e-02
    7.6698913574e+01    7.7016301453e-02
    7.6799156189e+01    7.7368400991e-02
    7.6899078369e+01    7.7720597386e-02
    7.6998100281e+01    7.8070901334e-02
    7.7098617554e+01    7.8427799046e-02
    7.7199111938e+01    7.8785896301e-02
    7.7298439026e+01    7.9141199589e-02
    7.7398689270e+01    7.9501003027e-02
    7.7498970032e+01    7.9862102866e-02
    7.7599281311e+01    8.0224499106e-02
    7.7698013306e+01    8.0582298338e-02
    7.7798393250e+01    8.0947197974e-02
    7.7898521423e+01    8.1312201917e-02
    7.7999191284e+01    8.1680096686e-02
    7.8098335266e+01    8.2043401897e-02
    7.8197845459e+01    8.2408800721e-02
    7.8298294067e+01    8.2778498530e-02
    7.8398773193e+01    8.3149097860e-02
    7.8499282837e+01    8.3520598710e-02
    7.8598693848e+01    8.3888702095e-02
    7.8699264526e+01    8.4261797369e-02
    7.8798240662e+01    8.4629699588e-02
    7.8898727417e+01    8.5003800690e-02
    7.8998100281e+01    8.5374601185e-02
    7.9099014282e+01    8.5751697421e-02
    7.9198646545e+01    8.6124800146e-02
    7.9299301147e+01    8.6502298713e-02
    7.9398857117e+01    8.6876302958e-02
    7.9498237610e+01    8.7250299752e-02
    7.9598648071e+01    8.7628796697e-02
    7.9699325562e+01    8.8008701801e-02
    7.9798385620e+01    8.8383100927e-02
    7.9899085999e+01    8.8764198124e-02
    7.9998161316e+01    8.9139603078e-02
    8.0098861694e+01    8.9521497488e-02
    8.0197929382e+01    8.9897796512e-02
    8.0298751831e+01    9.0281099081e-02
    8.0398132324e+01    9.0659402311e-02
    8.0499023438e+01    9.1043800116e-02
    8.0598365784e+01    9.1422900558e-02
    8.0699211121e+01    9.1808103025e-02
    8.0798362732e+01    9.2187397182e-02
    8.0899169922e+01    9.2573598027e-02
    8.0998023987e+01    9.2952899635e-02
    8.1099250793e+01    9.3341901898e-02
    8.1198242188e+01    9.3722999096e-02
    8.1298713684e+01    9.4110399485e-02
    8.1399169922e+01    9.4498500228e-02
    8.1498008728e+01    9.4881102443e-02
    8.1599243164e+01    9.5273800194e-02
    8.1698394775e+01    9.5659099519e-02
    8.1799026489e+01    9.6051096916e-02
    8.1898094177e+01    9.6437796950e-02
    8.1998344421e+01    9.6830002964e-02
    8.2098625183e+01    9.7223296762e-02
    8.2198913574e+01    9.7617402673e-02
    8.2299217224e+01    9.8012596369e-02
    8.2397872925e+01    9.8402097821e-02
    8.2498443604e+01    9.8800100386e-02
    8.2598587036e+01    9.9197201431e-02
    8.2698928833e+01    9.9596001208e-02
    8.2799247742e+01    9.9995598197e-02
    8.2898834229e+01    1.0039299726e-01
    8.2997856140e+01    1.0078900307e-01
    8.3098388672e+01    1.0119300336e-01
    8.3198905945e+01    1.0159700364e-01
    8.3298507690e+01    1.0199800134e-01
    8.3398628235e+01    1.0240300000e-01
    8.3498840332e+01    1.0280899704e-01
    8.3598663330e+01    1.0321500152e-01
    8.3698081970e+01    1.0362099856e-01
    8.3798988342e+01    1.0403300077e-01
    8.3897727966e+01    1.0443799943e-01
    8.3998138428e+01    1.0485100001e-01
    8.4098587036e+01    1.0526499897e-01
    8.4198059082e+01    1.0567600280e-01
    8.4298797607e+01    1.0609400272e-01
    8.4398010254e+01    1.0650599748e-01
    8.4498764038e+01    1.0692600161e-01
    8.4597770691e+01    1.0733900219e-01
    8.4698585510e+01    1.0776100308e-01
    8.4797760010e+01    1.0817699879e-01
    8.4898429871e+01    1.0860099643e-01
    8.4998825073e+01    1.0902500153e-01
    8.5098945618e+01    1.0944800079e-01
    8.5198036194e+01    1.0986900330e-01
    8.5298629761e+01    1.1029700190e-01
    8.5398887634e+01    1.1072500050e-01
    8.5498062134e+01    1.1114899814e-01
    8.5598335266e+01    1.1157999933e-01
    8.5698608398e+01    1.1201199889e-01
    8.5798507690e+01    1.1244399846e-01
    8.5898803711e+01    1.1287800223e-01
    8.5999130249e+01    1.1331400275e-01
    8.6098640442e+01    1.1374700069e-01
    8.6199195862e+01    1.1418599635e-01
    8.6298072815e+01    1.1461900175e-01
    8.6398361206e+01    1.1505900323e-01
    8.6498855591e+01    1.1550100148e-01
    8.6597862244e+01    1.1593800038e-01
    8.6698356628e+01    1.1638200283e-01
    8.6798484802e+01    1.1682599783e-01
    8.6898498535e+01    1.1727000028e-01
    8.6998924255e+01    1.1771699786e-01
    8.7097801208e+01    1.1815900356e-01
    8.7198173523e+01    1.1860799789e-01
    8.7298309326e+01    1.1905799806e-01
    8.7398429871e+01    1.1950799823e-01
    8.7498573303e+01    1.1996000260e-01
    8.7598747253e+01    1.2041199952e-01
    8.7698951721e+01    1.2086600065e-01
    8.7799179077e+01    1.2132100016e-01
    8.7897918701e+01    1.2177000195e-01
    8.7998443604e+01    1.2222799659e-01
    8.8098976135e+01    1.2268699706e-01
    8.8198997498e+01    1.2314400077e-01
    8.8297691345e+01    1.2359499931e-01
    8.8398033142e+01    1.2405499816e-01
    8.8498413086e+01    1.2451600283e-01
    8.8597984314e+01    1.2497299910e-01
    8.8698921204e+01    1.2543700635e-01
    8.8797782898e+01    1.2589199841e-01
    8.8898147583e+01    1.2635500729e-01
    8.8998939514e+01    1.2681999803e-01
    8.9098205566e+01    1.2727800012e-01
    8.9199073792e+01    1.2774500251e-01
    8.9297981262e+01    1.2820200622e-01
    8.9398658752e+01    1.2866899371e-01
    8.9497917175e+01    1.2912899256e-01
    8.9598388672e+01    1.2959599495e-01
    8.9698928833e+01    1.3006299734e-01
    8.9797874451e+01    1.3052299619e-01
    8.9898452759e+01    1.3099099696e-01
    8.9999046326e+01    1.3145899773e-01
    9.0098007202e+01    1.3191999495e-01
    9.0198593140e+01    1.3238899410e-01
    9.0298278809e+01    1.3285399973e-01
    9.0399085999e+01    1.3332499564e-01
    9.0498336792e+01    1.3378800452e-01
    9.0599113464e+01    1.3425900042e-01
    9.0698715210e+01    1.3472500443e-01
    9.0798736572e+01    1.3519300520e-01
    9.0897918701e+01    1.3565699756e-01
    9.0998588562e+01    1.3612900674e-01
    9.1097702026e+01    1.3659399748e-01
    9.1198005676e+01    1.3706499338e-01
    9.1298339844e+01    1.3753700256e-01
    9.1398674011e+01    1.3800899684e-01
    9.1498992920e+01    1.3848200440e-01
    9.1599052429e+01    1.3895499706e-01
    9.1698066711e+01    1.3942299783e-01
    9.1798553467e+01    1.3989800215e-01
    9.1898986816e+01    1.4037500322e-01
    9.1997833252e+01    1.4084400237e-01
    9.2097953796e+01    1.4132100344e-01
    9.2198081970e+01    1.4179800451e-01
    9.2298233032e+01    1.4227600396e-01
    9.2398345947e+01    1.4275500178e-01
    9.2498764038e+01    1.4323599637e-01
    9.2598083496e+01    1.4371199906e-01
    9.2699035645e+01    1.4419700205e-01
    9.2797569275e+01    1.4467099309e-01
    9.2897949219e+01    1.4515399933e-01
    9.2998306274e+01    1.4563900232e-01
    9.3098655701e+01    1.4612400532e-01
    9.3198982239e+01    1.4661000669e-01
    9.3298011780e+01    1.4709000289e-01
    9.3397842407e+01    1.4757600427e-01
    9.3499000549e+01    1.4806899428e-01
    9.3598716736e+01    1.4855599403e-01
    9.3699081421e+01    1.4904700220e-01
    9.3797912598e+01    1.4953200519e-01
    9.3897895813e+01    1.5002299845e-01
    9.3998115540e+01    1.5051700175e-01
    9.4098388672e+01    1.5101200342e-01
    9.4197883606e+01    1.5150499344e-01
    9.4298469543e+01    1.5200300515e-01
    9.4397819519e+01    1.5249699354e-01
    9.4498794556e+01    1.5299899876e-01
    9.4598228455e+01    1.5349400043e-01
    9.4699005127e+01    1.5399800241e-01
    9.4798049927e+01    1.5449300408e-01
    9.4898864746e+01    1.5499800444e-01
    9.4997505188e+01    1.5549300611e-01
    9.5098075867e+01    1.5599900484e-01
    9.5198554993e+01    1.5650600195e-01
    9.5299003601e+01    1.5701299906e-01
    9.5397895813e+01    1.5751400590e-01
    9.5498283386e+01    1.5802399814e-01
    9.5597854614e+01    1.5852999687e-01
    9.5697975159e+01    1.5904100239e-01
    9.5798103333e+01    1.5955300629e-01
    9.5898262024e+01    1.6006499529e-01
    9.5998458862e+01    1.6057999432e-01
    9.6098693848e+01    1.6109499335e-01
    9.6197608948e+01    1.6160400212e-01
    9.6298835754e+01    1.6212600470e-01
    9.6399009705e+01    1.6264399886e-01
    9.6497978210e+01    1.6315600276e-01
    9.6598396301e+01    1.6367700696e-01
    9.6698791504e+01    1.6419799626e-01
    9.6798995972e+01    1.6471900046e-01
    9.6899085999e+01    1.6524100304e-01
    9.6997871399e+01    1.6575600207e-01
    9.7098136902e+01    1.6628000140e-01
    9.7198371887e+01    1.6680499911e-01
    9.7298835754e+01    1.6733199358e-01
    9.7398796082e+01    1.6785800457e-01
    9.7498764038e+01    1.6838400066e-01
    9.7598762512e+01    1.6891099513e-01
    9.7698776245e+01    1.6943900287e-01
    9.7798820496e+01    1.6996900737e-01
    9.7897666931e+01    1.7049199343e-01
    9.7998001099e+01    1.7102399468e-01
    9.8098442078e+01    1.7155699432e-01
    9.8198554993e+01    1.7208899558e-01
    9.8298698425e+01    1.7262199521e-01
    9.8398887634e+01    1.7315499485e-01
    9.8497497559e+01    1.7367999256e-01
    9.8597778320e+01    1.7421500385e-01
    9.8698692322e+01    1.7475299537e-01
    9.8799034119e+01    1.7528800666e-01
    9.8898605347e+01    1.7581899464e-01
    9.8997726440e+01    1.7634899914e-01
    9.9098381042e+01    1.7688700557e-01
    9.9198158264e+01    1.7742000520e-01
    9.9297866821e+01    1.7795400321e-01
    9.9398483276e+01    1.7849299312e-01
    9.9497573853e+01    1.7902399600e-01
    9.9599006653e+01    1.7956699431e-01
    9.9697753906e+01    1.8009699881e-01
    9.9798133850e+01    1.8063600361e-01
    9.9898544312e+01    1.8117499352e-01
    9.9998962402e+01    1.8171399832e-01
    1.0009777832e+02    1.8224500120e-01
    1.0019821167e+02    1.8278500438e-01
    1.0029888916e+02    1.8332600594e-01
    1.0039781952e+02    1.8385800719e-01
    1.0049822998e+02    1.8439799547e-01
    1.0059887695e+02    1.8493899703e-01
    1.0069798279e+02    1.8547199667e-01
    1.0079834747e+02    1.8601199985e-01
    1.0089894104e+02    1.8655399978e-01
    1.0099797058e+02    1.8708699942e-01
    1.0109847260e+02    1.8762899935e-01
    1.0119817352e+02    1.8816600740e-01
    1.0129834747e+02    1.8870699406e-01
    1.0139852905e+02    1.8924799562e-01
    1.0149870300e+02    1.8978899717e-01
    1.0159868622e+02    1.9032999873e-01
    1.0169754028e+02    1.9086499512e-01
    1.0179785156e+02    1.9140900671e-01
    1.0189808655e+02    1.9195400178e-01
    1.0199855042e+02    1.9249999523e-01
    1.0209848785e+02    1.9304400682e-01
    1.0219844055e+02    1.9358800352e-01
    1.0229840851e+02    1.9413399696e-01
    1.0239816284e+02    1.9467900693e-01
    1.0249878693e+02    1.9522899389e-01
    1.0259880066e+02    1.9577699900e-01
    1.0269789124e+02    1.9631899893e-01
    1.0279759979e+02    1.9686600566e-01
    1.0289856720e+02    1.9742099941e-01
    1.0299875641e+02    1.9797100127e-01
    1.0309892273e+02    1.9852200150e-01
    1.0319754028e+02    1.9906599820e-01
    1.0329884338e+02    1.9962500036e-01
    1.0339807892e+02    2.0017300546e-01
    1.0349862671e+02    2.0072999597e-01
    1.0359784698e+02    2.0127999783e-01
    1.0369799042e+02    2.0183700323e-01
    1.0379820251e+02    2.0239500701e-01
    1.0389814758e+02    2.0295299590e-01
    1.0399816132e+02    2.0351199806e-01
    1.0409822845e+02    2.0407199860e-01
    1.0419790649e+02    2.0463100076e-01
    1.0429830170e+02    2.0519499481e-01
    1.0439785767e+02    2.0575399697e-01
    1.0449749756e+02    2.0631599426e-01
    1.0459821320e+02    2.0688299835e-01
    1.0469891357e+02    2.0745199919e-01
    1.0479779816e+02    2.0801100135e-01
    1.0489872742e+02    2.0858299732e-01
    1.0499881744e+02    2.0915000141e-01
    1.0509835815e+02    2.0971600711e-01
    1.0519866180e+02    2.1028600633e-01
    1.0529892731e+02    2.1085800231e-01
    1.0539762878e+02    2.1142099798e-01
    1.0549781036e+02    2.1199400723e-01
    1.0559812164e+02    2.1256899834e-01
    1.0569802856e+02    2.1314300597e-01
    1.0579797363e+02    2.1371799707e-01
    1.0589794159e+02    2.1429400146e-01
    1.0599794769e+02    2.1487100422e-01
    1.0609821320e+02    2.1545100212e-01
    1.0619876862e+02    2.1603299677e-01
    1.0629879761e+02    2.1661299467e-01
    1.0639884186e+02    2.1719400585e-01
    1.0649861145e+02    2.1777400374e-01
    1.0659890747e+02    2.1835699677e-01
    1.0669764709e+02    2.1893200278e-01
    1.0679782104e+02    2.1951699257e-01
    1.0689777374e+02    2.2010000050e-01
    1.0699813080e+02    2.2068700194e-01
    1.0709822845e+02    2.2127300501e-01
    1.0719830322e+02    2.2185899317e-01
    1.0729747772e+02    2.2244200110e-01
    1.0739781952e+02    2.2303099930e-01
    1.0749749756e+02    2.2361800075e-01
    1.0759887695e+02    2.2421599925e-01
    1.0769866943e+02    2.2480499744e-01
    1.0779847717e+02    2.2539399564e-01
    1.0789862061e+02    2.2598700225e-01
    1.0799873352e+02    2.2657999396e-01
    1.0809854889e+02    2.2717100382e-01
    1.0819844818e+02    2.2776399553e-01
    1.0829839325e+02    2.2835700214e-01
    1.0839837646e+02    2.2895100713e-01
    1.0849842834e+02    2.2954499722e-01
    1.0859854126e+02    2.3014000058e-01
    1.0869870758e+02    2.3073600233e-01
    1.0879804230e+02    2.3132599890e-01
    1.0889849854e+02    2.3192399740e-01
    1.0899745178e+02    2.3251299560e-01
    1.0909792328e+02    2.3311099410e-01
    1.0919837952e+02    2.3370899260e-01
    1.0929881287e+02    2.3430800438e-01
    1.0939768982e+02    2.3489800096e-01
    1.0949806976e+02    2.3549699783e-01
    1.0959860992e+02    2.3609699309e-01
    1.0969873810e+02    2.3669500649e-01
    1.0979888916e+02    2.3729400337e-01
    1.0989743805e+02    2.3788300157e-01
    1.0999764252e+02    2.3848199844e-01
    1.1009784698e+02    2.3908199370e-01
    1.1019806671e+02    2.3968100548e-01
    1.1029750061e+02    2.4027599394e-01
    1.1039803314e+02    2.4087800086e-01
    1.1049826050e+02    2.4147799611e-01
    1.1059835052e+02    2.4207699299e-01
    1.1069815826e+02    2.4267500639e-01
    1.1079779816e+02    2.4327099323e-01
    1.1089824677e+02    2.4387300014e-01
    1.1099864960e+02    2.4447399378e-01
    1.1109748840e+02    2.4506600201e-01
    1.1119779205e+02    2.4566699564e-01
    1.1129824066e+02    2.4627000093e-01
    1.1139797211e+02    2.4686799943e-01
    1.1149794006e+02    2.4746899307e-01
    1.1159764862e+02    2.4806800485e-01
    1.1169780731e+02    2.4867099524e-01
    1.1179788971e+02    2.4927400053e-01
    1.1189791107e+02    2.4987700582e-01
    1.1199832153e+02    2.5048300624e-01
    1.1209802246e+02    2.5108599663e-01
    1.1219774628e+02    2.5169000030e-01
    1.1229752350e+02    2.5229400396e-01
    1.1239769745e+02    2.5290200114e-01
    1.1249874878e+02    2.5351500511e-01
    1.1259858704e+02    2.5412198901e-01
    1.1269844055e+02    2.5472798944e-01
    1.1279827118e+02    2.5533500314e-01
    1.1289792633e+02    2.5594198704e-01
    1.1299793243e+02    2.5655099750e-01
    1.1309790802e+02    2.5716099143e-01
    1.1319786072e+02    2.5777098536e-01
    1.1329754639e+02    2.5837999582e-01
    1.1339761353e+02    2.5899198651e-01
    1.1349858856e+02    2.5961101055e-01
    1.1359841156e+02    2.6022401452e-01
    1.1369828033e+02    2.6083800197e-01
    1.1379739380e+02    2.6144900918e-01
    1.1389837646e+02    2.6207199693e-01
    1.1399813080e+02    2.6268899441e-01
    1.1409793854e+02    2.6330700517e-01
    1.1419764709e+02    2.6392599940e-01
    1.1429779816e+02    2.6454800367e-01
    1.1439766693e+02    2.6517000794e-01
    1.1449852753e+02    2.6579800248e-01
    1.1459780121e+02    2.6641699672e-01
    1.1469750977e+02    2.6704001427e-01
    1.1479772949e+02    2.6766699553e-01
    1.1489826202e+02    2.6829600334e-01
    1.1499815369e+02    2.6892200112e-01
    1.1509851837e+02    2.6955199242e-01
    1.1519860077e+02    2.7018100023e-01
    1.1529863739e+02    2.7081099153e-01
    1.1539862061e+02    2.7144199610e-01
    1.1549854279e+02    2.7207401395e-01
    1.1559774780e+02    2.7270200849e-01
    1.1569737244e+02    2.7333399653e-01
    1.1579863739e+02    2.7397799492e-01
    1.1589833832e+02    2.7461299300e-01
    1.1599809265e+02    2.7524900436e-01
    1.1609742737e+02    2.7588400245e-01
    1.1619766235e+02    2.7652600408e-01
    1.1629746246e+02    2.7716499567e-01
    1.1639727783e+02    2.7780601382e-01
    1.1649874878e+02    2.7845799923e-01
    1.1659828186e+02    2.7909800410e-01
    1.1669835663e+02    2.7974200249e-01
    1.1679872894e+02    2.8038901091e-01
    1.1689813232e+02    2.8102999926e-01
    1.1699812317e+02    2.8167599440e-01
    1.1709803772e+02    2.8232198954e-01
    1.1719789886e+02    2.8296801448e-01
    1.1729772186e+02    2.8361600637e-01
    1.1739749146e+02    2.8426301479e-01
    1.1749807739e+02    2.8491699696e-01
    1.1759757233e+02    2.8556498885e-01
    1.1769866943e+02    2.8622400761e-01
    1.1779818726e+02    2.8687399626e-01
    1.1789737701e+02    2.8752198815e-01
    1.1799870300e+02    2.8818500042e-01
    1.1809850311e+02    2.8883901238e-01
    1.1819811249e+02    2.8949201107e-01
    1.1829779816e+02    2.9014599323e-01
    1.1839755249e+02    2.9080098867e-01
    1.1849736786e+02    2.9145601392e-01
    1.1859726715e+02    2.9211300611e-01
    1.1869722748e+02    2.9276999831e-01
    1.1879788971e+02    2.9343199730e-01
    1.1889816284e+02    2.9409199953e-01
    1.1899844360e+02    2.9475200176e-01
    1.1909870911e+02    2.9541200399e-01
    1.1919743347e+02    2.9606300592e-01
    1.1929763031e+02    2.9672399163e-01
    1.1939778137e+02    2.9738399386e-01
    1.1949787140e+02    2.9804500937e-01
    1.1959718323e+02    2.9870200157e-01
    1.1969860840e+02    2.9937198758e-01
    1.1979844666e+02    3.0003300309e-01
    1.1989830780e+02    3.0069500208e-01
    1.1999819946e+02    3.0135700107e-01
    1.2009810638e+02    3.0201900005e-01
    1.2019803619e+02    3.0268201232e-01
    1.2029746246e+02    3.0334201455e-01
    1.2039837646e+02    3.0401200056e-01
    1.2049838257e+02    3.0467599630e-01
    1.2059731293e+02    3.0533298850e-01
    1.2069747925e+02    3.0599901080e-01
    1.2079750824e+02    3.0666399002e-01
    1.2089788055e+02    3.0733099580e-01
    1.2099810791e+02    3.0799698830e-01
    1.2109828949e+02    3.0866301060e-01
    1.2119840240e+02    3.0932900310e-01
    1.2129788971e+02    3.0999198556e-01
    1.2139817047e+02    3.1066000462e-01
    1.2149790955e+02    3.1132501364e-01
    1.2159729004e+02    3.1198900938e-01
    1.2169869995e+02    3.1266701221e-01
    1.2179850769e+02    3.1333500147e-01
    1.2189823914e+02    3.1400299072e-01
    1.2199845123e+02    3.1467500329e-01
    1.2209786987e+02    3.1534299254e-01
    1.2219731903e+02    3.1601199508e-01
    1.2229843140e+02    3.1669300795e-01
    1.2239797974e+02    3.1736499071e-01
    1.2249756622e+02    3.1803700328e-01
    1.2259719849e+02    3.1870999932e-01
    1.2269846344e+02    3.1939399242e-01
    1.2279811096e+02    3.2006800175e-01
    1.2289813995e+02    3.2074400783e-01
    1.2299794769e+02    3.2142001390e-01
    1.2309818268e+02    3.2210001349e-01
    1.2319792175e+02    3.2277598977e-01
    1.2329759979e+02    3.2345300913e-01
    1.2339721680e+02    3.2413101196e-01
    1.2349726105e+02    3.2481199503e-01
    1.2359774017e+02    3.2549801469e-01
    1.2369730377e+02    3.2617801428e-01
    1.2379833984e+02    3.2687100768e-01
    1.2389852142e+02    3.2755801082e-01
    1.2399794006e+02    3.2824200392e-01
    1.2409837341e+02    3.2893401384e-01
    1.2419815826e+02    3.2962301373e-01
    1.2429711914e+02    3.3030799031e-01
    1.2439836121e+02    3.3100900054e-01
    1.2449759674e+02    3.3169800043e-01
    1.2459809875e+02    3.3239600062e-01
    1.2469780731e+02    3.3309000731e-01
    1.2479802704e+02    3.3378800750e-01
    1.2489716339e+02    3.3447900414e-01
    1.2499838257e+02    3.3518600464e-01
    1.2509752655e+02    3.3588001132e-01
    1.2519734955e+02    3.3657899499e-01
    1.2529862213e+02    3.3728998899e-01
    1.2539830780e+02    3.3799099922e-01
    1.2549793243e+02    3.3869299293e-01
    1.2559748840e+02    3.3939599991e-01
    1.2569809723e+02    3.4010699391e-01
    1.2579741669e+02    3.4081199765e-01
    1.2589839172e+02    3.4152901173e-01
    1.2599781036e+02    3.4223699570e-01
    1.2609860229e+02    3.4295600653e-01
    1.2619831085e+02    3.4366801381e-01
    1.2629731750e+02    3.4437701106e-01
    1.2639843750e+02    3.4510201216e-01
    1.2649800873e+02    3.4581699967e-01
    1.2659857941e+02    3.4654000401e-01
    1.2669841766e+02    3.4725901484e-01
    1.2679750061e+02    3.4797298908e-01
    1.2689707184e+02    3.4869098663e-01
    1.2699855804e+02    3.4942400455e-01
    1.2709826660e+02    3.5014501214e-01
    1.2719792938e+02    3.5086700320e-01
    1.2729753876e+02    3.5158899426e-01
    1.2739856720e+02    3.5232201219e-01
    1.2749803925e+02    3.5304600000e-01
    1.2759748077e+02    3.5376998782e-01
    1.2769715118e+02    3.5449600220e-01
    1.2779794312e+02    3.5523200035e-01
    1.2789859772e+02    3.5596901178e-01
    1.2799804688e+02    3.5669699311e-01
    1.2809729004e+02    3.5742500424e-01
    1.2819816589e+02    3.5816600919e-01
    1.2829751587e+02    3.5889598727e-01
    1.2839854431e+02    3.5964000225e-01
    1.2849806213e+02    3.6037299037e-01
    1.2859768677e+02    3.6110699177e-01
    1.2869737244e+02    3.6184200644e-01
    1.2879791260e+02    3.6258399487e-01
    1.2889794922e+02    3.6332300305e-01
    1.2899801636e+02    3.6406201124e-01
    1.2909805298e+02    3.6480098963e-01
    1.2919807434e+02    3.6554101110e-01
    1.2929803467e+02    3.6628100276e-01
    1.2939791870e+02    3.6702200770e-01
    1.2949772644e+02    3.6776199937e-01
    1.2959745789e+02    3.6850199103e-01
    1.2969772339e+02    3.6924698949e-01
    1.2979719543e+02    3.6998701096e-01
    1.2989828491e+02    3.7073999643e-01
    1.2999778748e+02    3.7148201466e-01
    1.3009729004e+02    3.7222498655e-01
    1.3019845581e+02    3.7297999859e-01
    1.3029803467e+02    3.7372499704e-01
    1.3039767456e+02    3.7446999550e-01
    1.3049737549e+02    3.7521600723e-01
    1.3059793091e+02    3.7597000599e-01
    1.3069831848e+02    3.7672200799e-01
    1.3079812622e+02    3.7746998668e-01
    1.3089779663e+02    3.7821799517e-01
    1.3099781799e+02    3.7896800041e-01
    1.3109779358e+02    3.7971898913e-01
    1.3119770813e+02    3.8046899438e-01
    1.3129783630e+02    3.8122200966e-01
    1.3139874268e+02    3.8198098540e-01
    1.3149824524e+02    3.8273099065e-01
    1.3159841919e+02    3.8348600268e-01
    1.3169802856e+02    3.8423800468e-01
    1.3179753113e+02    3.8499000669e-01
    1.3189843750e+02    3.8575398922e-01
    1.3199801636e+02    3.8650900126e-01
    1.3209866333e+02    3.8727399707e-01
    1.3219776917e+02    3.8802701235e-01
    1.3229852295e+02    3.8879498839e-01
    1.3239776611e+02    3.8955199718e-01
    1.3249865723e+02    3.9032199979e-01
    1.3259802246e+02    3.9108198881e-01
    1.3269741821e+02    3.9184200764e-01
    1.3279843140e+02    3.9261499047e-01
    1.3289776611e+02    3.9337599277e-01
    1.3299734497e+02    3.9413899183e-01
    1.3309744263e+02    3.9490699768e-01
    1.3319845581e+02    3.9568299055e-01
    1.3329789734e+02    3.9644798636e-01
    1.3339875793e+02    3.9722400904e-01
    1.3349804688e+02    3.9798998833e-01
    1.3359878540e+02    3.9876800776e-01
    1.3369798279e+02    3.9953601360e-01
    1.3379864502e+02    4.0031701326e-01
    1.3389779663e+02    4.0108698606e-01
    1.3399839783e+02    4.0187099576e-01
    1.3409788513e+02    4.0264800191e-01
    1.3419876099e+02    4.0343698859e-01
    1.3429833984e+02    4.0421798825e-01
    1.3439755249e+02    4.0499699116e-01
    1.3449792480e+02    4.0578699112e-01
    1.3459765625e+02    4.0657299757e-01
    1.3469857788e+02    4.0737000108e-01
    1.3479898071e+02    4.0816399455e-01
    1.3489746094e+02    4.0894401073e-01
    1.3499833679e+02    4.0974399447e-01
    1.3509762573e+02    4.1053199768e-01
    1.3519865417e+02    4.1133600473e-01
    1.3529809570e+02    4.1212901473e-01
    1.3539900208e+02    4.1293498874e-01
    1.3549830627e+02    4.1372901201e-01
    1.3559901428e+02    4.1453701258e-01
    1.3569825745e+02    4.1533499956e-01
    1.3579881287e+02    4.1614499688e-01
    1.3589782715e+02    4.1694399714e-01
    1.3599882507e+02    4.1776099801e-01
    1.3609780884e+02    4.1856399179e-01
    1.3619860840e+02    4.1938298941e-01
    1.3629872131e+02    4.2019900680e-01
    1.3639782715e+02    4.2100700736e-01
    1.3649859619e+02    4.2183101177e-01
    1.3659780884e+02    4.2264300585e-01
    1.3669842529e+02    4.2346799374e-01
    1.3679768372e+02    4.2428201437e-01
    1.3689859009e+02    4.2511200905e-01
    1.3699830627e+02    4.2593199015e-01
    1.3709779358e+02    4.2675200105e-01
    1.3719877625e+02    4.2758399248e-01
    1.3729818726e+02    4.2840498686e-01
    1.3739898682e+02    4.2923900485e-01
    1.3749821472e+02    4.3005999923e-01
    1.3759890747e+02    4.3089500070e-01
    1.3769900513e+02    4.3172600865e-01
    1.3779789734e+02    4.3254798651e-01
    1.3789869690e+02    4.3338799477e-01
    1.3799778748e+02    4.3421500921e-01
    1.3809777832e+02    4.3505001068e-01
    1.3819825745e+02    4.3589100242e-01
    1.3829881287e+02    4.3673300743e-01
    1.3839785767e+02    4.3756398559e-01
    1.3849859619e+02    4.3841001391e-01
    1.3859786987e+02    4.3924498558e-01
    1.3869885254e+02    4.4009500742e-01
    1.3879890442e+02    4.4093701243e-01
    1.3889868164e+02    4.4177800417e-01
    1.3899847412e+02    4.4261899590e-01
    1.3909825134e+02    4.4346100092e-01
    1.3919912720e+02    4.4431298971e-01
    1.3929815674e+02    4.4514998794e-01
    1.3939779663e+02    4.4599300623e-01
    1.3949882507e+02    4.4684800506e-01
    1.3959825134e+02    4.4769001007e-01
    1.3969923401e+02    4.4854700565e-01
    1.3979832458e+02    4.4938901067e-01
    1.3989828491e+02    4.5023900270e-01
    1.3999815369e+02    4.5109000802e-01
    1.4009883118e+02    4.5194798708e-01
    1.4019793701e+02    4.5279398561e-01
    1.4029869080e+02    4.5365500450e-01
    1.4039790344e+02    4.5450401306e-01
    1.4049880981e+02    4.5536899567e-01
    1.4059927368e+02    4.5623001456e-01
    1.4069894409e+02    4.5708501339e-01
    1.4079841614e+02    4.5793899894e-01
    1.4089863586e+02    4.5879998803e-01
    1.4099836731e+02    4.5965799689e-01
    1.4109806824e+02    4.6051600575e-01
    1.4119786072e+02    4.6137499809e-01
    1.4129887390e+02    4.6224498749e-01
    1.4139828491e+02    4.6310201287e-01
    1.4149916077e+02    4.6397298574e-01
    1.4159887695e+02    4.6483498812e-01
    1.4169822693e+02    4.6569401026e-01
    1.4179895020e+02    4.6656700969e-01
    1.4189804077e+02    4.6742698550e-01
    1.4199853516e+02    4.6830001473e-01
    1.4209884644e+02    4.6917301416e-01
    1.4219917297e+02    4.7004801035e-01
    1.4229794312e+02    4.7091001272e-01
    1.4239839172e+02    4.7178798914e-01
    1.4249891663e+02    4.7266900539e-01
    1.4259791565e+02    4.7353601456e-01
    1.4269854736e+02    4.7441899776e-01
    1.4279920959e+02    4.7530299425e-01
    1.4289848328e+02    4.7617599368e-01
    1.4299862671e+02    4.7705700994e-01
    1.4309934998e+02    4.7794398665e-01
    1.4319859314e+02    4.7881901264e-01
    1.4329930115e+02    4.7970798612e-01
    1.4339839172e+02    4.8058301210e-01
    1.4349890137e+02    4.8147198558e-01
    1.4359933472e+02    4.8236298561e-01
    1.4369821167e+02    4.8324000835e-01
    1.4379852295e+02    4.8413300514e-01
    1.4389805603e+02    4.8502001166e-01
    1.4399826050e+02    4.8591500521e-01
    1.4409875488e+02    4.8681399226e-01
    1.4419917297e+02    4.8771500587e-01
    1.4429875183e+02    4.8860999942e-01
    1.4439907837e+02    4.8951399326e-01
    1.4449894714e+02    4.9041500688e-01
    1.4459950256e+02    4.9132400751e-01
    1.4469831848e+02    4.9222001433e-01
    1.4479878235e+02    4.9313101172e-01
    1.4489920044e+02    4.9404400587e-01
    1.4499963379e+02    4.9495899677e-01
    1.4509945679e+02    4.9586901069e-01
    1.4519860840e+02    4.9677500129e-01
    1.4529924011e+02    4.9769601226e-01
    1.4539834595e+02    4.9860399961e-01
    1.4549887085e+02    4.9952700734e-01
    1.4559930420e+02    5.0045198202e-01
    1.4569920349e+02    5.0137197971e-01
    1.4579946899e+02    5.0229901075e-01
    1.4589816284e+02    5.0321197510e-01
    1.4599911499e+02    5.0414800644e-01
    1.4609951782e+02    5.0508201122e-01
    1.4619841003e+02    5.0600302219e-01
    1.4629905701e+02    5.0694197416e-01
    1.4639930725e+02    5.0787901878e-01
    1.4649961853e+02    5.0881898403e-01
    1.4659840393e+02    5.0974601507e-01
    1.4669885254e+02    5.1068997383e-01
    1.4679937744e+02    5.1163601875e-01
    1.4689836121e+02    5.1256901026e-01
    1.4699847412e+02    5.1351302862e-01
    1.4709924316e+02    5.1446497440e-01
    1.4719940186e+02    5.1541197300e-01
    1.4729922485e+02    5.1635599136e-01
    1.4739837646e+02    5.1729500294e-01
    1.4749894714e+02    5.1824802160e-01
    1.4759947205e+02    5.1920199394e-01
    1.4769845581e+02    5.2014297247e-01
    1.4779876709e+02    5.2109700441e-01
    1.4789859009e+02    5.2204799652e-01
    1.4799894714e+02    5.2300500870e-01
    1.4809941101e+02    5.2396398783e-01
    1.4819955444e+02    5.2492201328e-01
    1.4829977417e+02    5.2588200569e-01
    1.4839848328e+02    5.2682799101e-01
    1.4849884033e+02    5.2779102325e-01
    1.4859930420e+02    5.2875602245e-01
    1.4869830322e+02    5.2970802784e-01
    1.4879846191e+02    5.3067201376e-01
    1.4889938354e+02    5.3164398670e-01
    1.4899882507e+02    5.3260201216e-01
    1.4909979248e+02    5.3357499838e-01
    1.4919975281e+02    5.3453999758e-01
    1.4929914856e+02    5.3549998999e-01
    1.4939851379e+02    5.3645998240e-01
    1.4949926758e+02    5.3743499517e-01
    1.4959843445e+02    5.3839498758e-01
    1.4969902039e+02    5.3936898708e-01
    1.4979867554e+02    5.4033601284e-01
    1.4989886475e+02    5.4130899906e-01
    1.4999931335e+02    5.4228502512e-01
    1.5009977722e+02    5.4326301813e-01
    1.5019847107e+02    5.4422497749e-01
    1.5029879761e+02    5.4520398378e-01
    1.5039918518e+02    5.4618400335e-01
    1.5049966431e+02    5.4716700315e-01
    1.5059939575e+02    5.4814302921e-01
    1.5069918823e+02    5.4912102222e-01
    1.5079981995e+02    5.5010801554e-01
    1.5089997864e+02    5.5109202862e-01
    1.5099931335e+02    5.5206799507e-01
    1.5109934998e+02    5.5305099487e-01
    1.5119996643e+02    5.5404102802e-01
    1.5129995728e+02    5.5502498150e-01
    1.5139897156e+02    5.5600100756e-01
    1.5149957275e+02    5.5699300766e-01
    1.5159933472e+02    5.5797797441e-01
    1.5169995117e+02    5.5897301435e-01
    1.5179896545e+02    5.5995202065e-01
    1.5189933777e+02    5.6094700098e-01
    1.5199894714e+02    5.6193500757e-01
    1.5209901428e+02    5.6292802095e-01
    1.5219906616e+02    5.6392300129e-01
    1.5229910278e+02    5.6492000818e-01
    1.5239918518e+02    5.6591802835e-01
    1.5249934387e+02    5.6691801548e-01
    1.5259996033e+02    5.6792402267e-01
    1.5269964600e+02    5.6892198324e-01
    1.5279988098e+02    5.6992602348e-01
    1.5289854431e+02    5.7091498375e-01
    1.5299879456e+02    5.7192099094e-01
    1.5309999084e+02    5.7293802500e-01
    1.5319888306e+02    5.7393199205e-01
    1.5329927063e+02    5.7494300604e-01
    1.5339959717e+02    5.7595402002e-01
    1.5349984741e+02    5.7696497440e-01
    1.5360000610e+02    5.7797700167e-01
    1.5370013428e+02    5.7898902893e-01
    1.5379870605e+02    5.7998800278e-01
    1.5389900208e+02    5.8100497723e-01
    1.5399894714e+02    5.8202099800e-01
    1.5409877014e+02    5.8303701878e-01
    1.5419885254e+02    5.8405798674e-01
    1.5430000305e+02    5.8509099483e-01
    1.5439991760e+02    5.8611398935e-01
    1.5449903870e+02    5.8713001013e-01
    1.5459910583e+02    5.8815801144e-01
    1.5469914246e+02    5.8918702602e-01
    1.5479963684e+02    5.9022301435e-01
    1.5489950562e+02    5.9125399590e-01
    1.5499943542e+02    5.9228801727e-01
    1.5509944153e+02    5.9332299232e-01
    1.5519898987e+02    5.9435600042e-01
    1.5529997253e+02    5.9540498257e-01
    1.5539918518e+02    5.9643697739e-01
    1.5549945068e+02    5.9748202562e-01
    1.5559965515e+02    5.9852802753e-01
    1.5570025635e+02    5.9957897663e-01
    1.5580029297e+02    6.0062599182e-01
    1.5589877319e+02    6.0165798664e-01
    1.5600025940e+02    6.0272401571e-01
    1.5609890747e+02    6.0376101732e-01
    1.5619900513e+02    6.0481500626e-01
    1.5629908752e+02    6.0587102175e-01
    1.5639903259e+02    6.0692697763e-01
    1.5649899292e+02    6.0798400640e-01
    1.5659899902e+02    6.0904401541e-01
    1.5669908142e+02    6.1010497808e-01
    1.5679924011e+02    6.1116898060e-01
    1.5689950562e+02    6.1223602295e-01
    1.5699934387e+02    6.1329799891e-01
    1.5710032654e+02    6.1437398195e-01
    1.5719912720e+02    6.1542797089e-01
    1.5729968262e+02    6.1650097370e-01
    1.5740020752e+02    6.1757397652e-01
    1.5749914551e+02    6.1862999201e-01
    1.5759956360e+02    6.1970400810e-01
    1.5769993591e+02    6.2077701092e-01
    1.5779942322e+02    6.2184202671e-01
    1.5789971924e+02    6.2291598320e-01
    1.5799995422e+02    6.2398999929e-01
    1.5809956360e+02    6.2505900860e-01
    1.5819956970e+02    6.2613302469e-01
    1.5829960632e+02    6.2720698118e-01
    1.5839968872e+02    6.2828397751e-01
    1.5849981689e+02    6.2936097383e-01
    1.5860000610e+02    6.3043999672e-01
    1.5870027161e+02    6.3151997328e-01
    1.5880015564e+02    6.3259702921e-01
    1.5889923096e+02    6.3366597891e-01
    1.5899980164e+02    6.3475197554e-01
    1.5910035706e+02    6.3583797216e-01
    1.5919900513e+02    6.3690501451e-01
    1.5929942322e+02    6.3799101114e-01
    1.5939929199e+02    6.3907200098e-01
    1.5949974060e+02    6.4015901089e-01
    1.5960011292e+02    6.4124697447e-01
    1.5970042419e+02    6.4233398438e-01
    1.5980018616e+02    6.4341700077e-01
    1.5990005493e+02    6.4450097084e-01
    1.6000022888e+02    6.4559000731e-01
    1.6009919739e+02    6.4666599035e-01
    1.6019912720e+02    6.4775401354e-01
    1.6029908752e+02    6.4884299040e-01
    1.6039910889e+02    6.4993399382e-01
    1.6049917603e+02    6.5102702379e-01
    1.6059915161e+02    6.5211898088e-01
    1.6069943237e+02    6.5321600437e-01
    1.6079946899e+02    6.5431201458e-01
    1.6089927673e+02    6.5540498495e-01
    1.6099958801e+02    6.5650600195e-01
    1.6110003662e+02    6.5760797262e-01
    1.6120013428e+02    6.5870797634e-01
    1.6130024719e+02    6.5980899334e-01
    1.6140043640e+02    6.6091102362e-01
    1.6150065613e+02    6.6201400757e-01
    1.6159942627e+02    6.6310298443e-01
    1.6169978333e+02    6.6420900822e-01
    1.6180007935e+02    6.6531598568e-01
    1.6190029907e+02    6.6642302275e-01
    1.6200051880e+02    6.6753101349e-01
    1.6210043335e+02    6.6863602400e-01
    1.6220031738e+02    6.6974198818e-01
    1.6230015564e+02    6.7084902525e-01
    1.6239999390e+02    6.7195701599e-01
    1.6249986267e+02    6.7306697369e-01
    1.6259930420e+02    6.7417299747e-01
    1.6269935608e+02    6.7528599501e-01
    1.6279985046e+02    6.7640501261e-01
    1.6289970398e+02    6.7751801014e-01
    1.6299955750e+02    6.7863202095e-01
    1.6309941101e+02    6.7974698544e-01
    1.6319981384e+02    6.8086898327e-01
    1.6329983521e+02    6.8198698759e-01
    1.6339987183e+02    6.8310600519e-01
    1.6349986267e+02    6.8422597647e-01
    1.6359982300e+02    6.8534702063e-01
    1.6369973755e+02    6.8646800518e-01
    1.6379962158e+02    6.8758898973e-01
    1.6389929199e+02    6.8870902061e-01
    1.6400065613e+02    6.8984997272e-01
    1.6410052490e+02    6.9097501040e-01
    1.6420043945e+02    6.9210201502e-01
    1.6429942322e+02    6.9321900606e-01
    1.6440066528e+02    6.9436401129e-01
    1.6450042725e+02    6.9549399614e-01
    1.6460017395e+02    6.9662398100e-01
    1.6469987488e+02    6.9775599241e-01
    1.6480012512e+02    6.9889599085e-01
    1.6489959717e+02    7.0002800226e-01
    1.6500065613e+02    7.0117998123e-01
    1.6510021973e+02    7.0231598616e-01
    1.6519970703e+02    7.0345199108e-01
    1.6529983521e+02    7.0459699631e-01
    1.6540072632e+02    7.0575302839e-01
    1.6550067139e+02    7.0689797401e-01
    1.6560058594e+02    7.0804500580e-01
    1.6570019531e+02    7.0918899775e-01
    1.6580000305e+02    7.1033602953e-01
    1.6589987183e+02    7.1148502827e-01
    1.6600013733e+02    7.1263998747e-01
    1.6610011292e+02    7.1379297972e-01
    1.6620004272e+02    7.1494597197e-01
    1.6629995728e+02    7.1609997749e-01
    1.6640086365e+02    7.1726602316e-01
    1.6650065613e+02    7.1842098236e-01
    1.6660049438e+02    7.1957701445e-01
    1.6670036316e+02    7.2073400021e-01
    1.6680029297e+02    7.2189301252e-01
    1.6690032959e+02    7.2305399179e-01
    1.6700076294e+02    7.2422099113e-01
    1.6710057068e+02    7.2538101673e-01
    1.6720074463e+02    7.2654497623e-01
    1.6730024719e+02    7.2770202160e-01
    1.6740055847e+02    7.2886902094e-01
    1.6750079346e+02    7.3003500700e-01
    1.6759953308e+02    7.3118400574e-01
    1.6769953918e+02    7.3234802485e-01
    1.6780090332e+02    7.3352801800e-01
    1.6789959717e+02    7.3467701674e-01
    1.6800062561e+02    7.3585301638e-01
    1.6810060120e+02    7.3701798916e-01
    1.6820057678e+02    7.3818200827e-01
    1.6830056763e+02    7.3934698105e-01
    1.6840060425e+02    7.4051302671e-01
    1.6850028992e+02    7.4167501926e-01
    1.6860011292e+02    7.4283897877e-01
    1.6870019531e+02    7.4400597811e-01
    1.6880055237e+02    7.4517601728e-01
    1.6890081787e+02    7.4634599686e-01
    1.6900103760e+02    7.4751597643e-01
    1.6909970093e+02    7.4866801500e-01
    1.6920062256e+02    7.4984699488e-01
    1.6930059814e+02    7.5101500750e-01
    1.6940103149e+02    7.5218898058e-01
    1.6950102234e+02    7.5335901976e-01
    1.6960066223e+02    7.5452500582e-01
    1.6970060730e+02    7.5569498539e-01
    1.6980050659e+02    7.5686502457e-01
    1.6990025330e+02    7.5803399086e-01
    1.7000094604e+02    7.5921499729e-01
    1.7010078430e+02    7.6038599014e-01
    1.7020089722e+02    7.6156097651e-01
    1.7030055237e+02    7.6273101568e-01
    1.7040023804e+02    7.6390200853e-01
    1.7049996948e+02    7.6507401466e-01
    1.7059971619e+02    7.6624798775e-01
    1.7070010376e+02    7.6742899418e-01
    1.7080085754e+02    7.6861602068e-01
    1.7090109253e+02    7.6979798079e-01
    1.7100088501e+02    7.7097499371e-01
    1.7110058594e+02    7.7215200663e-01
    1.7120095825e+02    7.7333801985e-01
    1.7130053711e+02    7.7451497316e-01
    1.7140017700e+02    7.7569401264e-01
    1.7149992371e+02    7.7687501907e-01
    1.7160124207e+02    7.7807497978e-01
    1.7170121765e+02    7.7925997972e-01
    1.7180119324e+02    7.8044497967e-01
    1.7190115356e+02    7.8163099289e-01
    1.7200105286e+02    7.8281599283e-01
    1.7210096741e+02    7.8400200605e-01
    1.7220066833e+02    7.8518700600e-01
    1.7230036926e+02    7.8637200594e-01
    1.7240005493e+02    7.8755700588e-01
    1.7250131226e+02    7.8876197338e-01
    1.7260099792e+02    7.8994798660e-01
    1.7270042419e+02    7.9113197327e-01
    1.7280094910e+02    7.9232901335e-01
    1.7290054321e+02    7.9351598024e-01
    1.7300013733e+02    7.9470300674e-01
    1.7310130310e+02    7.9590898752e-01
    1.7320066833e+02    7.9709500074e-01
    1.7330029297e+02    7.9828399420e-01
    1.7339997864e+02    7.9947400093e-01
    1.7350126648e+02    8.0068397522e-01
    1.7360104370e+02    8.0187600851e-01
    1.7370082092e+02    8.0306798220e-01
    1.7380056763e+02    8.0426102877e-01
    1.7390046692e+02    8.0545598269e-01
    1.7400010681e+02    8.0664801598e-01
    1.7410105896e+02    8.0785697699e-01
    1.7420089722e+02    8.0905300379e-01
    1.7430119324e+02    8.1025499105e-01
    1.7440078735e+02    8.1144899130e-01
    1.7450083923e+02    8.1264901161e-01
    1.7460049438e+02    8.1384599209e-01
    1.7470010376e+02    8.1504297256e-01
    1.7480111694e+02    8.1625699997e-01
    1.7490075684e+02    8.1745600700e-01
    1.7500004578e+02    8.1865102053e-01
    1.7510095215e+02    8.1986701488e-01
    1.7520071411e+02    8.2107001543e-01
    1.7530026245e+02    8.2227098942e-01
    1.7540046692e+02    8.2348001003e-01
    1.7550091553e+02    8.2469397783e-01
    1.7560054016e+02    8.2589799166e-01
    1.7570124817e+02    8.2711499929e-01
    1.7580075073e+02    8.2831901312e-01
    1.7590032959e+02    8.2952398062e-01
    1.7600041199e+02    8.3073598146e-01
    1.7610017395e+02    8.3194398880e-01
    1.7620140076e+02    8.3317101002e-01
    1.7630114746e+02    8.3437997103e-01
    1.7640034485e+02    8.3558201790e-01
    1.7650001526e+02    8.3679002523e-01
    1.7660075378e+02    8.3801198006e-01
    1.7670155334e+02    8.3923399448e-01
    1.7680137634e+02    8.4044402838e-01
    1.7690121460e+02    8.4165602922e-01
    1.7700111389e+02    8.4286797047e-01
    1.7710104370e+02    8.4407997131e-01
    1.7720054626e+02    8.4528702497e-01
    1.7730064392e+02    8.4650200605e-01
    1.7740068054e+02    8.4771502018e-01
    1.7750062561e+02    8.4892702103e-01
    1.7760052490e+02    8.5013902187e-01
    1.7770046997e+02    8.5135000944e-01
    1.7780152893e+02    8.5257500410e-01
    1.7790144348e+02    8.5378599167e-01
    1.7800102234e+02    8.5499298573e-01
    1.7810079956e+02    8.5620200634e-01
    1.7820062256e+02    8.5741102695e-01
    1.7830050659e+02    8.5861998796e-01
    1.7840043640e+02    8.5982900858e-01
    1.7850041199e+02    8.6103898287e-01
    1.7860023499e+02    8.6224699020e-01
    1.7870126343e+02    8.6346799135e-01
    1.7880137634e+02    8.6467802525e-01
    1.7890141296e+02    8.6588799953e-01
    1.7900135803e+02    8.6709600687e-01
    1.7910119629e+02    8.6830300093e-01
    1.7920065308e+02    8.6950498819e-01
    1.7930116272e+02    8.7072098255e-01
    1.7940080261e+02    8.7192600965e-01
    1.7950059509e+02    8.7313300371e-01
    1.7960156250e+02    8.7435501814e-01
    1.7970164490e+02    8.7556600571e-01
    1.7980116272e+02    8.7677198648e-01
    1.7990046692e+02    8.7797397375e-01
    1.8000042725e+02    8.7918502092e-01
    1.8010139465e+02    8.8040900230e-01
    1.8020178223e+02    8.8162499666e-01
    1.8030107117e+02    8.8282901049e-01
    1.8040037537e+02    8.8403302431e-01
    1.8050131226e+02    8.8525700569e-01
    1.8060069275e+02    8.8646298647e-01
    1.8070162964e+02    8.8768798113e-01
    1.8080166626e+02    8.8890200853e-01
    1.8090104675e+02    8.9011001587e-01
    1.8100044250e+02    8.9131700993e-01
    1.8110122681e+02    8.9254200459e-01
    1.8120103455e+02    8.9375597239e-01
    1.8130175781e+02    8.9498102665e-01
    1.8140097046e+02    8.9618802071e-01
    1.8150184631e+02    8.9741599560e-01
    1.8160069275e+02    8.9862000942e-01
    1.8170173645e+02    8.9985001087e-01
    1.8180131531e+02    9.0106302500e-01
    1.8190089417e+02    9.0227699280e-01
    1.8200047302e+02    9.0349000692e-01
    1.8210104370e+02    9.0471500158e-01
    1.8220051575e+02    9.0592700243e-01
    1.8230157471e+02    9.0715801716e-01
    1.8240109253e+02    9.0837097168e-01
    1.8250117493e+02    9.0959000587e-01
    1.8260070801e+02    9.1080302000e-01
    1.8270187378e+02    9.1203498840e-01
    1.8280120850e+02    9.1324400902e-01
    1.8290124512e+02    9.1446101665e-01
    1.8300152588e+02    9.1568100452e-01
    1.8310101318e+02    9.1689199209e-01
    1.8320051575e+02    9.1810202599e-01
    1.8330163574e+02    9.1933101416e-01
    1.8340150452e+02    9.2054498196e-01
    1.8350120544e+02    9.2175698280e-01
    1.8360087585e+02    9.2296797037e-01
    1.8370051575e+02    9.2417800426e-01
    1.8380162048e+02    9.2540597916e-01
    1.8390081787e+02    9.2661100626e-01
    1.8400189209e+02    9.2783802748e-01
    1.8410098267e+02    9.2904102802e-01
    1.8420069885e+02    9.3025100231e-01
    1.8430099487e+02    9.3146800995e-01
    1.8440051270e+02    9.3267601728e-01
    1.8450160217e+02    9.3390297890e-01
    1.8460110474e+02    9.3510997295e-01
    1.8470137024e+02    9.3632698059e-01
    1.8480093384e+02    9.3753498793e-01
    1.8490191650e+02    9.3875998259e-01
    1.8500114441e+02    9.3996298313e-01
    1.8510061646e+02    9.4116997719e-01
    1.8520150757e+02    9.4239401817e-01
    1.8530085754e+02    9.4359898567e-01
    1.8540155029e+02    9.4482100010e-01
    1.8550123596e+02    9.4603097439e-01
    1.8560203552e+02    9.4725400209e-01
    1.8570106506e+02    9.4845598936e-01
    1.8580180359e+02    9.4967800379e-01
    1.8590103149e+02    9.5088297129e-01
    1.8600187683e+02    9.5210701227e-01
    1.8610116577e+02    9.5331197977e-01
    1.8620164490e+02    9.5453202724e-01
    1.8630113220e+02    9.5573902130e-01
    1.8640101624e+02    9.5695102215e-01
    1.8650201416e+02    9.5817500353e-01
    1.8660150146e+02    9.5938098431e-01
    1.8670106506e+02    9.6058797836e-01
    1.8680172729e+02    9.6180701256e-01
    1.8690151978e+02    9.6301597357e-01
    1.8700201416e+02    9.6423202753e-01
    1.8710168457e+02    9.6543800831e-01
    1.8720118713e+02    9.6664100885e-01
    1.8730099487e+02    9.6784698963e-01
    1.8740220642e+02    9.6907001734e-01
    1.8750181580e+02    9.7027200460e-01
    1.8760134888e+02    9.7147297859e-01
    1.8770118713e+02    9.7267597914e-01
    1.8780154419e+02    9.7388499975e-01
    1.8790106201e+02    9.7508299351e-01
    1.8800163269e+02    9.7629201412e-01
    1.8810102844e+02    9.7748601437e-01
    1.8820205688e+02    9.7869902849e-01
    1.8830162048e+02    9.7989302874e-01
    1.8840126038e+02    9.8108702898e-01
    1.8850097656e+02    9.8228102922e-01
    1.8860227966e+02    9.8349297047e-01
    1.8870123291e+02    9.8467600346e-01
    1.8880165100e+02    9.8587501049e-01
    1.8890144348e+02    9.8706501722e-01
    1.8900111389e+02    9.8825299740e-01
    1.8910215759e+02    9.8945599794e-01
    1.8920159912e+02    9.9063897133e-01
    1.8930096436e+02    9.9182099104e-01
    1.8940170288e+02    9.9301797152e-01
    1.8950140381e+02    9.9420201778e-01
    1.8960200500e+02    9.9539601803e-01
    1.8970190430e+02    9.9658197165e-01
    1.8980111694e+02    9.9775898457e-01
    1.8990179443e+02    9.9895298481e-01
    1.9000099182e+02    1.0001300573e+00
    1.9010165405e+02    1.0013200045e+00
    1.9020227051e+02    1.0025099516e+00
    1.9030105591e+02    1.0036799908e+00
    1.9040156555e+02    1.0048700571e+00
    1.9050210571e+02    1.0060600042e+00
    1.9060112000e+02    1.0072400570e+00
    1.9070172119e+02    1.0084300041e+00
    1.9080233765e+02    1.0096199512e+00
    1.9090138245e+02    1.0107899904e+00
    1.9100221252e+02    1.0119800568e+00
    1.9110136414e+02    1.0131499767e+00
    1.9120124817e+02    1.0143300295e+00
    1.9130226135e+02    1.0155199766e+00
    1.9140130615e+02    1.0166900158e+00
    1.9150198364e+02    1.0178699493e+00
    1.9160215759e+02    1.0190500021e+00
    1.9170144653e+02    1.0202200413e+00
    1.9180220032e+02    1.0214099884e+00
    1.9190150452e+02    1.0225800276e+00
    1.9200230408e+02    1.0237599611e+00
    1.9210130310e+02    1.0249300003e+00
    1.9220210266e+02    1.0261100531e+00
    1.9230139160e+02    1.0272699594e+00
    1.9240229797e+02    1.0284600258e+00
    1.9250166321e+02    1.0296200514e+00
    1.9260105896e+02    1.0307799578e+00
    1.9270210266e+02    1.0319600105e+00
    1.9280160522e+02    1.0331200361e+00
    1.9290133667e+02    1.0342799425e+00
    1.9300242615e+02    1.0354599953e+00
    1.9310226440e+02    1.0366200209e+00
    1.9320172119e+02    1.0377700329e+00
    1.9330122375e+02    1.0389200449e+00
    1.9340150452e+02    1.0400799513e+00
    1.9350114441e+02    1.0412299633e+00
    1.9360223389e+02    1.0424000025e+00
    1.9370178223e+02    1.0435400009e+00
    1.9380122375e+02    1.0446799994e+00
    1.9390136719e+02    1.0458300114e+00
    1.9400218201e+02    1.0469900370e+00
    1.9410147095e+02    1.0481200218e+00
    1.9420201111e+02    1.0492700338e+00
    1.9430111694e+02    1.0504000187e+00
    1.9440263367e+02    1.0515500307e+00
[...]
    2.5130525208e+02    1.2489299774e+00
    2.5140496826e+02    1.2485300303e+00
    2.5150505066e+02    1.2481299639e+00
    2.5160516357e+02    1.2477200031e+00
    2.5170469666e+02    1.2473100424e+00
    2.5180487061e+02    1.2468899488e+00
    2.5190501404e+02    1.2464699745e+00
    2.5200515747e+02    1.2460500002e+00
    2.5210531616e+02    1.2456200123e+00
    2.5220550537e+02    1.2451900244e+00
    2.5230467224e+02    1.2447500229e+00
    2.5240487671e+02    1.2443100214e+00
    2.5250512695e+02    1.2438700199e+00
    2.5260542297e+02    1.2434200048e+00
    2.5270581055e+02    1.2429599762e+00
    2.5280471802e+02    1.2425099611e+00
    2.5290512085e+02    1.2420500517e+00
    2.5300585938e+02    1.2415800095e+00
    2.5310502625e+02    1.2411099672e+00
    2.5320562744e+02    1.2406300306e+00
    2.5330619812e+02    1.2401499748e+00
    2.5340524292e+02    1.2396800518e+00
    2.5350573730e+02    1.2391899824e+00
    2.5360620117e+02    1.2386900187e+00
    2.5370498657e+02    1.2382099628e+00
    2.5380540466e+02    1.2376999855e+00
    2.5390580750e+02    1.2372000217e+00
    2.5400610352e+02    1.2366900444e+00
    2.5410522461e+02    1.2361799479e+00
    2.5420582581e+02    1.2356699705e+00
    2.5430581665e+02    1.2351499796e+00
    2.5440478516e+02    1.2346299887e+00
    2.5450532532e+02    1.2340999842e+00
    2.5460542297e+02    1.2335699797e+00
    2.5470594788e+02    1.2330299616e+00
    2.5480491638e+02    1.2324999571e+00
    2.5490530396e+02    1.2319500446e+00
    2.5500625610e+02    1.2314000130e+00
    2.5510493469e+02    1.2308599949e+00
    2.5520512390e+02    1.2302999496e+00
    2.5530526733e+02    1.2297500372e+00
    2.5540539551e+02    1.2291899920e+00
    2.5550579834e+02    1.2286200523e+00
    2.5560589600e+02    1.2280499935e+00
    2.5570591736e+02    1.2274899483e+00
    2.5580584717e+02    1.2269099951e+00
    2.5590568542e+02    1.2263400555e+00
    2.5600549316e+02    1.2257699966e+00
    2.5610525513e+02    1.2251900434e+00
    2.5620498657e+02    1.2246099710e+00
    2.5630630493e+02    1.2240200043e+00
    2.5640612793e+02    1.2234400511e+00
    2.5650598145e+02    1.2228499651e+00
    2.5660586548e+02    1.2222700119e+00
    2.5670581055e+02    1.2216800451e+00
    2.5680569458e+02    1.2210799456e+00
    2.5690582275e+02    1.2204899788e+00
    2.5700616455e+02    1.2198899984e+00
    2.5710638428e+02    1.2192900181e+00
    2.5720507812e+02    1.2187000513e+00
    2.5730578613e+02    1.2180900574e+00
    2.5740618896e+02    1.2174799442e+00
    2.5750540161e+02    1.2168799639e+00
    2.5760583496e+02    1.2162599564e+00
    2.5770581055e+02    1.2156499624e+00
    2.5780633545e+02    1.2150299549e+00
    2.5790548706e+02    1.2144199610e+00
    2.5800598145e+02    1.2137900591e+00
    2.5810650635e+02    1.2131600380e+00
    2.5820550537e+02    1.2125400305e+00
    2.5830609131e+02    1.2119100094e+00
    2.5840560913e+02    1.2112799883e+00
    2.5850628662e+02    1.2106399536e+00
    2.5860552979e+02    1.2100100517e+00
    2.5870623779e+02    1.2093700171e+00
    2.5880557251e+02    1.2087299824e+00
    2.5890524292e+02    1.2080899477e+00
    2.5900610352e+02    1.2074400187e+00
    2.5910525513e+02    1.2067899704e+00
    2.5920578003e+02    1.2061400414e+00
    2.5930630493e+02    1.2054899931e+00
    2.5940539551e+02    1.2048399448e+00
    2.5950534058e+02    1.2041800022e+00
    2.5960623169e+02    1.2035200596e+00
    2.5970553589e+02    1.2028599977e+00
    2.5980621338e+02    1.2022000551e+00
    2.5990524292e+02    1.2015399933e+00
    2.6000518799e+02    1.2008800507e+00
    2.6010644531e+02    1.2001999617e+00
    2.6020535278e+02    1.1995400190e+00
    2.6030569458e+02    1.1988699436e+00
    2.6040600586e+02    1.1981999874e+00
    2.6050625610e+02    1.1975300312e+00
    2.6060617065e+02    1.1968599558e+00
    2.6070651245e+02    1.1961799860e+00
    2.6080661011e+02    1.1955100298e+00
    2.6090661621e+02    1.1948399544e+00
    2.6100656128e+02    1.1941599846e+00
    2.6110647583e+02    1.1934900284e+00
    2.6120635986e+02    1.1928100586e+00
    2.6130670166e+02    1.1921399832e+00
    2.6140655518e+02    1.1914600134e+00
    2.6150650024e+02    1.1907800436e+00
    2.6160647583e+02    1.1901099682e+00
    2.6170642090e+02    1.1894299984e+00
    2.6180639648e+02    1.1887500286e+00
    2.6190637207e+02    1.1880799532e+00
    2.6200549316e+02    1.1874099970e+00
    2.6210552979e+02    1.1867300272e+00
    2.6220556641e+02    1.1860500574e+00
    2.6230563354e+02    1.1853699684e+00
    2.6240567017e+02    1.1847000122e+00
    2.6250674438e+02    1.1840100288e+00
    2.6260528564e+02    1.1833399534e+00
    2.6270544434e+02    1.1826599836e+00
    2.6280572510e+02    1.1819800138e+00
    2.6290609741e+02    1.1813000441e+00
    2.6300656128e+02    1.1806199551e+00
    2.6310635376e+02    1.1799399853e+00
    2.6320629883e+02    1.1792600155e+00
    2.6330587769e+02    1.1785800457e+00
    2.6340646362e+02    1.1778899431e+00
    2.6350555420e+02    1.1772099733e+00
    2.6360610962e+02    1.1765199900e+00
    2.6370666504e+02    1.1758300066e+00
    2.6380572510e+02    1.1751400232e+00
    2.6390551758e+02    1.1744500399e+00
    2.6400604248e+02    1.1737500429e+00
    2.6410662842e+02    1.1730600595e+00
    2.6420565796e+02    1.1723699570e+00
    2.6430627441e+02    1.1716599464e+00
    2.6440533447e+02    1.1709699631e+00
    2.6450595093e+02    1.1702599525e+00
    2.6460552979e+02    1.1695699692e+00
    2.6470617676e+02    1.1688599586e+00
    2.6480673218e+02    1.1681499481e+00
    2.6490573120e+02    1.1674499512e+00
    2.6500619507e+02    1.1667399406e+00
    2.6510662842e+02    1.1660200357e+00
    2.6520663452e+02    1.1653100252e+00
    2.6530694580e+02    1.1646000147e+00
    2.6540573120e+02    1.1638900042e+00
    2.6550610352e+02    1.1631799936e+00
    2.6560644531e+02    1.1624599695e+00
    2.6570614624e+02    1.1617399454e+00
    2.6580648804e+02    1.1610200405e+00
    2.6590670776e+02    1.1603000164e+00
    2.6600680542e+02    1.1595799923e+00
    2.6610684204e+02    1.1588599682e+00
    2.6620590210e+02    1.1581499577e+00
    2.6630578613e+02    1.1574200392e+00
    2.6640628052e+02    1.1567000151e+00
    2.6650619507e+02    1.1559799910e+00
    2.6660626221e+02    1.1552499533e+00
    2.6670617676e+02    1.1545300484e+00
    2.6680593872e+02    1.1538000107e+00
    2.6690612793e+02    1.1530799866e+00
    2.6700677490e+02    1.1523499489e+00
    2.6710702515e+02    1.1516200304e+00
    2.6720581055e+02    1.1509000063e+00
    2.6730624390e+02    1.1501699686e+00
    2.6740676880e+02    1.1494300365e+00
    2.6750579834e+02    1.1487100124e+00
    2.6760601807e+02    1.1479699612e+00
    2.6770669556e+02    1.1472300291e+00
    2.6780590820e+02    1.1464999914e+00
    2.6790661621e+02    1.1457600594e+00
    2.6800640869e+02    1.1450200081e+00
    2.6810705566e+02    1.1442799568e+00
    2.6820617676e+02    1.1435400248e+00
    2.6830682373e+02    1.1427899599e+00
    2.6840591431e+02    1.1420600414e+00
    2.6850671387e+02    1.1412999630e+00
    2.6860589600e+02    1.1405600309e+00
    2.6870657349e+02    1.1397999525e+00
    2.6880575562e+02    1.1390600204e+00
    2.6890643311e+02    1.1382999420e+00
    2.6900653076e+02    1.1375499964e+00
    2.6910562134e+02    1.1368000507e+00
    2.6920635986e+02    1.1360299587e+00
    2.6930712891e+02    1.1352699995e+00
    2.6940637207e+02    1.1345100403e+00
    2.6950720215e+02    1.1337499619e+00
    2.6960641479e+02    1.1329900026e+00
    2.6970675659e+02    1.1322200298e+00
    2.6980603027e+02    1.1314699650e+00
    2.6990664673e+02    1.1306999922e+00
    2.7000723267e+02    1.1299300194e+00
    2.7010623169e+02    1.1291699409e+00
    2.7020663452e+02    1.1283999681e+00
    2.7030694580e+02    1.1276299953e+00
    2.7040725708e+02    1.1268600225e+00
    2.7050665283e+02    1.1260999441e+00
    2.7060681152e+02    1.1253299713e+00
    2.7070690918e+02    1.1245599985e+00
    2.7080706787e+02    1.1237900257e+00
    2.7090707397e+02    1.1230299473e+00
    2.7100698853e+02    1.1222599745e+00
    2.7110684204e+02    1.1215000153e+00
    2.7120669556e+02    1.1207400560e+00
    2.7130657959e+02    1.1199799776e+00
    2.7140658569e+02    1.1192200184e+00
    2.7150628662e+02    1.1184600592e+00
    2.7160626221e+02    1.1176999807e+00
    2.7170629883e+02    1.1169400215e+00
    2.7180642700e+02    1.1161799431e+00
    2.7190664673e+02    1.1154199839e+00
    2.7200698853e+02    1.1146600246e+00
    2.7210620117e+02    1.1138999462e+00
    2.7220666504e+02    1.1131399870e+00
    2.7230706787e+02    1.1123800278e+00
    2.7240637207e+02    1.1116299629e+00
    2.7250674438e+02    1.1108700037e+00
    2.7260714722e+02    1.1101100445e+00
    2.7270602417e+02    1.1093699932e+00
    2.7280648804e+02    1.1086100340e+00
    2.7290701294e+02    1.1078499556e+00
    2.7300607300e+02    1.1071000099e+00
    2.7310601807e+02    1.1063499451e+00
    2.7320672607e+02    1.1055799723e+00
    2.7330596924e+02    1.1048300266e+00
    2.7340686035e+02    1.1040699482e+00
    2.7350622559e+02    1.1033200026e+00
    2.7360726929e+02    1.1025500298e+00
    2.7370681763e+02    1.1017999649e+00
    2.7380636597e+02    1.1010400057e+00
    2.7390740967e+02    1.1002700329e+00
    2.7400698853e+02    1.0995199680e+00
    2.7410705566e+02    1.0987600088e+00
    2.7420645142e+02    1.0980000496e+00
    2.7430740356e+02    1.0972299576e+00
    2.7440679932e+02    1.0964699984e+00
    2.7450616455e+02    1.0957100391e+00
    2.7460644531e+02    1.0949399471e+00
    2.7470739746e+02    1.0941699743e+00
    2.7480673218e+02    1.0934100151e+00
    2.7490750122e+02    1.0926400423e+00
    2.7500671387e+02    1.0918799639e+00
    2.7510733032e+02    1.0911099911e+00
    2.7520645142e+02    1.0903500319e+00
    2.7530688477e+02    1.0895800591e+00
    2.7540740967e+02    1.0888099670e+00
    2.7550637817e+02    1.0880500078e+00
    2.7560699463e+02    1.0872800350e+00
    2.7570602417e+02    1.0865199566e+00
    2.7580718994e+02    1.0857499838e+00
    2.7590631104e+02    1.0849900246e+00
    2.7600680542e+02    1.0842200518e+00
    2.7610720825e+02    1.0834599733e+00
    2.7620748901e+02    1.0826900005e+00
    2.7630621338e+02    1.0819400549e+00
    2.7640631104e+02    1.0811699629e+00
    2.7650637817e+02    1.0804100037e+00
    2.7660678101e+02    1.0796400309e+00
    2.7670681763e+02    1.0788799524e+00
    2.7680694580e+02    1.0781199932e+00
    2.7690637207e+02    1.0773600340e+00
    2.7700714111e+02    1.0765899420e+00
    2.7710736084e+02    1.0758299828e+00
    2.7720767212e+02    1.0750700235e+00
    2.7730645752e+02    1.0743199587e+00
    2.7740695190e+02    1.0735499859e+00
    2.7750756836e+02    1.0727900267e+00
    2.7760626221e+02    1.0720399618e+00
    2.7770706177e+02    1.0712800026e+00
    2.7780639648e+02    1.0705200434e+00
    2.7790734863e+02    1.0697499514e+00
    2.7800726318e+02    1.0690000057e+00
    2.7810650635e+02    1.0682400465e+00
    2.7820739746e+02    1.0674699545e+00
    2.7830673218e+02    1.0667099953e+00
    2.7840768433e+02    1.0659400225e+00
    2.7850686646e+02    1.0651899576e+00
    2.7860632324e+02    1.0644299984e+00
    2.7870721436e+02    1.0636500120e+00
    2.7880654907e+02    1.0628900528e+00
    2.7890621948e+02    1.0621299744e+00
    2.7900695801e+02    1.0613499880e+00
    2.7910772705e+02    1.0605800152e+00
    2.7920632935e+02    1.0598200560e+00
    2.7930694580e+02    1.0590499640e+00
    2.7940774536e+02    1.0582699776e+00
    2.7950698853e+02    1.0575100183e+00
    2.7960781860e+02    1.0567300320e+00
    2.7970706177e+02    1.0559600592e+00
    2.7980633545e+02    1.0551899672e+00
    2.7990719604e+02    1.0544099808e+00
    2.8000650024e+02    1.0536500216e+00
    2.8010739136e+02    1.0528600216e+00
    2.8020718384e+02    1.0520900488e+00
    2.8030664062e+02    1.0513199568e+00
    2.8040756226e+02    1.0505299568e+00
    2.8050689697e+02    1.0497599840e+00
    2.8060763550e+02    1.0489799976e+00
    2.8070678711e+02    1.0482100248e+00
    2.8080728149e+02    1.0474300385e+00
    2.8090765381e+02    1.0466500521e+00
    2.8100790405e+02    1.0458699465e+00
    2.8110665894e+02    1.0450999737e+00
    2.8120681763e+02    1.0443199873e+00
    2.8130700684e+02    1.0435500145e+00
    2.8140722656e+02    1.0427700281e+00
    2.8150701904e+02    1.0419900417e+00
    2.8160733032e+02    1.0412100554e+00
    2.8170773315e+02    1.0404299498e+00
    2.8180670166e+02    1.0396599770e+00
    2.8190740967e+02    1.0388799906e+00
    2.8200665283e+02    1.0381000042e+00
    2.8210675049e+02    1.0373200178e+00
    2.8220776367e+02    1.0365400314e+00
    2.8230734253e+02    1.0357600451e+00
    2.8240689087e+02    1.0349800587e+00
    2.8250790405e+02    1.0341900587e+00
    2.8260742188e+02    1.0334099531e+00
    2.8270767212e+02    1.0326199532e+00
    2.8280700684e+02    1.0318399668e+00
    2.8290795898e+02    1.0310399532e+00
    2.8300750732e+02    1.0302599669e+00
    2.8310708618e+02    1.0294699669e+00
    2.8320669556e+02    1.0286799669e+00
    2.8330764771e+02    1.0278799534e+00
    2.8340771484e+02    1.0270899534e+00
    2.8350726318e+02    1.0262999535e+00
    2.8360681152e+02    1.0255000591e+00
    2.8370800781e+02    1.0246900320e+00
    2.8380764771e+02    1.0239000320e+00
    2.8390731812e+02    1.0230900049e+00
    2.8400701904e+02    1.0222899914e+00
    2.8410671997e+02    1.0214899778e+00
    2.8420809937e+02    1.0206700563e+00
    2.8430795288e+02    1.0198600292e+00
    2.8440747070e+02    1.0190500021e+00
    2.8450714111e+02    1.0182299614e+00
    2.8460678101e+02    1.0174200535e+00
    2.8470727539e+02    1.0166000128e+00
    2.8480697632e+02    1.0157799721e+00
    2.8490805054e+02    1.0149500370e+00
    2.8500753784e+02    1.0141299963e+00
    2.8510690308e+02    1.0133099556e+00
    2.8520816040e+02    1.0124800205e+00
    2.8530728149e+02    1.0116599798e+00
    2.8540795898e+02    1.0108300447e+00
    2.8550711060e+02    1.0100100040e+00
    2.8560757446e+02    1.0091700554e+00
    2.8570687866e+02    1.0083500147e+00
    2.8580758667e+02    1.0075099468e+00
    2.8590753174e+02    1.0066800117e+00
    2.8600811768e+02    1.0058399439e+00
    2.8610705566e+02    1.0050200224e+00
    2.8620779419e+02    1.0041799545e+00
    2.8630682373e+02    1.0033500195e+00
    2.8640731812e+02    1.0025099516e+00
    2.8650762939e+02    1.0016700029e+00
    2.8660815430e+02    1.0008300543e+00
    2.8670718384e+02    9.9999600649e-01
    2.8680792236e+02    9.9914997816e-01
    2.8690716553e+02    9.9831497669e-01
    2.8700787354e+02    9.9746698141e-01
    2.8710702515e+02    9.9663001299e-01
    2.8720819092e+02    9.9577599764e-01
    2.8730722046e+02    9.9493902922e-01
    2.8740789795e+02    9.9408602715e-01
    2.8750711060e+02    9.9324500561e-01
    2.8760800171e+02    9.9238801003e-01
    2.8770816040e+02    9.9153500795e-01
    2.8780770874e+02    9.9068599939e-01
    2.8790710449e+02    9.8983597755e-01
    2.8800823975e+02    9.8896902800e-01
    2.8810787964e+02    9.8811298609e-01
    2.8820761108e+02    9.8725402355e-01
    2.8830743408e+02    9.8639202118e-01
    2.8840731812e+02    9.8552602530e-01
    2.8850708008e+02    9.8466002941e-01
    2.8860711670e+02    9.8378801346e-01
    2.8870706177e+02    9.8291397095e-01
    2.8880691528e+02    9.8203897476e-01
    2.8890689087e+02    9.8115897179e-01
    2.8900811768e+02    9.8026698828e-01
    2.8910772705e+02    9.7938597202e-01
    2.8920742798e+02    9.7850102186e-01
    2.8930715942e+02    9.7761398554e-01
    2.8940832520e+02    9.7671198845e-01
    2.8950799561e+02    9.7582101822e-01
    2.8960696411e+02    9.7493398190e-01
    2.8970724487e+02    9.7403198481e-01
    2.8980697632e+02    9.7313302755e-01
    2.8990713501e+02    9.7222799063e-01
    2.9000839233e+02    9.7131097317e-01
    2.9010812378e+02    9.7040498257e-01
    2.9020794678e+02    9.6949601173e-01
    2.9030841064e+02    9.6857899427e-01
    2.9040844727e+02    9.6766299009e-01
    2.9050842285e+02    9.6674501896e-01
    2.9060830688e+02    9.6582698822e-01
    2.9070809937e+02    9.6490699053e-01
    2.9080776978e+02    9.6398597956e-01
    2.9090731812e+02    9.6306502819e-01
    2.9100823975e+02    9.6212798357e-01
    2.9110757446e+02    9.6120500565e-01
    2.9120834351e+02    9.6026599407e-01
    2.9130743408e+02    9.5934098959e-01
    2.9140808105e+02    9.5839899778e-01
    2.9150720215e+02    9.5746999979e-01
    2.9160797119e+02    9.5652300119e-01
    2.9170724487e+02    9.5558899641e-01
    2.9180819702e+02    9.5463597775e-01
    2.9190771484e+02    9.5369499922e-01
    2.9200729370e+02    9.5275002718e-01
    2.9210855103e+02    9.5178699493e-01
    2.9220828247e+02    9.5083701611e-01
    2.9230728149e+02    9.4989001751e-01
    2.9240795898e+02    9.4892501831e-01
    2.9250775146e+02    9.4796502590e-01
    2.9260760498e+02    9.4700199366e-01
    2.9270745850e+02    9.4603598118e-01
    2.9280734253e+02    9.4506698847e-01
    2.9290731812e+02    9.4409400225e-01
    2.9300750732e+02    9.4311499596e-01
    2.9310763550e+02    9.4213402271e-01
    2.9320776367e+02    9.4115000963e-01
    2.9330783081e+02    9.4016301632e-01
    2.9340783691e+02    9.3917399645e-01
    2.9350784302e+02    9.3818098307e-01
    2.9360775757e+02    9.3718498945e-01
    2.9370755005e+02    9.3618798256e-01
    2.9380728149e+02    9.3518799543e-01
    2.9390856934e+02    9.3416899443e-01
    2.9400833130e+02    9.3316197395e-01
    2.9410806274e+02    9.3215197325e-01
    2.9420724487e+02    9.3114399910e-01
    2.9430868530e+02    9.3010902405e-01
    2.9440783691e+02    9.2909401655e-01
    2.9450769043e+02    9.2807000875e-01
    2.9460757446e+02    9.2704099417e-01
    2.9470770264e+02    9.2600697279e-01
    2.9480776978e+02    9.2496997118e-01
    2.9490774536e+02    9.2393100262e-01
    2.9500765991e+02    9.2289000750e-01
    2.9510748291e+02    9.2184698582e-01
    2.9520727539e+02    9.2080098391e-01
    2.9530844116e+02    9.1973799467e-01
    2.9540795898e+02    9.1869002581e-01
    2.9550808716e+02    9.1763299704e-01
    2.9560772705e+02    9.1657900810e-01
    2.9570730591e+02    9.1552299261e-01
    2.9580834961e+02    9.1444897652e-01
    2.9590783691e+02    9.1338902712e-01
    2.9600759888e+02    9.1232299805e-01
    2.9610778809e+02    9.1125100851e-01
    2.9620870972e+02    9.1016799212e-01
    2.9630816650e+02    9.0909898281e-01
    2.9640826416e+02    9.0801900625e-01
    2.9650769043e+02    9.0694397688e-01
    2.9660879517e+02    9.0584802628e-01
    2.9670846558e+02    9.0476500988e-01
    2.9680822754e+02    9.0367799997e-01
    2.9690798950e+02    9.0258699656e-01
    2.9700808716e+02    9.0148997307e-01
    2.9710800171e+02    9.0039199591e-01
    2.9720791626e+02    8.9929199219e-01
    2.9730822754e+02    8.9818298817e-01
    2.9740798950e+02    8.9707702398e-01
    2.9750875854e+02    8.9595699310e-01
    2.9760873413e+02    8.9484202862e-01
    2.9770874023e+02    8.9372301102e-01
    2.9780740356e+02    8.9261597395e-01
    2.9790890503e+02    8.9147198200e-01
    2.9800894165e+02    8.9034199715e-01
    2.9810745239e+02    8.8922500610e-01
    2.9820767212e+02    8.8808399439e-01
    2.9830798340e+02    8.8693898916e-01
    2.9840832520e+02    8.8578897715e-01
    2.9850894165e+02    8.8463097811e-01
    2.9860794067e+02    8.8348799944e-01
    2.9870837402e+02    8.8232302666e-01
    2.9880874634e+02    8.8115501404e-01
    2.9890756226e+02    8.8000100851e-01
    2.9900836182e+02    8.7882000208e-01
    2.9910787964e+02    8.7764900923e-01
    2.9920809937e+02    8.7646597624e-01
    2.9930825806e+02    8.7527900934e-01
    2.9940838623e+02    8.7408798933e-01
    2.9950866699e+02    8.7289202213e-01
    2.9960858154e+02    8.7169599533e-01
    2.9970883179e+02    8.7049198151e-01
    2.9980892944e+02    8.6928701401e-01
    2.9990899658e+02    8.6807799339e-01
endcurve
