Curveplot
LS-DYNA keyword deck by LS-PrePost
Abscissa
Ordinate
XY data
CHOP_EAMZ_mo-1 #pts=3000
* Minval=    -6.0673500061e+01 at time=       240.1040954590
* Maxval=     6.5877202360e-07 at time=         1.9997705221
    0.0000000000e+00    0.0000000000e+00
    9.9515393376e-02    2.6258701348e-35
    1.9926306605e-01    1.2728999670e-27
    2.9929459095e-01    6.2071998693e-22
    3.9880996943e-01    2.2696999563e-16
    4.9985638261e-01    6.6122398355e-12
    5.9905362129e-01    1.5888399929e-08
    6.9987636805e-01    8.7443702057e-08
    7.9954648018e-01    1.5747799864e-07
    8.9864903688e-01    2.1122899341e-07
    9.9966126680e-01    2.4416300448e-07
    1.0996326208e+00    2.6383500540e-07
    1.1992081404e+00    3.0392700978e-07
    1.2992560863e+00    3.7603601299e-07
    1.3984533548e+00    3.9695399323e-07
    1.4998453856e+00    3.3277700595e-07
    1.5994231701e+00    2.7769499411e-07
    1.6985268593e+00    3.3652699472e-07
    1.7997437716e+00    5.1074499652e-07
    1.8993321657e+00    6.5497300739e-07
    1.9997705221e+00    6.5877202360e-07
    2.0991508961e+00    4.6021199296e-07
    2.1989893913e+00    8.8798799425e-08
    2.2993984222e+00   -4.2986999915e-07
    2.3992598057e+00   -1.1178200339e-06
    2.4991235733e+00   -2.0067900550e-06
    2.5987050533e+00   -3.0942599096e-06
    2.6996295452e+00   -4.3754098442e-06
    2.7984552383e+00   -5.8390701270e-06
    2.8999648094e+00   -7.6082201304e-06
    2.9995646477e+00   -9.6074500107e-06
    3.0999040604e+00   -1.1924399587e-05
    3.1995027065e+00   -1.4606000150e-05
    3.2985928059e+00   -1.7675300114e-05
    3.3985512257e+00   -2.1215699235e-05
    3.4984316826e+00   -2.5172199457e-05
    3.5994479656e+00   -2.9513799745e-05
    3.6990442276e+00   -3.3944201277e-05
    3.7992246151e+00   -3.8438698539e-05
    3.8993701935e+00   -4.2916701204e-05
    3.9994227886e+00   -4.7324101615e-05
    4.0995702744e+00   -5.1583399909e-05
    4.1997194290e+00   -5.5607601098e-05
    4.2992067337e+00   -5.9322999732e-05
    4.3998479843e+00   -6.2836799771e-05
    4.4984693527e+00   -6.6086802690e-05
    4.5991115570e+00   -6.9278001320e-05
    4.6995639801e+00   -7.2310198448e-05
    4.7992572784e+00   -7.5142801506e-05
    4.8994216919e+00   -7.7724100265e-05
    4.9986214638e+00   -7.9909899796e-05
    5.0999350548e+00   -8.1655598478e-05
    5.1995096207e+00   -8.2758597273e-05
    5.2987051010e+00   -8.3248000010e-05
    5.3990669250e+00   -8.3220496890e-05
    5.4996919632e+00   -8.2787300926e-05
    5.5998415947e+00   -8.1942198449e-05
    5.6989326477e+00   -8.0757898104e-05
    5.7985906601e+00   -7.9379802628e-05
    5.8998737335e+00   -7.8015000327e-05
    5.9998154640e+00   -7.6858399552e-05
    6.0996627808e+00   -7.5971198385e-05
    6.1989426613e+00   -7.5396499597e-05
    6.2983975410e+00   -7.5200703577e-05
    6.3997802734e+00   -7.5401796494e-05
    6.4992542267e+00   -7.6051001088e-05
    6.5996904373e+00   -7.7194097685e-05
    6.6996359825e+00   -7.8883102105e-05
    6.7985401154e+00   -8.1233396486e-05
    6.8986897469e+00   -8.4393097495e-05
    6.9997239113e+00   -8.8374297775e-05
    7.0992083549e+00   -9.3049900897e-05
    7.1986923218e+00   -9.8436197732e-05
    7.2996892929e+00   -1.0461700003e-04
    7.3985881805e+00   -1.1139900016e-04
    7.4985284805e+00   -1.1895599891e-04
    7.5995121002e+00   -1.2724800035e-04
    7.6986827850e+00   -1.3594499615e-04
    7.7998762131e+00   -1.4535700029e-04
    7.8998236656e+00   -1.5521800378e-04
    7.9989199638e+00   -1.6556300397e-04
    8.0998153687e+00   -1.7669799854e-04
    8.1998615265e+00   -1.8851600180e-04
    8.2990570068e+00   -2.0110099285e-04
    8.3988990784e+00   -2.1466800536e-04
    8.4998006821e+00   -2.2912900022e-04
    8.5999631882e+00   -2.4399100221e-04
    8.6987676620e+00   -2.5892100530e-04
    8.7995939255e+00   -2.7418200625e-04
    8.8990020752e+00   -2.8904699138e-04
    8.9996566772e+00   -3.0373499612e-04
    9.0994253159e+00   -3.1777500408e-04
    9.1989107132e+00   -3.3108101343e-04
    9.2986021042e+00   -3.4354798845e-04
    9.3995208740e+00   -3.5518099321e-04
    9.4999656677e+00   -3.6566800554e-04
    9.5991315842e+00   -3.7491999683e-04
    9.6984272003e+00   -3.8307398790e-04
    9.7983865738e+00   -3.9030099288e-04
    9.8995943069e+00   -3.9670598926e-04
    9.9990644455e+00   -4.0230198647e-04
    1.0098740578e+01   -4.0741599514e-04
    1.0199964523e+01   -4.1228201007e-04
    1.0299671173e+01   -4.1689700447e-04
    1.0399828911e+01   -4.2151199887e-04
    1.0499686241e+01   -4.2623901390e-04
    1.0598957062e+01   -4.3126399396e-04
    1.0699192047e+01   -4.3675099732e-04
    1.0799160004e+01   -4.4279798749e-04
    1.0898541451e+01   -4.4945601257e-04
    1.0999831200e+01   -4.5700301416e-04
    1.1099590302e+01   -4.6512900735e-04
    1.1199539185e+01   -4.7394601279e-04
    1.1298731804e+01   -4.8333199811e-04
    1.1399438858e+01   -4.9365602899e-04
    1.1499849319e+01   -5.0482497318e-04
    1.1598558426e+01   -5.1661301404e-04
    1.1699192047e+01   -5.2936800057e-04
    1.1798781395e+01   -5.4286798695e-04
    1.1898856163e+01   -5.5766501464e-04
    1.1999099731e+01   -5.7398900390e-04
    1.2098836899e+01   -5.9183198027e-04
    1.2198673248e+01   -6.1124097556e-04
    1.2299571037e+01   -6.3231302192e-04
    1.2399525642e+01   -6.5463897772e-04
    1.2499297142e+01   -6.7830999615e-04
    1.2598771095e+01   -7.0314801997e-04
    1.2698864937e+01   -7.2932301555e-04
    1.2799510002e+01   -7.5686699711e-04
    1.2899018288e+01   -7.8532000771e-04
    1.2999300957e+01   -8.1509700976e-04
    1.3099866867e+01   -8.4597198293e-04
    1.3199278831e+01   -8.7748601800e-04
    1.3299127579e+01   -9.1000099201e-04
    1.3399185181e+01   -9.4337301562e-04
    1.3498596191e+01   -9.7710499540e-04
    1.3599918365e+01   -1.0118599748e-03
    1.3698760033e+01   -1.0457800236e-03
    1.3799416542e+01   -1.0801299941e-03
    1.3899566650e+01   -1.1139300186e-03
    1.3999134064e+01   -1.1469899910e-03
    1.4099665642e+01   -1.1795699829e-03
    1.4198574066e+01   -1.2106499635e-03
    1.4299221039e+01   -1.2411499629e-03
    1.4399885178e+01   -1.2705699774e-03
    1.4498701096e+01   -1.2984699570e-03
    1.4599349976e+01   -1.3260500273e-03
    1.4699978828e+01   -1.3528299751e-03
    1.4799977303e+01   -1.3787100324e-03
    1.4899495125e+01   -1.4035899658e-03
    1.4999355316e+01   -1.4276000438e-03
    1.5098661423e+01   -1.4504400315e-03
    1.5198907852e+01   -1.4724399662e-03
    1.5299245834e+01   -1.4936099760e-03
    1.5398726463e+01   -1.5142000047e-03
    1.5499447823e+01   -1.5350399772e-03
    1.5598524094e+01   -1.5556700528e-03
    1.5699790955e+01   -1.5771300532e-03
    1.5799527168e+01   -1.5990999527e-03
    1.5899530411e+01   -1.6224300489e-03
    1.5999344826e+01   -1.6473400174e-03
    1.6099838257e+01   -1.6741999425e-03
    1.6199182510e+01   -1.7025599955e-03
    1.6298717499e+01   -1.7328299582e-03
    1.6399026871e+01   -1.7652499955e-03
    1.6499639511e+01   -1.7997400137e-03
    1.6599966049e+01   -1.8361400580e-03
    1.6699516296e+01   -1.8742800457e-03
    1.6799160004e+01   -1.9146800041e-03
    1.6898914337e+01   -1.9573899917e-03
    1.6998966217e+01   -2.0024699625e-03
    1.7099979401e+01   -2.0502801053e-03
    1.7198873520e+01   -2.0992399659e-03
    1.7299186707e+01   -2.1510599181e-03
    1.7399387360e+01   -2.2049800027e-03
    1.7498723984e+01   -2.2604800761e-03
    1.7598539352e+01   -2.3181301076e-03
    1.7699022293e+01   -2.3779100738e-03
    1.7799432755e+01   -2.4392800406e-03
    1.7899370193e+01   -2.5019699242e-03
    1.7999597549e+01   -2.5663399138e-03
    1.8099447250e+01   -2.6320000179e-03
    1.8199300766e+01   -2.6994200889e-03
    1.8299535751e+01   -2.7690599672e-03
    1.8399299622e+01   -2.8403899632e-03
    1.8499729156e+01   -2.9138899408e-03
    1.8599893570e+01   -2.9883999377e-03
    1.8699567795e+01   -3.0632601120e-03
    1.8799831390e+01   -3.1387500931e-03
    1.8899637222e+01   -3.2135799993e-03
    1.8998748779e+01   -3.2871100120e-03
    1.9099582672e+01   -3.3607499208e-03
    1.9199359894e+01   -3.4320999403e-03
    1.9299434662e+01   -3.5018899944e-03
    1.9398958206e+01   -3.5693501122e-03
    1.9499582291e+01   -3.6354700569e-03
    1.9598772049e+01   -3.6985299084e-03
    1.9699968338e+01   -3.7607599515e-03
    1.9798786163e+01   -3.8196900859e-03
    1.9899040222e+01   -3.8778600283e-03
    1.9999559402e+01   -3.9349901490e-03
    2.0099245071e+01   -3.9909197949e-03
    2.0199890137e+01   -4.0471497923e-03
    2.0299772263e+01   -4.1031399742e-03
    2.0399650574e+01   -4.1597499512e-03
    2.0499698639e+01   -4.2175399140e-03
    2.0599178314e+01   -4.2765801772e-03
    2.0698671341e+01   -4.3375799432e-03
    2.0798824310e+01   -4.4013601728e-03
    2.0898784637e+01   -4.4677499682e-03
    2.0999406815e+01   -4.5374999754e-03
    2.1098482132e+01   -4.6088499948e-03
    2.1199199677e+01   -4.6839499846e-03
    2.1300012589e+01   -4.7615501098e-03
    2.1399957657e+01   -4.8410301097e-03
    2.1499794006e+01   -4.9230400473e-03
    2.1599159241e+01   -5.0071300939e-03
    2.1699502945e+01   -5.0944602117e-03
    2.1798704147e+01   -5.1833898760e-03
    2.1898960114e+01   -5.2764099091e-03
    2.1998720169e+01   -5.3724502213e-03
    2.2098939896e+01   -5.4725301452e-03
    2.2199617386e+01   -5.5765998550e-03
    2.2299827576e+01   -5.6835399009e-03
    2.2399114609e+01   -5.7927700691e-03
    2.2499444962e+01   -5.9063797817e-03
    2.2598722458e+01   -6.0217999853e-03
    2.2699853897e+01   -6.1423201114e-03
    2.2798582077e+01   -6.2629198655e-03
    2.2899238586e+01   -6.3888197765e-03
    2.2999137878e+01   -6.5163299441e-03
    2.3098657608e+01   -6.6455299966e-03
    2.3199026108e+01   -6.7776897922e-03
    2.3299343109e+01   -6.9112298079e-03
    2.3398542404e+01   -7.0444201119e-03
    2.3498989105e+01   -7.1800099686e-03
    2.3598775864e+01   -7.3150098324e-03
    2.3698747635e+01   -7.4501200579e-03
    2.3799365997e+01   -7.5856400654e-03
    2.3899591446e+01   -7.7200299129e-03
    2.3998765945e+01   -7.8522898257e-03
    2.4099773407e+01   -7.9859895632e-03
    2.4199552536e+01   -8.1168599427e-03
    2.4298782349e+01   -8.2457503304e-03
    2.4399843216e+01   -8.3758598194e-03
    2.4498678207e+01   -8.5022198036e-03
    2.4598945618e+01   -8.6297895759e-03
    2.4699495316e+01   -8.7572103366e-03
    2.4799011230e+01   -8.8830096647e-03
    2.4900051117e+01   -9.0103102848e-03
    2.4999332428e+01   -9.1348700225e-03
    2.5099761963e+01   -9.2602903023e-03
    2.5199033737e+01   -9.3838004395e-03
    2.5300035477e+01   -9.5093799755e-03
    2.5399406433e+01   -9.6335401759e-03
    2.5499134064e+01   -9.7594503313e-03
    2.5599613190e+01   -9.8880100995e-03
    2.5699163437e+01   -1.0017599910e-02
    2.5798503876e+01   -1.0149899870e-02
    2.5899248123e+01   -1.0287799872e-02
    2.5999994278e+01   -1.0429799557e-02
    2.6099037170e+01   -1.0573700070e-02
    2.6200025558e+01   -1.0724799708e-02
    2.6299936295e+01   -1.0878699832e-02
    2.6399944305e+01   -1.1037100106e-02
    2.6498910904e+01   -1.1198299937e-02
    2.6599910736e+01   -1.1367100291e-02
    2.6698696136e+01   -1.1536300182e-02
    2.6799938202e+01   -1.1714000255e-02
    2.6899932861e+01   -1.1893600225e-02
    2.6999673843e+01   -1.2076600455e-02
    2.7099128723e+01   -1.2262900360e-02
    2.7198656082e+01   -1.2453200296e-02
    2.7298643112e+01   -1.2648199685e-02
    2.7399482727e+01   -1.2848500162e-02
    2.7498590469e+01   -1.3048900291e-02
    2.7599332809e+01   -1.3255899772e-02
    2.7698459625e+01   -1.3462600298e-02
    2.7799516678e+01   -1.3676200062e-02
    2.7899650574e+01   -1.3890899718e-02
    2.7999504089e+01   -1.4107899740e-02
    2.8098585129e+01   -1.4325999655e-02
    2.8199771881e+01   -1.4551900327e-02
    2.8298843384e+01   -1.4776499942e-02
    2.8399639130e+01   -1.5008400194e-02
    2.8499494553e+01   -1.5241200104e-02
    2.8599842072e+01   -1.5477400273e-02
    2.8699117661e+01   -1.5712799504e-02
    2.8798791885e+01   -1.5949999914e-02
    2.8899847031e+01   -1.6190599650e-02
    2.8999639511e+01   -1.6427699476e-02
    2.9099418640e+01   -1.6663800925e-02
    2.9198518753e+01   -1.6897199675e-02
    2.9299543381e+01   -1.7133999616e-02
    2.9399906158e+01   -1.7367899418e-02
    2.9498832703e+01   -1.7597200349e-02
    2.9599447250e+01   -1.7829200253e-02
    2.9699592590e+01   -1.8059099093e-02
    2.9798889160e+01   -1.8286200240e-02
    2.9898960114e+01   -1.8514700234e-02
    2.9999504089e+01   -1.8744200468e-02
    3.0098531723e+01   -1.8970800564e-02
    3.0199562073e+01   -1.9202899188e-02
    3.0298788071e+01   -1.9432600588e-02
    3.0398969650e+01   -1.9666599110e-02
    3.0498847961e+01   -1.9902499393e-02
    3.0599874496e+01   -2.0144499838e-02
    3.0698890686e+01   -2.0385300741e-02
    3.0799699783e+01   -2.0634900779e-02
    3.0899259567e+01   -2.0886300132e-02
    3.0999967575e+01   -2.1145699546e-02
    3.1099996567e+01   -2.1408200264e-02
    3.1198886871e+01   -2.1672099829e-02
    3.1299573898e+01   -2.1945100278e-02
    3.1399017334e+01   -2.2219099104e-02
    3.1499788284e+01   -2.2501500323e-02
    3.1599523544e+01   -2.2785199806e-02
    3.1699588776e+01   -2.3073699325e-02
    3.1799076080e+01   -2.3364799097e-02
    3.1900079727e+01   -2.3665599525e-02
    3.1999242783e+01   -2.3966800421e-02
    3.2099510193e+01   -2.4277400225e-02
    3.2198631287e+01   -2.4590199813e-02
    3.2299388885e+01   -2.4913700297e-02
    3.2399307251e+01   -2.5240199640e-02
    3.2498889923e+01   -2.5571100414e-02
    3.2599979401e+01   -2.5912500918e-02
    3.2698627472e+01   -2.6250999421e-02
    3.2799640656e+01   -2.6603199542e-02
    3.2898746490e+01   -2.6954399422e-02
    3.2999019623e+01   -2.7314899489e-02
    3.3100063324e+01   -2.7683200315e-02
    3.3199569702e+01   -2.8050599620e-02
    3.3299873352e+01   -2.8425199911e-02
    3.3399551392e+01   -2.8801400214e-02
    3.3499988556e+01   -2.9183700681e-02
    3.3598609924e+01   -2.9561400414e-02
    3.3699157715e+01   -2.9947800562e-02
    3.3799007416e+01   -3.0332399532e-02
    3.3899604797e+01   -3.0720299110e-02
    3.3998775482e+01   -3.1103000045e-02
    3.4099689484e+01   -3.1492400914e-02
    3.4199836731e+01   -3.1878300011e-02
    3.4298866272e+01   -3.2259400934e-02
    3.4399936676e+01   -3.2648399472e-02
    3.4498493195e+01   -3.3028300852e-02
    3.4599922180e+01   -3.3420100808e-02
    3.4698947906e+01   -3.3803898841e-02
    3.4799991608e+01   -3.4196898341e-02
    3.4899494171e+01   -3.4584898502e-02
    3.4998970032e+01   -3.4973401576e-02
    3.5099967957e+01   -3.5367801785e-02
    3.5199047089e+01   -3.5754401237e-02
    3.5299457550e+01   -3.6146398634e-02
    3.5398910522e+01   -3.6535598338e-02
    3.5498916626e+01   -3.6929000169e-02
    3.5599937439e+01   -3.7328999490e-02
    3.5699329376e+01   -3.7725899369e-02
    3.5799266815e+01   -3.8129400462e-02
    3.5899963379e+01   -3.8541801274e-02
    3.5999042511e+01   -3.8953900337e-02
    3.6098529816e+01   -3.9374399930e-02
    3.6199169159e+01   -3.9806500077e-02
    3.6299892426e+01   -4.0246099234e-02
    3.6399749756e+01   -4.0689099580e-02
    3.6499153137e+01   -4.1137199849e-02
    3.6598678589e+01   -4.1593100876e-02
    3.6699142456e+01   -4.2060498148e-02
    3.6799869537e+01   -4.2536698282e-02
    3.6899379730e+01   -4.3014798313e-02
    3.6998783112e+01   -4.3499700725e-02
    3.7099712372e+01   -4.3999500573e-02
    3.7199489594e+01   -4.4500999153e-02
    3.7299419403e+01   -4.5010399073e-02
    3.7399810791e+01   -4.5529399067e-02
    3.7499927521e+01   -4.6053800732e-02
    3.7599002838e+01   -4.6579100192e-02
    3.7699714661e+01   -4.7119300812e-02
    3.7798812866e+01   -4.7656901181e-02
    3.7899372101e+01   -4.8209000379e-02
    3.7999195099e+01   -4.8763800412e-02
    3.8099407196e+01   -4.9327701330e-02
    3.8199340820e+01   -4.9897801131e-02
    3.8299354553e+01   -5.0476700068e-02
    3.8399074554e+01   -5.1062200218e-02
    3.8499275208e+01   -5.1657900214e-02
    3.8599330902e+01   -5.2258800715e-02
    3.8698486328e+01   -5.2858799696e-02
    3.8799770355e+01   -5.3474798799e-02
    3.8899299622e+01   -5.4081700742e-02
    3.8998828888e+01   -5.4689001292e-02
    3.9099857330e+01   -5.5305298418e-02
    3.9199832916e+01   -5.5914100260e-02
    3.9299045563e+01   -5.6517001241e-02
    3.9398574829e+01   -5.7120200247e-02
    3.9499298096e+01   -5.7728800923e-02
    3.9598480225e+01   -5.8326501399e-02
    3.9699295044e+01   -5.8932501823e-02
    3.9798488617e+01   -5.9527799487e-02
    3.9899307251e+01   -6.0132399201e-02
    3.9998508453e+01   -6.0727600008e-02
    4.0099330902e+01   -6.1333701015e-02
    4.0199234009e+01   -6.1936598271e-02
    4.0298763275e+01   -6.2540203333e-02
    4.0399806976e+01   -6.3157096505e-02
    4.0499313354e+01   -6.3769102097e-02
    4.0598815918e+01   -6.4386397600e-02
    4.0698593140e+01   -6.5011397004e-02
    4.0799499512e+01   -6.5650299191e-02
    4.0899147034e+01   -6.6288799047e-02
    4.0999248505e+01   -6.6937997937e-02
    4.1099441528e+01   -6.7595101893e-02
    4.1199047089e+01   -6.8255200982e-02
    4.1299789429e+01   -6.8929396570e-02
    4.1398914337e+01   -6.9599896669e-02
    4.1499668121e+01   -7.0288896561e-02
    4.1599575043e+01   -7.0979200304e-02
    4.1699714661e+01   -7.1678400040e-02
    4.1799175262e+01   -7.2380900383e-02
    4.1898616791e+01   -7.3092997074e-02
    4.1999458313e+01   -7.3826201260e-02
    4.2098537445e+01   -7.4557803571e-02
    4.2199249268e+01   -7.5312398374e-02
    4.2298347473e+01   -7.6065696776e-02
    4.2398628235e+01   -7.6838701963e-02
    4.2499031067e+01   -7.7623501420e-02
    4.2598461151e+01   -7.8411102295e-02
    4.2699275970e+01   -7.9220101237e-02
    4.2799488068e+01   -8.0035001040e-02
    4.2899055481e+01   -8.0855503678e-02
    4.2998535156e+01   -8.1685401499e-02
    4.3099548340e+01   -8.2538098097e-02
    4.3199115753e+01   -8.3387896419e-02
    4.3299861908e+01   -8.4256596863e-02
    4.3398906708e+01   -8.5118703544e-02
    4.3499126434e+01   -8.5998103023e-02
    4.3598388672e+01   -8.6874596775e-02
    4.3699779510e+01   -8.7774403393e-02
    4.3799228668e+01   -8.8660098612e-02
    4.3898277283e+01   -8.9544698596e-02
    4.3999061584e+01   -9.0446501970e-02
    4.4098529816e+01   -9.1337502003e-02
    4.4199535370e+01   -9.2242397368e-02
    4.4298385620e+01   -9.3127898872e-02
    4.4399440765e+01   -9.4033300877e-02
    4.4499725342e+01   -9.4932399690e-02
    4.4599327087e+01   -9.5826603472e-02
    4.4699378967e+01   -9.6726201475e-02
    4.4798877716e+01   -9.7622498870e-02
    4.4899887085e+01   -9.8533600569e-02
    4.4998939514e+01   -9.9427498877e-02
    4.5099704742e+01   -1.0033699870e-01
    4.5199317932e+01   -1.0123500228e-01
    4.5298744202e+01   -1.0213200003e-01
    4.5399871826e+01   -1.0304600000e-01
    4.5498485565e+01   -1.0394199938e-01
    4.5598773956e+01   -1.0485699773e-01
    4.5699344635e+01   -1.0577999800e-01
    4.5799720764e+01   -1.0670900345e-01
    4.5898738861e+01   -1.0763400048e-01
    4.5999389648e+01   -1.0858599842e-01
    4.6098636627e+01   -1.0953500122e-01
    4.6199424744e+01   -1.1050999910e-01
    4.6298450470e+01   -1.1147999763e-01
    4.6399097443e+01   -1.1247800291e-01
    4.6499595642e+01   -1.1348599941e-01
    4.6598964691e+01   -1.1449500173e-01
    4.6699855804e+01   -1.1553099751e-01
    4.6798965454e+01   -1.1656299978e-01
    4.6899520874e+01   -1.1762200296e-01
    4.6998859406e+01   -1.1868000031e-01
    4.7099712372e+01   -1.1976800114e-01
    4.7199031830e+01   -1.2085299939e-01
    4.7298431396e+01   -1.2195099890e-01
    4.7399028778e+01   -1.2307500094e-01
    4.7499637604e+01   -1.2421099842e-01
    4.7598648071e+01   -1.2534099817e-01
    4.7699302673e+01   -1.2650099397e-01
    4.7798351288e+01   -1.2765300274e-01
    4.7899353027e+01   -1.2883999944e-01
    4.7999153137e+01   -1.3002400100e-01
    4.8098453522e+01   -1.3121500611e-01
    4.8198909760e+01   -1.3243299723e-01
    4.8299633026e+01   -1.3366800547e-01
    4.8398738861e+01   -1.3489699364e-01
    4.8499198914e+01   -1.3615700603e-01
    4.8598854065e+01   -1.3741700351e-01
    4.8699150085e+01   -1.3869300485e-01
    4.8799079895e+01   -1.3997200131e-01
    4.8898597717e+01   -1.4124900103e-01
    4.8999652863e+01   -1.4254699647e-01
    4.9099071503e+01   -1.4382499456e-01
    4.9199214935e+01   -1.4511099458e-01
    4.9298885345e+01   -1.4638899267e-01
    4.9398395538e+01   -1.4766299725e-01
    4.9499343872e+01   -1.4895200729e-01
    4.9599201202e+01   -1.5022400022e-01
    4.9698394775e+01   -1.5148399770e-01
    4.9798366547e+01   -1.5275299549e-01
    4.9899192810e+01   -1.5403099358e-01
    4.9998390198e+01   -1.5528899431e-01
    5.0099800110e+01   -1.5657599270e-01
    5.0198532104e+01   -1.5783199668e-01
    5.0299587250e+01   -1.5912200511e-01
    5.0399093628e+01   -1.6039900482e-01
    5.0498950958e+01   -1.6168700159e-01
    5.0599006653e+01   -1.6298699379e-01
    5.0698478699e+01   -1.6428999603e-01
    5.0799171448e+01   -1.6561999917e-01
    5.0898323059e+01   -1.6694200039e-01
    5.0998867035e+01   -1.6829699278e-01
    5.1099498749e+01   -1.6966600716e-01
    5.1199752808e+01   -1.7104099691e-01
    5.1298835754e+01   -1.7241199315e-01
    5.1398994446e+01   -1.7380900681e-01
    5.1499706268e+01   -1.7522600293e-01
    5.1599384308e+01   -1.7664100230e-01
    5.1698520660e+01   -1.7805999517e-01
    5.1799461365e+01   -1.7951899767e-01
    5.1898849487e+01   -1.8097099662e-01
    5.1999725342e+01   -1.8246200681e-01
    5.2098739624e+01   -1.8394300342e-01
    5.2199386597e+01   -1.8546700478e-01
    5.2298427582e+01   -1.8698300421e-01
    5.2398551941e+01   -1.8853299320e-01
    5.2499275208e+01   -1.9010999799e-01
    5.2598937988e+01   -1.9168800116e-01
    5.2698734283e+01   -1.9328400493e-01
    5.2798408508e+01   -1.9489699602e-01
    5.2899562836e+01   -1.9655099511e-01
    5.2998989105e+01   -1.9819299877e-01
    5.3098411560e+01   -1.9985100627e-01
    5.3199359894e+01   -2.0154899359e-01
    5.3298328400e+01   -2.0322699845e-01
    5.3398296356e+01   -2.0493400097e-01
    5.3499610901e+01   -2.0667399466e-01
    5.3598720551e+01   -2.0838500559e-01
    5.3698627472e+01   -2.1011699736e-01
    5.3798198700e+01   -2.1184800565e-01
    5.3898925781e+01   -2.1360300481e-01
    5.3999671936e+01   -2.1536199749e-01
    5.4098808289e+01   -2.1709600091e-01
    5.4199142456e+01   -2.1885199845e-01
    5.4298648834e+01   -2.2059500217e-01
    5.4399677277e+01   -2.2236600518e-01
    5.4499649048e+01   -2.2412100434e-01
    5.4599693298e+01   -2.2587899864e-01
    5.4698577881e+01   -2.2762000561e-01
    5.4799564362e+01   -2.2939999402e-01
    5.4898994446e+01   -2.3115600646e-01
    5.4999210358e+01   -2.3292599618e-01
    5.5098278046e+01   -2.3467700183e-01
    5.5199554443e+01   -2.3646700382e-01
    5.5298919678e+01   -2.3822599649e-01
    5.5398529053e+01   -2.3999300599e-01
    5.5498878479e+01   -2.4177899957e-01
    5.5599460602e+01   -2.4357600510e-01
    5.5698905945e+01   -2.4536299706e-01
    5.5798271179e+01   -2.4716000259e-01
    5.5898849487e+01   -2.4899500608e-01
    5.5999435425e+01   -2.5084599853e-01
    5.6098999023e+01   -2.5269499421e-01
    5.6199249268e+01   -2.5457599759e-01
    5.6298202515e+01   -2.5644999743e-01
    5.6398120880e+01   -2.5836199522e-01
    5.6499198914e+01   -2.6031500101e-01
    5.6598491669e+01   -2.6225298643e-01
    5.6699291229e+01   -2.6423901320e-01
    5.6799270630e+01   -2.6622799039e-01
    5.6898563385e+01   -2.6822200418e-01
    5.6999332428e+01   -2.7026399970e-01
    5.7098556519e+01   -2.7229401469e-01
    5.7199298859e+01   -2.7437400818e-01
    5.7299049377e+01   -2.7645200491e-01
    5.7399551392e+01   -2.7856498957e-01
    5.7498447418e+01   -2.8066098690e-01
    5.7598999023e+01   -2.8281000257e-01
    5.7699577332e+01   -2.8497499228e-01
    5.7798553467e+01   -2.8712299466e-01
    5.7898429871e+01   -2.8930699825e-01
    5.7999313354e+01   -2.9153099656e-01
    5.8099056244e+01   -2.9374799132e-01
    5.8199077606e+01   -2.9599100351e-01
    5.8299358368e+01   -2.9825899005e-01
    5.8398315430e+01   -3.0051699281e-01
    5.8499008179e+01   -3.0283400416e-01
    5.8599185944e+01   -3.0515399575e-01
    5.8698398590e+01   -3.0746498704e-01
    5.8799144745e+01   -3.0982100964e-01
    5.8899295807e+01   -3.1216999888e-01
    5.8998798370e+01   -3.1450700760e-01
    5.9099071503e+01   -3.1686300039e-01
    5.9198818207e+01   -3.1920701265e-01
    5.9299606323e+01   -3.2157498598e-01
    5.9398818970e+01   -3.2390400767e-01
    5.9498332977e+01   -3.2623800635e-01
    5.9598651886e+01   -3.2859000564e-01
    5.9699459076e+01   -3.3095100522e-01
    5.9798648834e+01   -3.3327499032e-01
    5.9899463654e+01   -3.3563798666e-01
    5.9998657227e+01   -3.3796501160e-01
    6.0099468231e+01   -3.4033399820e-01
    6.0199417114e+01   -3.4268900752e-01
    6.0298927307e+01   -3.4504100680e-01
    6.0398414612e+01   -3.4740298986e-01
    6.0498451233e+01   -3.4978899360e-01
    6.0599441528e+01   -3.5221201181e-01
    6.0698879242e+01   -3.5461199284e-01
    6.0798358917e+01   -3.5703098774e-01
    6.0898712158e+01   -3.5949000716e-01
    6.0998638153e+01   -3.6195799708e-01
    6.1098850250e+01   -3.6445200443e-01
    6.1198661804e+01   -3.6695200205e-01
    6.1299304962e+01   -3.6949101090e-01
    6.1398910522e+01   -3.7202000618e-01
    6.1499561310e+01   -3.7459400296e-01
    6.1599170685e+01   -3.7715798616e-01
    6.1699386597e+01   -3.7975499034e-01
    6.1798725128e+01   -3.8234901428e-01
    6.1899555206e+01   -3.8500401378e-01
    6.1998531342e+01   -3.8763299584e-01
    6.2099079132e+01   -3.9032900333e-01
    6.2198017120e+01   -3.9300501347e-01
    6.2298595428e+01   -3.9574900270e-01
    6.2399600983e+01   -3.9853000641e-01
    6.2499008179e+01   -4.0129101276e-01
    6.2599357605e+01   -4.0410199761e-01
    6.2699073792e+01   -4.0691998601e-01
    6.2798751831e+01   -4.0976101160e-01
    6.2898178101e+01   -4.1261899471e-01
    6.2999042511e+01   -4.1554298997e-01
    6.3098369598e+01   -4.1844499111e-01
    6.3199218750e+01   -4.2141199112e-01
    6.3299423218e+01   -4.2438000441e-01
    6.3399105072e+01   -4.2735001445e-01
    6.3499263763e+01   -4.3034899235e-01
    6.3598846436e+01   -4.3334499002e-01
    6.3699417114e+01   -4.3637999892e-01
    6.3798416138e+01   -4.3937700987e-01
    6.3899059296e+01   -4.4242998958e-01
    6.3998111725e+01   -4.4544199109e-01
    6.4098808289e+01   -4.4850900769e-01
    6.4198616028e+01   -4.5155298710e-01
    6.4298065186e+01   -4.5459100604e-01
    6.4399047852e+01   -4.5767998695e-01
    6.4498497009e+01   -4.6072900295e-01
    6.4598205566e+01   -4.6379199624e-01
    6.4698471069e+01   -4.6687999368e-01
    6.4799392700e+01   -4.6999600530e-01
    6.4898757935e+01   -4.7306999564e-01
    6.4998992920e+01   -4.7617700696e-01
    6.5098457336e+01   -4.7926300764e-01
    6.5199485779e+01   -4.8240199685e-01
    6.5298767090e+01   -4.8549100757e-01
    6.5398094177e+01   -4.8859000206e-01
    6.5498542786e+01   -4.9173301458e-01
    6.5599021912e+01   -4.9489000440e-01
    6.5698654175e+01   -4.9803298712e-01
    6.5798309326e+01   -5.0119400024e-01
    6.5898796082e+01   -5.0440198183e-01
    6.5999298096e+01   -5.0763297081e-01
    6.6099357605e+01   -5.1087200642e-01
    6.6198089600e+01   -5.1409101486e-01
    6.6298568726e+01   -5.1739102602e-01
    6.6399055481e+01   -5.2071601152e-01
    6.6499374390e+01   -5.2406001091e-01
    6.6598571777e+01   -5.2739101648e-01
    6.6699279785e+01   -5.3079700470e-01
    6.6798873901e+01   -5.3419101238e-01
    6.6898162842e+01   -5.3759801388e-01
    6.6998817444e+01   -5.4107701778e-01
    6.7099456787e+01   -5.4457998276e-01
    6.7198554993e+01   -5.4805397987e-01
    6.7298095703e+01   -5.5156797171e-01
    6.7398475647e+01   -5.5513602495e-01
    6.7498878479e+01   -5.5872899294e-01
    6.7599319458e+01   -5.6234502792e-01
    6.7698173523e+01   -5.6592702866e-01
    6.7798675537e+01   -5.6959098577e-01
    6.7898078918e+01   -5.7323902845e-01
    6.7998870850e+01   -5.7696300745e-01
    6.8098144531e+01   -5.8065700531e-01
    6.8198066711e+01   -5.8440202475e-01
    6.8298637390e+01   -5.8820098639e-01
    6.8399040222e+01   -5.9202301502e-01
    6.8498031616e+01   -5.9581798315e-01
    6.8599357605e+01   -5.9972602129e-01
    6.8698394775e+01   -6.0356402397e-01
    6.8799079895e+01   -6.0748201609e-01
    6.8898124695e+01   -6.1134701967e-01
    6.8999107361e+01   -6.1529600620e-01
    6.9098579407e+01   -6.1919099092e-01
    6.9198295593e+01   -6.2309801579e-01
    6.9299041748e+01   -6.2704700232e-01
    6.9399078369e+01   -6.3097000122e-01
    6.9498542786e+01   -6.3487201929e-01
    6.9599403381e+01   -6.3883000612e-01
    6.9698539734e+01   -6.4272201061e-01
    6.9799308777e+01   -6.4668101072e-01
    6.9898460388e+01   -6.5058100224e-01
    6.9999237061e+01   -6.5455102921e-01
    7.0098388672e+01   -6.5846598148e-01
    7.0198394775e+01   -6.6242402792e-01
    7.0298057556e+01   -6.6638201475e-01
    7.0399032593e+01   -6.7040699720e-01
    7.0498466492e+01   -6.7438799143e-01
    7.0599403381e+01   -6.7844700813e-01
    7.0698791504e+01   -6.8246501684e-01
    7.0798881531e+01   -6.8653297424e-01
    7.0898231506e+01   -6.9059598446e-01
    7.0999336243e+01   -6.9475400448e-01
    7.1098709106e+01   -6.9886398315e-01
    7.1198707581e+01   -7.0302098989e-01
    7.1299278259e+01   -7.0722097158e-01
    7.1398231506e+01   -7.1137398481e-01
    7.1498794556e+01   -7.1561598778e-01
    7.1598716736e+01   -7.1985101700e-01
    7.1697982788e+01   -7.2408097982e-01
    7.1798751831e+01   -7.2839802504e-01
    7.1897949219e+01   -7.3267501593e-01
    7.1998519897e+01   -7.3704099655e-01
    7.2098945618e+01   -7.4143099785e-01
    7.2199378967e+01   -7.4585300684e-01
    7.2298210144e+01   -7.5023400784e-01
    7.2398147583e+01   -7.5469398499e-01
    7.2498870850e+01   -7.5922298431e-01
    7.2598121643e+01   -7.6371699572e-01
    7.2698532104e+01   -7.6829701662e-01
    7.2799018860e+01   -7.7291297913e-01
    7.2898773193e+01   -7.7753102779e-01
    7.2997962952e+01   -7.8215402365e-01
    7.3098670959e+01   -7.8687900305e-01
    7.3199371338e+01   -7.9163300991e-01
    7.3298095703e+01   -7.9632097483e-01
    7.3398689270e+01   -8.0112397671e-01
    7.3498687744e+01   -8.0592101812e-01
    7.3597930908e+01   -8.1070202589e-01
    7.3698081970e+01   -8.1554299593e-01
    7.3798294067e+01   -8.2040101290e-01
    7.3898818970e+01   -8.2528799772e-01
    7.3999389648e+01   -8.3018898964e-01
    7.4098358154e+01   -8.3502197266e-01
    7.4198646545e+01   -8.3992999792e-01
    7.4297996521e+01   -8.4480100870e-01
    7.4398872375e+01   -8.4975701571e-01
    7.4498786926e+01   -8.5467702150e-01
    7.4598777771e+01   -8.5961097479e-01
    7.4698471069e+01   -8.6454302073e-01
    7.4799293518e+01   -8.6954301596e-01
    7.4898551941e+01   -8.7447601557e-01
    7.4998977661e+01   -8.7947499752e-01
    7.5099006653e+01   -8.8446301222e-01
    7.5198219299e+01   -8.8941597939e-01
    7.5298927307e+01   -8.9445197582e-01
    7.5399108887e+01   -8.9947301149e-01
    7.5498382568e+01   -9.0446001291e-01
    7.5598762512e+01   -9.0951901674e-01
    7.5699150085e+01   -9.1459399462e-01
    7.5798500061e+01   -9.1963797808e-01
    7.5898895264e+01   -9.2475897074e-01
    7.5999313354e+01   -9.2990601063e-01
    7.6099197388e+01   -9.3505299091e-01
    7.6198791504e+01   -9.4021302462e-01
    7.6298805237e+01   -9.4542300701e-01
    7.6399192810e+01   -9.5068198442e-01
    7.6499221802e+01   -9.5595198870e-01
    7.6598320007e+01   -9.6120297909e-01
    7.6698913574e+01   -9.6656101942e-01
    7.6799156189e+01   -9.7193098068e-01
    7.6899078369e+01   -9.7731399536e-01
    7.6998100281e+01   -9.8267698288e-01
    7.7098617554e+01   -9.8815101385e-01
    7.7199111938e+01   -9.9365401268e-01
    7.7298439026e+01   -9.9912297726e-01
    7.7398689270e+01   -1.0046700239e+00
    7.7498970032e+01   -1.0102499723e+00
    7.7599281311e+01   -1.0158599615e+00
    7.7698013306e+01   -1.0214099884e+00
    7.7798393250e+01   -1.0270899534e+00
    7.7898521423e+01   -1.0327800512e+00
    7.7999191284e+01   -1.0385299921e+00
    7.8098335266e+01   -1.0442299843e+00
    7.8197845459e+01   -1.0499900579e+00
    7.8298294067e+01   -1.0558400154e+00
    7.8398773193e+01   -1.0617300272e+00
    7.8499282837e+01   -1.0676599741e+00
    7.8598693848e+01   -1.0735499859e+00
    7.8699264526e+01   -1.0795500278e+00
    7.8798240662e+01   -1.0854699612e+00
    7.8898727417e+01   -1.0915000439e+00
    7.8998100281e+01   -1.0974800587e+00
    7.9099014282e+01   -1.1035599709e+00
    7.9198646545e+01   -1.1095700264e+00
    7.9299301147e+01   -1.1156500578e+00
    7.9398857117e+01   -1.1216700077e+00
    7.9498237610e+01   -1.1276799440e+00
    7.9598648071e+01   -1.1337599754e+00
    7.9699325562e+01   -1.1398600340e+00
    7.9798385620e+01   -1.1458699703e+00
    7.9899085999e+01   -1.1519800425e+00
    7.9998161316e+01   -1.1579999924e+00
    8.0098861694e+01   -1.1641399860e+00
    8.0197929382e+01   -1.1701899767e+00
    8.0298751831e+01   -1.1763600111e+00
    8.0398132324e+01   -1.1824599504e+00
    8.0499023438e+01   -1.1886700392e+00
    8.0598365784e+01   -1.1948100328e+00
    8.0699211121e+01   -1.2010699511e+00
    8.0798362732e+01   -1.2072499990e+00
    8.0899169922e+01   -1.2135699987e+00
    8.0998023987e+01   -1.2197799683e+00
    8.1099250793e+01   -1.2261799574e+00
    8.1198242188e+01   -1.2324500084e+00
    8.1298713684e+01   -1.2388399839e+00
    8.1399169922e+01   -1.2452600002e+00
    8.1498008728e+01   -1.2515900135e+00
    8.1599243164e+01   -1.2581000328e+00
    8.1698394775e+01   -1.2645000219e+00
    8.1799026489e+01   -1.2710299492e+00
    8.1898094177e+01   -1.2774800062e+00
    8.1998344421e+01   -1.2840399742e+00
    8.2098625183e+01   -1.2906399965e+00
    8.2198913574e+01   -1.2972799540e+00
    8.2299217224e+01   -1.3039599657e+00
    8.2397872925e+01   -1.3105599880e+00
    8.2498443604e+01   -1.3173300028e+00
    8.2598587036e+01   -1.3241100311e+00
    8.2698928833e+01   -1.3309400082e+00
    8.2799247742e+01   -1.3378200531e+00
    8.2898834229e+01   -1.3446899652e+00
    8.2997856140e+01   -1.3515599966e+00
    8.3098388672e+01   -1.3585799932e+00
    8.3198905945e+01   -1.3656300306e+00
    8.3298507690e+01   -1.3726600409e+00
    8.3398628235e+01   -1.3797600269e+00
    8.3498840332e+01   -1.3868900537e+00
    8.3598663330e+01   -1.3940199614e+00
    8.3698081970e+01   -1.4011499882e+00
    8.3798988342e+01   -1.4084000587e+00
    8.3897727966e+01   -1.4155100584e+00
    8.3998138428e+01   -1.4227700233e+00
    8.4098587036e+01   -1.4300400019e+00
    8.4198059082e+01   -1.4372500181e+00
    8.4298797607e+01   -1.4445799589e+00
    8.4398010254e+01   -1.4517999887e+00
    8.4498764038e+01   -1.4591599703e+00
    8.4597770691e+01   -1.4664000273e+00
    8.4698585510e+01   -1.4737999439e+00
    8.4797760010e+01   -1.4810899496e+00
    8.4898429871e+01   -1.4884999990e+00
    8.4998825073e+01   -1.4959000349e+00
    8.5098945618e+01   -1.5032999516e+00
    8.5198036194e+01   -1.5106300116e+00
    8.5298629761e+01   -1.5180799961e+00
    8.5398887634e+01   -1.5255099535e+00
    8.5498062134e+01   -1.5328799486e+00
    8.5598335266e+01   -1.5403399467e+00
    8.5698608398e+01   -1.5478299856e+00
    8.5798507690e+01   -1.5552999973e+00
    8.5898803711e+01   -1.5628299713e+00
    8.5999130249e+01   -1.5703899860e+00
    8.6098640442e+01   -1.5779199600e+00
    8.6199195862e+01   -1.5855599642e+00
    8.6298072815e+01   -1.5930999517e+00
    8.6398361206e+01   -1.6007900238e+00
    8.6498855591e+01   -1.6085200310e+00
    8.6597862244e+01   -1.6161700487e+00
    8.6698356628e+01   -1.6239700317e+00
    8.6798484802e+01   -1.6317800283e+00
    8.6898498535e+01   -1.6396100521e+00
    8.6998924255e+01   -1.6475100517e+00
    8.7097801208e+01   -1.6553200483e+00
    8.7198173523e+01   -1.6632800102e+00
    8.7298309326e+01   -1.6712700129e+00
    8.7398429871e+01   -1.6792800426e+00
    8.7498573303e+01   -1.6873300076e+00
    8.7598747253e+01   -1.6954100132e+00
    8.7698951721e+01   -1.7035299540e+00
    8.7799179077e+01   -1.7116899490e+00
    8.7897918701e+01   -1.7197699547e+00
    8.7998443604e+01   -1.7280299664e+00
    8.8098976135e+01   -1.7363300323e+00
    8.8198997498e+01   -1.7446299791e+00
    8.8297691345e+01   -1.7528799772e+00
    8.8398033142e+01   -1.7612999678e+00
    8.8498413086e+01   -1.7697800398e+00
    8.8597984314e+01   -1.7782200575e+00
    8.8698921204e+01   -1.7868200541e+00
    8.8797782898e+01   -1.7952699661e+00
    8.8898147583e+01   -1.8038799763e+00
    8.8998939514e+01   -1.8125400543e+00
    8.9098205566e+01   -1.8210899830e+00
    8.9199073792e+01   -1.8297799826e+00
    8.9297981262e+01   -1.8383200169e+00
    8.9398658752e+01   -1.8470100164e+00
    8.9497917175e+01   -1.8555899858e+00
    8.9598388672e+01   -1.8642799854e+00
    8.9698928833e+01   -1.8729799986e+00
    8.9797874451e+01   -1.8815599680e+00
    8.9898452759e+01   -1.8902800083e+00
    8.9999046326e+01   -1.8990099430e+00
    9.0098007202e+01   -1.9076199532e+00
    9.0198593140e+01   -1.9163899422e+00
    9.0298278809e+01   -1.9250899553e+00
    9.0399085999e+01   -1.9339200258e+00
    9.0498336792e+01   -1.9426300526e+00
    9.0599113464e+01   -1.9515000582e+00
    9.0698715210e+01   -1.9602999687e+00
    9.0798736572e+01   -1.9691599607e+00
    9.0897918701e+01   -1.9779800177e+00
    9.0998588562e+01   -1.9869699478e+00
    9.1097702026e+01   -1.9958399534e+00
    9.1198005676e+01   -2.0048499107e+00
    9.1298339844e+01   -2.0138800144e+00
    9.1398674011e+01   -2.0229299068e+00
    9.1498992920e+01   -2.0320100784e+00
    9.1599052429e+01   -2.0410799980e+00
    9.1698066711e+01   -2.0500900745e+00
    9.1798553467e+01   -2.0592598915e+00
    9.1898986816e+01   -2.0684599876e+00
    9.1997833252e+01   -2.0775399208e+00
    9.2097953796e+01   -2.0867900848e+00
    9.2198081970e+01   -2.0960700512e+00
    9.2298233032e+01   -2.1053900719e+00
    9.2398345947e+01   -2.1147599220e+00
    9.2498764038e+01   -2.1242001057e+00
    9.2598083496e+01   -2.1335899830e+00
    9.2699035645e+01   -2.1431701183e+00
    9.2797569275e+01   -2.1525900364e+00
    9.2897949219e+01   -2.1622200012e+00
    9.2998306274e+01   -2.1719100475e+00
    9.3098655701e+01   -2.1816499233e+00
    9.3198982239e+01   -2.1914300919e+00
    9.3298011780e+01   -2.2011299133e+00
    9.3397842407e+01   -2.2109498978e+00
    9.3499000549e+01   -2.2209401131e+00
    9.3598716736e+01   -2.2308199406e+00
    9.3699081421e+01   -2.2407898903e+00
    9.3797912598e+01   -2.2506299019e+00
    9.3897895813e+01   -2.2606101036e+00
    9.3998115540e+01   -2.2706398964e+00
    9.4098388672e+01   -2.2806899548e+00
    9.4197883606e+01   -2.2906799316e+00
    9.4298469543e+01   -2.3008000851e+00
    9.4397819519e+01   -2.3108100891e+00
    9.4498794556e+01   -2.3210101128e+00
    9.4598228455e+01   -2.3310799599e+00
    9.4699005127e+01   -2.3413000107e+00
    9.4798049927e+01   -2.3513700962e+00
    9.4898864746e+01   -2.3616399765e+00
    9.4997505188e+01   -2.3717000484e+00
    9.5098075867e+01   -2.3819699287e+00
    9.5198554993e+01   -2.3922500610e+00
    9.5299003601e+01   -2.4025299549e+00
    9.5397895813e+01   -2.4126698971e+00
    9.5498283386e+01   -2.4229800701e+00
    9.5597854614e+01   -2.4332199097e+00
    9.5697975159e+01   -2.4435400963e+00
    9.5798103333e+01   -2.4538700581e+00
    9.5898262024e+01   -2.4642400742e+00
    9.5998458862e+01   -2.4746398926e+00
    9.6098693848e+01   -2.4850699902e+00
    9.6197608948e+01   -2.4953999519e+00
    9.6298835754e+01   -2.5060000420e+00
    9.6399009705e+01   -2.5165300369e+00
    9.6497978210e+01   -2.5269699097e+00
    9.6598396301e+01   -2.5376000404e+00
    9.6698791504e+01   -2.5482599735e+00
    9.6798995972e+01   -2.5589499474e+00
    9.6899085999e+01   -2.5696599483e+00
    9.6997871399e+01   -2.5802700520e+00
    9.7098136902e+01   -2.5910899639e+00
    9.7198371887e+01   -2.6019399166e+00
    9.7298835754e+01   -2.6128499508e+00
    9.7398796082e+01   -2.6237499714e+00
    9.7498764038e+01   -2.6347000599e+00
    9.7598762512e+01   -2.6456799507e+00
    9.7698776245e+01   -2.6566998959e+00
    9.7798820496e+01   -2.6677699089e+00
    9.7897666931e+01   -2.6787400246e+00
    9.7998001099e+01   -2.6899299622e+00
    9.8098442078e+01   -2.7011799812e+00
    9.8198554993e+01   -2.7124500275e+00
    9.8298698425e+01   -2.7237699032e+00
    9.8398887634e+01   -2.7351601124e+00
    9.8497497559e+01   -2.7464199066e+00
    9.8597778320e+01   -2.7579200268e+00
    9.8698692322e+01   -2.7695400715e+00
    9.8799034119e+01   -2.7811400890e+00
    9.8898605347e+01   -2.7926700115e+00
    9.8997726440e+01   -2.8041799068e+00
    9.9098381042e+01   -2.8158900738e+00
    9.9198158264e+01   -2.8275101185e+00
    9.9297866821e+01   -2.8391299248e+00
    9.9398483276e+01   -2.8508698940e+00
    9.9497573853e+01   -2.8624401093e+00
    9.9599006653e+01   -2.8742899895e+00
    9.9697753906e+01   -2.8858399391e+00
    9.9798133850e+01   -2.8975799084e+00
    9.9898544312e+01   -2.9093399048e+00
    9.9998962402e+01   -2.9211199284e+00
    1.0009777832e+02   -2.9327199459e+00
    1.0019821167e+02   -2.9445300102e+00
    1.0029888916e+02   -2.9563899040e+00
    1.0039781952e+02   -2.9680800438e+00
    1.0049822998e+02   -2.9799699783e+00
    1.0059887695e+02   -2.9919199944e+00
    1.0069798279e+02   -3.0037200451e+00
    1.0079834747e+02   -3.0157101154e+00
    1.0089894104e+02   -3.0277700424e+00
    1.0099797058e+02   -3.0396699905e+00
    1.0109847260e+02   -3.0517799854e+00
    1.0119817352e+02   -3.0638298988e+00
    1.0129834747e+02   -3.0759599209e+00
    1.0139852905e+02   -3.0881099701e+00
    1.0149870300e+02   -3.1002900600e+00
    1.0159868622e+02   -3.1124699116e+00
    1.0169754028e+02   -3.1245300770e+00
    1.0179785156e+02   -3.1368100643e+00
    1.0189808655e+02   -3.1491100788e+00
    1.0199855042e+02   -3.1614799500e+00
    1.0209848785e+02   -3.1738200188e+00
    1.0219844055e+02   -3.1862099171e+00
    1.0229840851e+02   -3.1986401081e+00
    1.0239816284e+02   -3.2111001015e+00
    1.0249878693e+02   -3.2237300873e+00
    1.0259880066e+02   -3.2363300323e+00
    1.0269789124e+02   -3.2488799095e+00
    1.0279759979e+02   -3.2615699768e+00
    1.0289856720e+02   -3.2744901180e+00
    1.0299875641e+02   -3.2873699665e+00
    1.0309892273e+02   -3.3003098965e+00
    1.0319754028e+02   -3.3131000996e+00
    1.0329884338e+02   -3.3262999058e+00
    1.0339807892e+02   -3.3392798901e+00
    1.0349862671e+02   -3.3524799347e+00
    1.0359784698e+02   -3.3655500412e+00
    1.0369799042e+02   -3.3787600994e+00
    1.0379820251e+02   -3.3920199871e+00
    1.0389814758e+02   -3.4052700996e+00
    1.0399816132e+02   -3.4185500145e+00
    1.0409822845e+02   -3.4318599701e+00
    1.0419790649e+02   -3.4451498985e+00
    1.0429830170e+02   -3.4585599899e+00
    1.0439785767e+02   -3.4718799591e+00
    1.0449749756e+02   -3.4852499962e+00
    1.0459821320e+02   -3.4987800121e+00
    1.0469891357e+02   -3.5123500824e+00
    1.0479779816e+02   -3.5257000923e+00
    1.0489872742e+02   -3.5393600464e+00
    1.0499881744e+02   -3.5529301167e+00
    1.0509835815e+02   -3.5664401054e+00
    1.0519866180e+02   -3.5800800323e+00
    1.0529892731e+02   -3.5937299728e+00
    1.0539762878e+02   -3.6071898937e+00
    1.0549781036e+02   -3.6208701134e+00
    1.0559812164e+02   -3.6345798969e+00
    1.0569802856e+02   -3.6482698917e+00
    1.0579797363e+02   -3.6619799137e+00
    1.0589794159e+02   -3.6757299900e+00
    1.0599794769e+02   -3.6895101070e+00
    1.0609821320e+02   -3.7033600807e+00
    1.0619876862e+02   -3.7172899246e+00
    1.0629879761e+02   -3.7311899662e+00
    1.0639884186e+02   -3.7451300621e+00
    1.0649861145e+02   -3.7590799332e+00
    1.0659890747e+02   -3.7731399536e+00
    1.0669764709e+02   -3.7870299816e+00
    1.0679782104e+02   -3.8011701107e+00
    1.0689777374e+02   -3.8153300285e+00
    1.0699813080e+02   -3.8296000957e+00
    1.0709822845e+02   -3.8438799381e+00
    1.0719830322e+02   -3.8582000732e+00
    1.0729747772e+02   -3.8724501133e+00
    1.0739781952e+02   -3.8869099617e+00
    1.0749749756e+02   -3.9013199806e+00
    1.0759887695e+02   -3.9160299301e+00
    1.0769866943e+02   -3.9305500984e+00
    1.0779847717e+02   -3.9451200962e+00
    1.0789862061e+02   -3.9597899914e+00
    1.0799873352e+02   -3.9745099545e+00
    1.0809854889e+02   -3.9892599583e+00
    1.0819844818e+02   -4.0040698051e+00
    1.0829839325e+02   -4.0189599991e+00
    1.0839837646e+02   -4.0339198112e+00
    1.0849842834e+02   -4.0489602089e+00
    1.0859854126e+02   -4.0640702248e+00
    1.0869870758e+02   -4.0792498589e+00
    1.0879804230e+02   -4.0943498611e+00
    1.0889849854e+02   -4.1096601486e+00
    1.0899745178e+02   -4.1247901917e+00
    1.0909792328e+02   -4.1401700974e+00
    1.0919837952e+02   -4.1555800438e+00
    1.0929881287e+02   -4.1710100174e+00
    1.0939768982e+02   -4.1862101555e+00
    1.0949806976e+02   -4.2016601562e+00
    1.0959860992e+02   -4.2171401978e+00
    1.0969873810e+02   -4.2325801849e+00
    1.0979888916e+02   -4.2480301857e+00
    1.0989743805e+02   -4.2632498741e+00
    1.0999764252e+02   -4.2787499428e+00
    1.1009784698e+02   -4.2942600250e+00
    1.1019806671e+02   -4.3098101616e+00
    1.1029750061e+02   -4.3252601624e+00
    1.1039803314e+02   -4.3409199715e+00
    1.1049826050e+02   -4.3565697670e+00
    1.1059835052e+02   -4.3722500801e+00
    1.1069815826e+02   -4.3879299164e+00
    1.1079779816e+02   -4.4036297798e+00
    1.1089824677e+02   -4.4195098877e+00
    1.1099864960e+02   -4.4354300499e+00
    1.1109748840e+02   -4.4511399269e+00
    1.1119779205e+02   -4.4671301842e+00
    1.1129824066e+02   -4.4831700325e+00
    1.1139797211e+02   -4.4991297722e+00
    1.1149794006e+02   -4.5151600838e+00
    1.1159764862e+02   -4.5311799049e+00
    1.1169780731e+02   -4.5472998619e+00
    1.1179788971e+02   -4.5634498596e+00
    1.1189791107e+02   -4.5796198845e+00
    1.1199832153e+02   -4.5959000587e+00
    1.1209802246e+02   -4.6121101379e+00
    1.1219774628e+02   -4.6283798218e+00
    1.1229752350e+02   -4.6447100639e+00
    1.1239769745e+02   -4.6611599922e+00
    1.1249874878e+02   -4.6778302193e+00
    1.1259858704e+02   -4.6943697929e+00
    1.1269844055e+02   -4.7109899521e+00
    1.1279827118e+02   -4.7276902199e+00
    1.1289792633e+02   -4.7444500923e+00
    1.1299793243e+02   -4.7613401413e+00
    1.1309790802e+02   -4.7783198357e+00
    1.1319786072e+02   -4.7953600883e+00
    1.1329754639e+02   -4.8124299049e+00
    1.1339761353e+02   -4.8296399117e+00
    1.1349858856e+02   -4.8470602036e+00
    1.1359841156e+02   -4.8643298149e+00
    1.1369828033e+02   -4.8816499710e+00
    1.1379739380e+02   -4.8988800049e+00
    1.1389837646e+02   -4.9164700508e+00
    1.1399813080e+02   -4.9338698387e+00
    1.1409793854e+02   -4.9513201714e+00
    1.1419764709e+02   -4.9687900543e+00
    1.1429779816e+02   -4.9863700867e+00
    1.1439766693e+02   -5.0039300919e+00
    1.1449852753e+02   -5.0217199326e+00
    1.1459780121e+02   -5.0392699242e+00
    1.1469750977e+02   -5.0569400787e+00
    1.1479772949e+02   -5.0747499466e+00
    1.1489826202e+02   -5.0926699638e+00
    1.1499815369e+02   -5.1105098724e+00
    1.1509851837e+02   -5.1284799576e+00
    1.1519860077e+02   -5.1464300156e+00
    1.1529863739e+02   -5.1644101143e+00
    1.1539862061e+02   -5.1824197769e+00
    1.1549854279e+02   -5.2004399300e+00
    1.1559774780e+02   -5.2183699608e+00
    1.1569737244e+02   -5.2364001274e+00
    1.1579863739e+02   -5.2547597885e+00
    1.1589833832e+02   -5.2728700638e+00
    1.1599809265e+02   -5.2910299301e+00
    1.1609742737e+02   -5.3091602325e+00
    1.1619766235e+02   -5.3274898529e+00
    1.1629746246e+02   -5.3457999229e+00
    1.1639727783e+02   -5.3641600609e+00
    1.1649874878e+02   -5.3828701973e+00
    1.1659828186e+02   -5.4012899399e+00
    1.1669835663e+02   -5.4198698997e+00
    1.1679872894e+02   -5.4385700226e+00
    1.1689813232e+02   -5.4571599960e+00
    1.1699812317e+02   -5.4759202003e+00
    1.1709803772e+02   -5.4947400093e+00
    1.1719789886e+02   -5.5136198997e+00
    1.1729772186e+02   -5.5325598717e+00
    1.1739749146e+02   -5.5515499115e+00
    1.1749807739e+02   -5.5707597733e+00
    1.1759757233e+02   -5.5898199081e+00
    1.1769866943e+02   -5.6092500687e+00
    1.1779818726e+02   -5.6284399033e+00
    1.1789737701e+02   -5.6476302147e+00
    1.1799870300e+02   -5.6673002243e+00
    1.1809850311e+02   -5.6867499352e+00
    1.1819811249e+02   -5.7062401772e+00
    1.1829779816e+02   -5.7258300781e+00
    1.1839755249e+02   -5.7455101013e+00
    1.1849736786e+02   -5.7652997971e+00
    1.1859726715e+02   -5.7851800919e+00
    1.1869722748e+02   -5.8051500320e+00
    1.1879788971e+02   -5.8253297806e+00
    1.1889816284e+02   -5.8454999924e+00
    1.1899844360e+02   -5.8657197952e+00
    1.1909870911e+02   -5.8860001564e+00
    1.1919743347e+02   -5.9060001373e+00
    1.1929763031e+02   -5.9263401031e+00
    1.1939778137e+02   -5.9467101097e+00
    1.1949787140e+02   -5.9670901299e+00
    1.1959718323e+02   -5.9873299599e+00
    1.1969860840e+02   -6.0080399513e+00
    1.1979844666e+02   -6.0284500122e+00
    1.1989830780e+02   -6.0488901138e+00
    1.1999819946e+02   -6.0693597794e+00
    1.2009810638e+02   -6.0898699760e+00
    1.2019803619e+02   -6.1104297638e+00
    1.2029746246e+02   -6.1309299469e+00
    1.2039837646e+02   -6.1517801285e+00
    1.2049838257e+02   -6.1725101471e+00
    1.2059731293e+02   -6.1930699348e+00
    1.2069747925e+02   -6.2139501572e+00
    1.2079750824e+02   -6.2348799706e+00
    1.2089788055e+02   -6.2559399605e+00
    1.2099810791e+02   -6.2770500183e+00
    1.2109828949e+02   -6.2982001305e+00
    1.2119840240e+02   -6.3193898201e+00
    1.2129788971e+02   -6.3405098915e+00
    1.2139817047e+02   -6.3618397713e+00
    1.2149790955e+02   -6.3831000328e+00
    1.2159729004e+02   -6.4043297768e+00
    1.2169869995e+02   -6.4260301590e+00
    1.2179850769e+02   -6.4474401474e+00
    1.2189823914e+02   -6.4688801765e+00
    1.2199845123e+02   -6.4904899597e+00
    1.2209786987e+02   -6.5119800568e+00
    1.2219731903e+02   -6.5335397720e+00
    1.2229843140e+02   -6.5555300713e+00
    1.2239797974e+02   -6.5772600174e+00
    1.2249756622e+02   -6.5990900993e+00
    1.2259719849e+02   -6.6210198402e+00
    1.2269846344e+02   -6.6434202194e+00
    1.2279811096e+02   -6.6655597687e+00
    1.2289813995e+02   -6.6879000664e+00
    1.2299794769e+02   -6.7103099823e+00
    1.2309818268e+02   -6.7329201698e+00
    1.2319792175e+02   -6.7555198669e+00
    1.2329759979e+02   -6.7782101631e+00
    1.2339721680e+02   -6.8009700775e+00
    1.2349726105e+02   -6.8239197731e+00
    1.2359774017e+02   -6.8470301628e+00
    1.2369730377e+02   -6.8699998856e+00
    1.2379833984e+02   -6.8933601379e+00
    1.2389852142e+02   -6.9165601730e+00
    1.2399794006e+02   -6.9396300316e+00
    1.2409837341e+02   -6.9629898071e+00
    1.2419815826e+02   -6.9862399101e+00
    1.2429711914e+02   -7.0093598366e+00
    1.2439836121e+02   -7.0330500603e+00
    1.2449759674e+02   -7.0563402176e+00
    1.2459809875e+02   -7.0799999237e+00
    1.2469780731e+02   -7.1035299301e+00
    1.2479802704e+02   -7.1272602081e+00
    1.2489716339e+02   -7.1508002281e+00
    1.2499838257e+02   -7.1749000549e+00
    1.2509752655e+02   -7.1985797882e+00
    1.2519734955e+02   -7.2224898338e+00
    1.2529862213e+02   -7.2467999458e+00
    1.2539830780e+02   -7.2707901001e+00
    1.2549793243e+02   -7.2948098183e+00
    1.2559748840e+02   -7.3188700676e+00
    1.2569809723e+02   -7.3432297707e+00
    1.2579741669e+02   -7.3673300743e+00
    1.2589839172e+02   -7.3918800354e+00
    1.2599781036e+02   -7.4161100388e+00
    1.2609860229e+02   -7.4407200813e+00
    1.2619831085e+02   -7.4651198387e+00
    1.2629731750e+02   -7.4894099236e+00
    1.2639843750e+02   -7.5142798424e+00
    1.2649800873e+02   -7.5388298035e+00
    1.2659857941e+02   -7.5637102127e+00
    1.2669841766e+02   -7.5884900093e+00
    1.2679750061e+02   -7.6131601334e+00
    1.2689707184e+02   -7.6380500793e+00
    1.2699855804e+02   -7.6635198593e+00
    1.2709826660e+02   -7.6886301041e+00
    1.2719792938e+02   -7.7138299942e+00
    1.2729753876e+02   -7.7391099930e+00
    1.2739856720e+02   -7.7648501396e+00
    1.2749803925e+02   -7.7902698517e+00
    1.2759748077e+02   -7.8157801628e+00
    1.2769715118e+02   -7.8414201736e+00
    1.2779794312e+02   -7.8674302101e+00
    1.2789859772e+02   -7.8934898376e+00
    1.2799804688e+02   -7.9193301201e+00
    1.2809729004e+02   -7.9451999664e+00
    1.2819816589e+02   -7.9716000557e+00
    1.2829751587e+02   -7.9976902008e+00
    1.2839854431e+02   -8.0243396759e+00
    1.2849806213e+02   -8.0506801605e+00
    1.2859768677e+02   -8.0771598816e+00
    1.2869737244e+02   -8.1037597656e+00
    1.2879791260e+02   -8.1306800842e+00
    1.2889794922e+02   -8.1575498581e+00
    1.2899801636e+02   -8.1845197678e+00
    1.2909805298e+02   -8.2115602493e+00
    1.2919807434e+02   -8.2386598587e+00
    1.2929803467e+02   -8.2658195496e+00
    1.2939791870e+02   -8.2930097580e+00
    1.2949772644e+02   -8.3202295303e+00
    1.2959745789e+02   -8.3474903107e+00
    1.2969772339e+02   -8.3749399185e+00
    1.2979719543e+02   -8.4022102356e+00
    1.2989828491e+02   -8.4299697876e+00
    1.2999778748e+02   -8.4573402405e+00
    1.3009729004e+02   -8.4847602844e+00
    1.3019845581e+02   -8.5126895905e+00
    1.3029803467e+02   -8.5402498245e+00
    1.3039767456e+02   -8.5678901672e+00
    1.3049737549e+02   -8.5956096649e+00
    1.3059793091e+02   -8.6236600876e+00
    1.3069831848e+02   -8.6517496109e+00
    1.3079812622e+02   -8.6797599792e+00
    1.3089779663e+02   -8.7078199387e+00
    1.3099781799e+02   -8.7360801697e+00
    1.3109779358e+02   -8.7644100189e+00
    1.3119770813e+02   -8.7928104401e+00
    1.3129783630e+02   -8.8213396072e+00
    1.3139874268e+02   -8.8501701355e+00
    1.3149824524e+02   -8.8786602020e+00
    1.3159841919e+02   -8.9074096680e+00
    1.3169802856e+02   -8.9360599518e+00
    1.3179753113e+02   -8.9647397995e+00
    1.3189843750e+02   -8.9939002991e+00
    1.3199801636e+02   -9.0227403641e+00
    1.3209866333e+02   -9.0519695282e+00
    1.3219776917e+02   -9.0808296204e+00
    1.3229852295e+02   -9.1102600098e+00
    1.3239776611e+02   -9.1393404007e+00
    1.3249865723e+02   -9.1690196991e+00
    1.3259802246e+02   -9.1983604431e+00
    1.3269741821e+02   -9.2278404236e+00
    1.3279843140e+02   -9.2579298019e+00
    1.3289776611e+02   -9.2876701355e+00
    1.3299734497e+02   -9.3176298141e+00
    1.3309744263e+02   -9.3478803635e+00
    1.3319845581e+02   -9.3785600662e+00
    1.3329789734e+02   -9.4088802338e+00
    1.3339875793e+02   -9.4397602081e+00
    1.3349804688e+02   -9.4702701569e+00
    1.3359878540e+02   -9.5013198853e+00
    1.3369798279e+02   -9.5319900513e+00
    1.3379864502e+02   -9.5631799698e+00
    1.3389779663e+02   -9.5939702988e+00
    1.3399839783e+02   -9.6252803802e+00
    1.3409788513e+02   -9.6562900543e+00
    1.3419876099e+02   -9.6878204346e+00
    1.3429833984e+02   -9.7189998627e+00
    1.3439755249e+02   -9.7501401901e+00
    1.3449792480e+02   -9.7817201614e+00
    1.3459765625e+02   -9.8131904602e+00
    1.3469857788e+02   -9.8451204300e+00
    1.3479898071e+02   -9.8769903183e+00
    1.3489746094e+02   -9.9083299637e+00
    1.3499833679e+02   -9.9405298233e+00
    1.3509762573e+02   -9.9723300934e+00
    1.3519865417e+02   -1.0004799843e+01
    1.3529809570e+02   -1.0036800385e+01
    1.3539900208e+02   -1.0069399834e+01
    1.3549830627e+02   -1.0101499557e+01
    1.3559901428e+02   -1.0134200096e+01
    1.3569825745e+02   -1.0166399956e+01
    1.3579881287e+02   -1.0199199677e+01
    1.3589782715e+02   -1.0231499672e+01
    1.3599882507e+02   -1.0264499664e+01
    1.3609780884e+02   -1.0296999931e+01
    1.3619860840e+02   -1.0330100060e+01
    1.3629872131e+02   -1.0362999916e+01
    1.3639782715e+02   -1.0395700455e+01
    1.3649859619e+02   -1.0428999901e+01
    1.3659780884e+02   -1.0461899757e+01
    1.3669842529e+02   -1.0495400429e+01
    1.3679768372e+02   -1.0528499603e+01
    1.3689859009e+02   -1.0562299728e+01
    1.3699830627e+02   -1.0595800400e+01
    1.3709779358e+02   -1.0629300117e+01
    1.3719877625e+02   -1.0663499832e+01
    1.3729818726e+02   -1.0697299957e+01
    1.3739898682e+02   -1.0731699944e+01
    1.3749821472e+02   -1.0765600204e+01
    1.3759890747e+02   -1.0800200462e+01
    1.3769900513e+02   -1.0834699631e+01
    1.3779789734e+02   -1.0868800163e+01
    1.3789869690e+02   -1.0903800011e+01
    1.3799778748e+02   -1.0938199997e+01
    1.3809777832e+02   -1.0973099709e+01
    1.3819825745e+02   -1.1008199692e+01
    1.3829881287e+02   -1.1043499947e+01
    1.3839785767e+02   -1.1078399658e+01
    1.3849859619e+02   -1.1114000320e+01
    1.3859786987e+02   -1.1149200439e+01
    1.3869885254e+02   -1.1185099602e+01
    1.3879890442e+02   -1.1220800400e+01
    1.3889868164e+02   -1.1256600380e+01
    1.3899847412e+02   -1.1292400360e+01
    1.3909825134e+02   -1.1328399658e+01
    1.3919912720e+02   -1.1364800453e+01
    1.3929815674e+02   -1.1400699615e+01
    1.3939779663e+02   -1.1436900139e+01
    1.3949882507e+02   -1.1473699570e+01
    1.3959825134e+02   -1.1509900093e+01
    1.3969923401e+02   -1.1546899796e+01
    1.3979832458e+02   -1.1583100319e+01
    1.3989828491e+02   -1.1619799614e+01
    1.3999815369e+02   -1.1656499863e+01
    1.4009883118e+02   -1.1693599701e+01
    1.4019793701e+02   -1.1730099678e+01
    1.4029869080e+02   -1.1767399788e+01
    1.4039790344e+02   -1.1804100037e+01
    1.4049880981e+02   -1.1841600418e+01
    1.4059927368e+02   -1.1878999710e+01
    1.4069894409e+02   -1.1916199684e+01
    1.4079841614e+02   -1.1953399658e+01
    1.4089863586e+02   -1.1991000175e+01
    1.4099836731e+02   -1.2028499603e+01
    1.4109806824e+02   -1.2066100121e+01
    1.4119786072e+02   -1.2103899956e+01
    1.4129887390e+02   -1.2142200470e+01
    1.4139828491e+02   -1.2180100441e+01
    1.4149916077e+02   -1.2218500137e+01
    1.4159887695e+02   -1.2256600380e+01
    1.4169822693e+02   -1.2294699669e+01
    1.4179895020e+02   -1.2333399773e+01
    1.4189804077e+02   -1.2371500015e+01
    1.4199853516e+02   -1.2410300255e+01
    1.4209884644e+02   -1.2449099541e+01
    1.4219917297e+02   -1.2487899780e+01
    1.4229794312e+02   -1.2526300430e+01
    1.4239839172e+02   -1.2565500259e+01
    1.4249891663e+02   -1.2604700089e+01
    1.4259791565e+02   -1.2643600464e+01
    1.4269854736e+02   -1.2683199883e+01
    1.4279920959e+02   -1.2722999573e+01
    1.4289848328e+02   -1.2762399673e+01
    1.4299862671e+02   -1.2802300453e+01
    1.4309934998e+02   -1.2842599869e+01
    1.4319859314e+02   -1.2882399559e+01
    1.4329930115e+02   -1.2923000336e+01
    1.4339839172e+02   -1.2963100433e+01
    1.4349890137e+02   -1.3003999710e+01
    1.4359933472e+02   -1.3044899940e+01
    1.4369821167e+02   -1.3085300446e+01
    1.4379852295e+02   -1.3126299858e+01
    1.4389805603e+02   -1.3167200089e+01
    1.4399826050e+02   -1.3208399773e+01
    1.4409875488e+02   -1.3249799728e+01
    1.4419917297e+02   -1.3291299820e+01
    1.4429875183e+02   -1.3332500458e+01
    1.4439907837e+02   -1.3373999596e+01
    1.4449894714e+02   -1.3415499687e+01
    1.4459950256e+02   -1.3457400322e+01
    1.4469831848e+02   -1.3498600006e+01
    1.4479878235e+02   -1.3540699959e+01
    1.4489920044e+02   -1.3582799911e+01
    1.4499963379e+02   -1.3625000000e+01
    1.4509945679e+02   -1.3667099953e+01
    1.4519860840e+02   -1.3708999634e+01
    1.4529924011e+02   -1.3751600266e+01
    1.4539834595e+02   -1.3793700218e+01
    1.4549887085e+02   -1.3836500168e+01
    1.4559930420e+02   -1.3879400253e+01
    1.4569920349e+02   -1.3922100067e+01
    1.4579946899e+02   -1.3965000153e+01
    1.4589816284e+02   -1.4007399559e+01
    1.4599911499e+02   -1.4050800323e+01
    1.4609951782e+02   -1.4094099998e+01
    1.4619841003e+02   -1.4136699677e+01
    1.4629905701e+02   -1.4180199623e+01
    1.4639930725e+02   -1.4223699570e+01
    1.4649961853e+02   -1.4267200470e+01
    1.4659840393e+02   -1.4310199738e+01
    1.4669885254e+02   -1.4354000092e+01
    1.4679937744e+02   -1.4397899628e+01
    1.4689836121e+02   -1.4441300392e+01
    1.4699847412e+02   -1.4485300064e+01
    1.4709924316e+02   -1.4529700279e+01
    1.4719940186e+02   -1.4574000359e+01
    1.4729922485e+02   -1.4618300438e+01
    1.4739837646e+02   -1.4662500381e+01
    1.4749894714e+02   -1.4707400322e+01
    1.4759947205e+02   -1.4752400398e+01
    1.4769845581e+02   -1.4796899796e+01
    1.4779876709e+02   -1.4842100143e+01
    1.4789859009e+02   -1.4887200356e+01
    1.4799894714e+02   -1.4932700157e+01
    1.4809941101e+02   -1.4978300095e+01
    1.4819955444e+02   -1.5023900032e+01
    1.4829977417e+02   -1.5069700241e+01
    1.4839848328e+02   -1.5114899635e+01
    1.4849884033e+02   -1.5161000252e+01
    1.4859930420e+02   -1.5207300186e+01
    1.4869830322e+02   -1.5253000259e+01
    1.4879846191e+02   -1.5299400330e+01
    1.4889938354e+02   -1.5346300125e+01
    1.4899882507e+02   -1.5392600060e+01
    1.4909979248e+02   -1.5439700127e+01
    1.4919975281e+02   -1.5486499786e+01
    1.4929914856e+02   -1.5533100128e+01
    1.4939851379e+02   -1.5579799652e+01
    1.4949926758e+02   -1.5627300262e+01
    1.4959843445e+02   -1.5674099922e+01
    1.4969902039e+02   -1.5721699715e+01
    1.4979867554e+02   -1.5768899918e+01
    1.4989886475e+02   -1.5816499710e+01
    1.4999931335e+02   -1.5864199638e+01
    1.5009977722e+02   -1.5912099838e+01
    1.5019847107e+02   -1.5959099770e+01
    1.5029879761e+02   -1.6007099152e+01
    1.5039918518e+02   -1.6055099487e+01
    1.5049966431e+02   -1.6103300095e+01
    1.5059939575e+02   -1.6151199341e+01
    1.5069918823e+02   -1.6199199677e+01
    1.5079981995e+02   -1.6247699738e+01
    1.5089997864e+02   -1.6296199799e+01
    1.5099931335e+02   -1.6344299316e+01
    1.5109934998e+02   -1.6392799377e+01
    1.5119996643e+02   -1.6441799164e+01
    1.5129995728e+02   -1.6490600586e+01
    1.5139897156e+02   -1.6538999557e+01
    1.5149957275e+02   -1.6588199615e+01
    1.5159933472e+02   -1.6637199402e+01
    1.5169995117e+02   -1.6686700821e+01
    1.5179896545e+02   -1.6735399246e+01
    1.5189933777e+02   -1.6784999847e+01
    1.5199894714e+02   -1.6834299088e+01
    1.5209901428e+02   -1.6883899689e+01
    1.5219906616e+02   -1.6933500290e+01
    1.5229910278e+02   -1.6983299255e+01
    1.5239918518e+02   -1.7033199310e+01
    1.5249934387e+02   -1.7083299637e+01
    1.5259996033e+02   -1.7133699417e+01
    1.5269964600e+02   -1.7183799744e+01
    1.5279988098e+02   -1.7234300613e+01
    1.5289854431e+02   -1.7284200668e+01
    1.5299879456e+02   -1.7335100174e+01
    1.5309999084e+02   -1.7386600494e+01
    1.5319888306e+02   -1.7437000275e+01
    1.5329927063e+02   -1.7488399506e+01
    1.5339959717e+02   -1.7540000916e+01
    1.5349984741e+02   -1.7591600418e+01
    1.5360000610e+02   -1.7643299103e+01
    1.5370013428e+02   -1.7695199966e+01
    1.5379870605e+02   -1.7746299744e+01
    1.5389900208e+02   -1.7798500061e+01
    1.5399894714e+02   -1.7850500107e+01
    1.5409877014e+02   -1.7902599335e+01
    1.5419885254e+02   -1.7954900742e+01
    1.5430000305e+02   -1.8007900238e+01
    1.5439991760e+02   -1.8060300827e+01
    1.5449903870e+02   -1.8112400055e+01
    1.5459910583e+02   -1.8165000916e+01
    1.5469914246e+02   -1.8217699051e+01
    1.5479963684e+02   -1.8270799637e+01
    1.5489950562e+02   -1.8323600769e+01
    1.5499943542e+02   -1.8376499176e+01
    1.5509944153e+02   -1.8429599762e+01
    1.5519898987e+02   -1.8482500076e+01
    1.5529997253e+02   -1.8536300659e+01
    1.5539918518e+02   -1.8589199066e+01
    1.5549945068e+02   -1.8642799377e+01
    1.5559965515e+02   -1.8696500778e+01
    1.5570025635e+02   -1.8750499725e+01
    1.5580029297e+02   -1.8804199219e+01
    1.5589877319e+02   -1.8857200623e+01
    1.5600025940e+02   -1.8912000656e+01
    1.5609890747e+02   -1.8965200424e+01
    1.5619900513e+02   -1.9019399643e+01
    1.5629908752e+02   -1.9073600769e+01
    1.5639903259e+02   -1.9127799988e+01
    1.5649899292e+02   -1.9182100296e+01
    1.5659899902e+02   -1.9236499786e+01
    1.5669908142e+02   -1.9291000366e+01
    1.5679924011e+02   -1.9345699310e+01
    1.5689950562e+02   -1.9400499344e+01
    1.5699934387e+02   -1.9455200195e+01
    1.5710032654e+02   -1.9510700226e+01
    1.5719912720e+02   -1.9565099716e+01
    1.5729968262e+02   -1.9620599747e+01
    1.5740020752e+02   -1.9676200867e+01
    1.5749914551e+02   -1.9731100082e+01
    1.5759956360e+02   -1.9786899567e+01
    1.5769993591e+02   -1.9842899323e+01
    1.5779942322e+02   -1.9898399353e+01
    1.5789971924e+02   -1.9954599380e+01
    1.5799995422e+02   -2.0010900497e+01
    1.5809956360e+02   -2.0066900253e+01
    1.5819956970e+02   -2.0123300552e+01
    1.5829960632e+02   -2.0179800034e+01
    1.5839968872e+02   -2.0236400604e+01
    1.5849981689e+02   -2.0293300629e+01
    1.5860000610e+02   -2.0350200653e+01
    1.5870027161e+02   -2.0407400131e+01
    1.5880015564e+02   -2.0464399338e+01
    1.5889923096e+02   -2.0521099091e+01
    1.5899980164e+02   -2.0578699112e+01
    1.5910035706e+02   -2.0636499405e+01
    1.5919900513e+02   -2.0693199158e+01
    1.5929942322e+02   -2.0751100540e+01
    1.5939929199e+02   -2.0808799744e+01
    1.5949974060e+02   -2.0866899490e+01
    1.5960011292e+02   -2.0924999237e+01
    1.5970042419e+02   -2.0983200073e+01
    1.5980018616e+02   -2.1041099548e+01
    1.5990005493e+02   -2.1099199295e+01
    1.6000022888e+02   -2.1157600403e+01
    1.6009919739e+02   -2.1215299606e+01
    1.6019912720e+02   -2.1273700714e+01
    1.6029908752e+02   -2.1332099915e+01
    1.6039910889e+02   -2.1390699387e+01
    1.6049917603e+02   -2.1449399948e+01
    1.6059915161e+02   -2.1507999420e+01
    1.6069943237e+02   -2.1566999435e+01
    1.6079946899e+02   -2.1625799179e+01
    1.6089927673e+02   -2.1684600830e+01
    1.6099958801e+02   -2.1743799210e+01
    1.6110003662e+02   -2.1803199768e+01
    1.6120013428e+02   -2.1862400055e+01
    1.6130024719e+02   -2.1921800613e+01
    1.6140043640e+02   -2.1981199265e+01
    1.6150065613e+02   -2.2040800095e+01
    1.6159942627e+02   -2.2099599838e+01
    1.6169978333e+02   -2.2159400940e+01
    1.6180007935e+02   -2.2219299316e+01
    1.6190029907e+02   -2.2279300690e+01
    1.6200051880e+02   -2.2339300156e+01
    1.6210043335e+02   -2.2399200439e+01
    1.6220031738e+02   -2.2459199905e+01
    1.6230015564e+02   -2.2519300461e+01
    1.6239999390e+02   -2.2579399109e+01
    1.6249986267e+02   -2.2639699936e+01
    1.6259930420e+02   -2.2699800491e+01
    1.6269935608e+02   -2.2760400772e+01
    1.6279985046e+02   -2.2821399689e+01
    1.6289970398e+02   -2.2882200241e+01
    1.6299955750e+02   -2.2943099976e+01
    1.6309941101e+02   -2.3004100800e+01
    1.6319981384e+02   -2.3065500259e+01
    1.6329983521e+02   -2.3126899719e+01
    1.6339987183e+02   -2.3188400269e+01
    1.6349986267e+02   -2.3250000000e+01
    1.6359982300e+02   -2.3311700821e+01
    1.6369973755e+02   -2.3373600006e+01
    1.6379962158e+02   -2.3435499191e+01
    1.6389929199e+02   -2.3497299194e+01
    1.6400065613e+02   -2.3560400009e+01
    1.6410052490e+02   -2.3622600555e+01
    1.6420043945e+02   -2.3684799194e+01
    1.6429942322e+02   -2.3746599197e+01
    1.6440066528e+02   -2.3809900284e+01
    1.6450042725e+02   -2.3872299194e+01
    1.6460017395e+02   -2.3934799194e+01
    1.6469987488e+02   -2.3997299194e+01
    1.6480012512e+02   -2.4060199738e+01
    1.6489959717e+02   -2.4122600555e+01
    1.6500065613e+02   -2.4186199188e+01
    1.6510021973e+02   -2.4248800278e+01
    1.6519970703e+02   -2.4311500549e+01
    1.6529983521e+02   -2.4374599457e+01
    1.6540072632e+02   -2.4438299179e+01
    1.6550067139e+02   -2.4501499176e+01
    1.6560058594e+02   -2.4564699173e+01
    1.6570019531e+02   -2.4627799988e+01
    1.6580000305e+02   -2.4691099167e+01
    1.6589987183e+02   -2.4754499435e+01
    1.6600013733e+02   -2.4818300247e+01
    1.6610011292e+02   -2.4881900787e+01
    1.6620004272e+02   -2.4945600510e+01
    1.6629995728e+02   -2.5009399414e+01
    1.6640086365e+02   -2.5073799133e+01
    1.6650065613e+02   -2.5137599945e+01
    1.6660049438e+02   -2.5201499939e+01
    1.6670036316e+02   -2.5265499115e+01
    1.6680029297e+02   -2.5329500198e+01
    1.6690032959e+02   -2.5393800735e+01
    1.6700076294e+02   -2.5458299637e+01
    1.6710057068e+02   -2.5522600174e+01
    1.6720074463e+02   -2.5587200165e+01
    1.6730024719e+02   -2.5651399612e+01
    1.6740055847e+02   -2.5716299057e+01
    1.6750079346e+02   -2.5781200409e+01
    1.6759953308e+02   -2.5845300674e+01
    1.6769953918e+02   -2.5910299301e+01
    1.6780090332e+02   -2.5976299286e+01
    1.6789959717e+02   -2.6040599823e+01
    1.6800062561e+02   -2.6106599808e+01
    1.6810060120e+02   -2.6172100067e+01
    1.6820057678e+02   -2.6237600327e+01
    1.6830056763e+02   -2.6303300858e+01
    1.6840060425e+02   -2.6369100571e+01
    1.6850028992e+02   -2.6434799194e+01
    1.6860011292e+02   -2.6500699997e+01
    1.6870019531e+02   -2.6566900253e+01
    1.6880055237e+02   -2.6633300781e+01
    1.6890081787e+02   -2.6699800491e+01
    1.6900103760e+02   -2.6766300201e+01
    1.6909970093e+02   -2.6831800461e+01
    1.6920062256e+02   -2.6898899078e+01
    1.6930059814e+02   -2.6965499878e+01
    1.6940103149e+02   -2.7032400131e+01
    1.6950102234e+02   -2.7099100113e+01
    1.6960066223e+02   -2.7165599823e+01
    1.6970060730e+02   -2.7232299805e+01
    1.6980050659e+02   -2.7299100876e+01
    1.6990025330e+02   -2.7365900040e+01
    1.7000094604e+02   -2.7433300018e+01
    1.7010078430e+02   -2.7500200272e+01
    1.7020089722e+02   -2.7567399979e+01
    1.7030055237e+02   -2.7634300232e+01
    1.7040023804e+02   -2.7701299667e+01
    1.7049996948e+02   -2.7768299103e+01
    1.7059971619e+02   -2.7835399628e+01
    1.7070010376e+02   -2.7902999878e+01
    1.7080085754e+02   -2.7970899582e+01
    1.7090109253e+02   -2.8038499832e+01
    1.7100088501e+02   -2.8105800629e+01
    1.7110058594e+02   -2.8173099518e+01
    1.7120095825e+02   -2.8240900040e+01
    1.7130053711e+02   -2.8308200836e+01
    1.7140017700e+02   -2.8375600815e+01
    1.7149992371e+02   -2.8443099976e+01
    1.7160124207e+02   -2.8511699677e+01
    1.7170121765e+02   -2.8579500198e+01
    1.7180119324e+02   -2.8647300720e+01
    1.7190115356e+02   -2.8715200424e+01
    1.7200105286e+02   -2.8783100128e+01
    1.7210096741e+02   -2.8851100922e+01
    1.7220066833e+02   -2.8919000626e+01
    1.7230036926e+02   -2.8986999512e+01
    1.7240005493e+02   -2.9055000305e+01
    1.7250131226e+02   -2.9124200821e+01
    1.7260099792e+02   -2.9192399979e+01
    1.7270042419e+02   -2.9260499954e+01
    1.7280094910e+02   -2.9329399109e+01
    1.7290054321e+02   -2.9397800446e+01
    1.7300013733e+02   -2.9466299057e+01
    1.7310130310e+02   -2.9535900116e+01
    1.7320066833e+02   -2.9604499817e+01
    1.7330029297e+02   -2.9673200607e+01
    1.7339997864e+02   -2.9742200851e+01
    1.7350126648e+02   -2.9812299728e+01
    1.7360104370e+02   -2.9881399155e+01
    1.7370082092e+02   -2.9950700760e+01
    1.7380056763e+02   -3.0020000458e+01
    1.7390046692e+02   -3.0089500427e+01
    1.7400010681e+02   -3.0158899307e+01
    1.7410105896e+02   -3.0229299545e+01
    1.7420089722e+02   -3.0298900604e+01
    1.7430119324e+02   -3.0368900299e+01
    1.7440078735e+02   -3.0438499451e+01
    1.7450083923e+02   -3.0508399963e+01
    1.7460049438e+02   -3.0578100204e+01
    1.7470010376e+02   -3.0647800446e+01
    1.7480111694e+02   -3.0718500137e+01
    1.7490075684e+02   -3.0788299561e+01
    1.7500004578e+02   -3.0857900620e+01
    1.7510095215e+02   -3.0928600311e+01
    1.7520071411e+02   -3.0998500824e+01
    1.7530026245e+02   -3.1068300247e+01
    1.7540046692e+02   -3.1138599396e+01
    1.7550091553e+02   -3.1209100723e+01
    1.7560054016e+02   -3.1279100418e+01
    1.7570124817e+02   -3.1349800110e+01
    1.7580075073e+02   -3.1419799805e+01
    1.7590032959e+02   -3.1489799500e+01
    1.7600041199e+02   -3.1560199738e+01
    1.7610017395e+02   -3.1630500793e+01
    1.7620140076e+02   -3.1701799393e+01
    1.7630114746e+02   -3.1772100449e+01
    1.7640034485e+02   -3.1842100143e+01
    1.7650001526e+02   -3.1912399292e+01
    1.7660075378e+02   -3.1983600616e+01
    1.7670155334e+02   -3.2054901123e+01
    1.7680137634e+02   -3.2125499725e+01
    1.7690121460e+02   -3.2196201324e+01
    1.7700111389e+02   -3.2266899109e+01
    1.7710104370e+02   -3.2337799072e+01
    1.7720054626e+02   -3.2408401489e+01
    1.7730064392e+02   -3.2479499817e+01
    1.7740068054e+02   -3.2550598145e+01
    1.7750062561e+02   -3.2621700287e+01
    1.7760052490e+02   -3.2692798615e+01
    1.7770046997e+02   -3.2764099121e+01
    1.7780152893e+02   -3.2836200714e+01
    1.7790144348e+02   -3.2907501221e+01
    1.7800102234e+02   -3.2978801727e+01
    1.7810079956e+02   -3.3050201416e+01
    1.7820062256e+02   -3.3121799469e+01
    1.7830050659e+02   -3.3193401337e+01
    1.7840043640e+02   -3.3265201569e+01
    1.7850041199e+02   -3.3337200165e+01
    1.7860023499e+02   -3.3409099579e+01
    1.7870126343e+02   -3.3481899261e+01
    1.7880137634e+02   -3.3554100037e+01
    1.7890141296e+02   -3.3626399994e+01
    1.7900135803e+02   -3.3698600769e+01
    1.7910119629e+02   -3.3770801544e+01
    1.7920065308e+02   -3.3842800140e+01
    1.7930116272e+02   -3.3915500641e+01
    1.7940080261e+02   -3.3987701416e+01
    1.7950059509e+02   -3.4059898376e+01
    1.7960156250e+02   -3.4132999420e+01
    1.7970164490e+02   -3.4205501556e+01
    1.7980116272e+02   -3.4277500153e+01
    1.7990046692e+02   -3.4349399567e+01
    1.8000042725e+02   -3.4421798706e+01
    1.8010139465e+02   -3.4494998932e+01
    1.8020178223e+02   -3.4567699432e+01
    1.8030107117e+02   -3.4639701843e+01
    1.8040037537e+02   -3.4711700439e+01
    1.8050131226e+02   -3.4784900665e+01
    1.8060069275e+02   -3.4856998444e+01
    1.8070162964e+02   -3.4930198669e+01
    1.8080166626e+02   -3.5002700806e+01
    1.8090104675e+02   -3.5074798584e+01
    1.8100044250e+02   -3.5146900177e+01
    1.8110122681e+02   -3.5220001221e+01
    1.8120103455e+02   -3.5292400360e+01
    1.8130175781e+02   -3.5365501404e+01
    1.8140097046e+02   -3.5437500000e+01
    1.8150184631e+02   -3.5510700226e+01
    1.8160069275e+02   -3.5582401276e+01
    1.8170173645e+02   -3.5655700684e+01
    1.8180131531e+02   -3.5728000641e+01
    1.8190089417e+02   -3.5800399780e+01
    1.8200047302e+02   -3.5872699738e+01
    1.8210104370e+02   -3.5945800781e+01
    1.8220051575e+02   -3.6018100739e+01
    1.8230157471e+02   -3.6091598511e+01
    1.8240109253e+02   -3.6164001465e+01
    1.8250117493e+02   -3.6236900330e+01
    1.8260070801e+02   -3.6309398651e+01
    1.8270187378e+02   -3.6383201599e+01
    1.8280120850e+02   -3.6455699921e+01
    1.8290124512e+02   -3.6528800964e+01
    1.8300152588e+02   -3.6602199554e+01
    1.8310101318e+02   -3.6674999237e+01
    1.8320051575e+02   -3.6747898102e+01
    1.8330163574e+02   -3.6822101593e+01
    1.8340150452e+02   -3.6895301819e+01
    1.8350120544e+02   -3.6968601227e+01
    1.8360087585e+02   -3.7041801453e+01
    1.8370051575e+02   -3.7115100861e+01
    1.8380162048e+02   -3.7189498901e+01
    1.8390081787e+02   -3.7262500763e+01
    1.8400189209e+02   -3.7337001801e+01
    1.8410098267e+02   -3.7409999847e+01
    1.8420069885e+02   -3.7483501434e+01
    1.8430099487e+02   -3.7557498932e+01
    1.8440051270e+02   -3.7630901337e+01
    1.8450160217e+02   -3.7705398560e+01
    1.8460110474e+02   -3.7778800964e+01
    1.8470137024e+02   -3.7852798462e+01
    1.8480093384e+02   -3.7926300049e+01
    1.8490191650e+02   -3.8000801086e+01
    1.8500114441e+02   -3.8074001312e+01
    1.8510061646e+02   -3.8147499084e+01
    1.8520150757e+02   -3.8221900940e+01
    1.8530085754e+02   -3.8295200348e+01
    1.8540155029e+02   -3.8369400024e+01
    1.8550123596e+02   -3.8442901611e+01
    1.8560203552e+02   -3.8517200470e+01
    1.8570106506e+02   -3.8590198517e+01
    1.8580180359e+02   -3.8664398193e+01
    1.8590103149e+02   -3.8737499237e+01
    1.8600187683e+02   -3.8811798096e+01
    1.8610116577e+02   -3.8884899139e+01
    1.8620164490e+02   -3.8958900452e+01
    1.8630113220e+02   -3.9032199860e+01
    1.8640101624e+02   -3.9105800629e+01
    1.8650201416e+02   -3.9180198669e+01
    1.8660150146e+02   -3.9253501892e+01
    1.8670106506e+02   -3.9326900482e+01
    1.8680172729e+02   -3.9401199341e+01
    1.8690151978e+02   -3.9474800110e+01
    1.8700201416e+02   -3.9548900604e+01
    1.8710168457e+02   -3.9622501373e+01
    1.8720118713e+02   -3.9695999146e+01
    1.8730099487e+02   -3.9769798279e+01
    1.8740220642e+02   -3.9844600677e+01
    1.8750181580e+02   -3.9918300629e+01
    1.8760134888e+02   -3.9991901398e+01
    1.8770118713e+02   -4.0065799713e+01
    1.8780154419e+02   -4.0140098572e+01
    1.8790106201e+02   -4.0213699341e+01
    1.8800163269e+02   -4.0288200378e+01
    1.8810102844e+02   -4.0361900330e+01
    1.8820205688e+02   -4.0436798096e+01
    1.8830162048e+02   -4.0510700226e+01
    1.8840126038e+02   -4.0584701538e+01
    1.8850097656e+02   -4.0658699036e+01
    1.8860227966e+02   -4.0734001160e+01
    1.8870123291e+02   -4.0807701111e+01
    1.8880165100e+02   -4.0882400513e+01
    1.8890144348e+02   -4.0956699371e+01
    1.8900111389e+02   -4.1030899048e+01
    1.8910215759e+02   -4.1106201172e+01
    1.8920159912e+02   -4.1180198669e+01
    1.8930096436e+02   -4.1254199982e+01
    1.8940170288e+02   -4.1329200745e+01
    1.8950140381e+02   -4.1403400421e+01
    1.8960200500e+02   -4.1478298187e+01
    1.8970190430e+02   -4.1552501678e+01
    1.8980111694e+02   -4.1626201630e+01
    1.8990179443e+02   -4.1701000214e+01
    1.9000099182e+02   -4.1774600983e+01
    1.9010165405e+02   -4.1849201202e+01
    1.9020227051e+02   -4.1923801422e+01
    1.9030105591e+02   -4.1996898651e+01
    1.9040156555e+02   -4.2071300507e+01
    1.9050210571e+02   -4.2145698547e+01
    1.9060112000e+02   -4.2218898773e+01
    1.9070172119e+02   -4.2293201447e+01
    1.9080233765e+02   -4.2367500305e+01
    1.9090138245e+02   -4.2440601349e+01
    1.9100221252e+02   -4.2514999390e+01
    1.9110136414e+02   -4.2588100433e+01
    1.9120124817e+02   -4.2661701202e+01
    1.9130226135e+02   -4.2736099243e+01
    1.9140130615e+02   -4.2808998108e+01
    1.9150198364e+02   -4.2883098602e+01
    1.9160215759e+02   -4.2956798553e+01
    1.9170144653e+02   -4.3029899597e+01
    1.9180220032e+02   -4.3103900909e+01
    1.9190150452e+02   -4.3176898956e+01
    1.9200230408e+02   -4.3250999451e+01
    1.9210130310e+02   -4.3323699951e+01
    1.9220210266e+02   -4.3397800446e+01
    1.9230139160e+02   -4.3470699310e+01
    1.9240229797e+02   -4.3544799805e+01
    1.9250166321e+02   -4.3617801666e+01
    1.9260105896e+02   -4.3690799713e+01
    1.9270210266e+02   -4.3765098572e+01
    1.9280160522e+02   -4.3838298798e+01
    1.9290133667e+02   -4.3911598206e+01
    1.9300242615e+02   -4.3986099243e+01
    1.9310226440e+02   -4.4059600830e+01
    1.9320172119e+02   -4.4132900238e+01
    1.9330122375e+02   -4.4206298828e+01
    1.9340150452e+02   -4.4280300140e+01
    1.9350114441e+02   -4.4353801727e+01
    1.9360223389e+02   -4.4428501129e+01
    1.9370178223e+02   -4.4501998901e+01
    1.9380122375e+02   -4.4575401306e+01
    1.9390136719e+02   -4.4649299622e+01
    1.9400218201e+02   -4.4723800659e+01
    1.9410147095e+02   -4.4797100067e+01
    1.9420201111e+02   -4.4871299744e+01
    1.9430111694e+02   -4.4944499969e+01
    1.9440263367e+02   -4.5019401550e+01
[...]
    2.5130525208e+02   -5.9710601807e+01
    2.5140496826e+02   -5.9692501068e+01
    2.5150505066e+02   -5.9674098969e+01
    2.5160516357e+02   -5.9655498505e+01
    2.5170469666e+02   -5.9636699677e+01
    2.5180487061e+02   -5.9617698669e+01
    2.5190501404e+02   -5.9598300934e+01
    2.5200515747e+02   -5.9578800201e+01
    2.5210531616e+02   -5.9559101105e+01
    2.5220550537e+02   -5.9539100647e+01
    2.5230467224e+02   -5.9519100189e+01
    2.5240487671e+02   -5.9498699188e+01
    2.5250512695e+02   -5.9478000641e+01
    2.5260542297e+02   -5.9457199097e+01
    2.5270581055e+02   -5.9436199188e+01
    2.5280471802e+02   -5.9415298462e+01
    2.5290512085e+02   -5.9393901825e+01
    2.5300585938e+02   -5.9372200012e+01
    2.5310502625e+02   -5.9350700378e+01
    2.5320562744e+02   -5.9328701019e+01
    2.5330619812e+02   -5.9306598663e+01
    2.5340524292e+02   -5.9284599304e+01
    2.5350573730e+02   -5.9262199402e+01
    2.5360620117e+02   -5.9239601135e+01
    2.5370498657e+02   -5.9217300415e+01
    2.5380540466e+02   -5.9194400787e+01
    2.5390580750e+02   -5.9171298981e+01
    2.5400610352e+02   -5.9147998810e+01
    2.5410522461e+02   -5.9124900818e+01
    2.5420582581e+02   -5.9101200104e+01
    2.5430581665e+02   -5.9077400208e+01
    2.5440478516e+02   -5.9053699493e+01
    2.5450532532e+02   -5.9029399872e+01
    2.5460542297e+02   -5.9004901886e+01
    2.5470594788e+02   -5.8980201721e+01
    2.5480491638e+02   -5.8955600739e+01
    2.5490530396e+02   -5.8930500031e+01
    2.5500625610e+02   -5.8904998779e+01
    2.5510493469e+02   -5.8879798889e+01
    2.5520512390e+02   -5.8854000092e+01
    2.5530526733e+02   -5.8827999115e+01
    2.5540539551e+02   -5.8801700592e+01
    2.5550579834e+02   -5.8775100708e+01
    2.5560589600e+02   -5.8748298645e+01
    2.5570591736e+02   -5.8721199036e+01
    2.5580584717e+02   -5.8693801880e+01
    2.5590568542e+02   -5.8666099548e+01
    2.5600549316e+02   -5.8638099670e+01
    2.5610525513e+02   -5.8609901428e+01
    2.5620498657e+02   -5.8581199646e+01
    2.5630630493e+02   -5.8551799774e+01
    2.5640612793e+02   -5.8522499084e+01
    2.5650598145e+02   -5.8492900848e+01
    2.5660586548e+02   -5.8462898254e+01
    2.5670581055e+02   -5.8432498932e+01
    2.5680569458e+02   -5.8401798248e+01
    2.5690582275e+02   -5.8370800018e+01
    2.5700616455e+02   -5.8339298248e+01
    2.5710638428e+02   -5.8307598114e+01
    2.5720507812e+02   -5.8276000977e+01
    2.5730578613e+02   -5.8243499756e+01
    2.5740618896e+02   -5.8210800171e+01
    2.5750540161e+02   -5.8178199768e+01
    2.5760583496e+02   -5.8144901276e+01
    2.5770581055e+02   -5.8111499786e+01
    2.5780633545e+02   -5.8077701569e+01
    2.5790548706e+02   -5.8044101715e+01
    2.5800598145e+02   -5.8009700775e+01
    2.5810650635e+02   -5.7975101471e+01
    2.5820550537e+02   -5.7940799713e+01
    2.5830609131e+02   -5.7905700684e+01
    2.5840560913e+02   -5.7870700836e+01
    2.5850628662e+02   -5.7834999084e+01
    2.5860552979e+02   -5.7799598694e+01
    2.5870623779e+02   -5.7763500214e+01
    2.5880557251e+02   -5.7727600098e+01
    2.5890524292e+02   -5.7691299438e+01
    2.5900610352e+02   -5.7654399872e+01
    2.5910525513e+02   -5.7617900848e+01
    2.5920578003e+02   -5.7580600739e+01
    2.5930630493e+02   -5.7542999268e+01
    2.5940539551e+02   -5.7505699158e+01
    2.5950534058e+02   -5.7467899323e+01
    2.5960623169e+02   -5.7429401398e+01
    2.5970553589e+02   -5.7391300201e+01
    2.5980621338e+02   -5.7352401733e+01
    2.5990524292e+02   -5.7313800812e+01
    2.6000518799e+02   -5.7274501801e+01
    2.6010644531e+02   -5.7234500885e+01
    2.6020535278e+02   -5.7194999695e+01
    2.6030569458e+02   -5.7154701233e+01
    2.6040600586e+02   -5.7114101410e+01
    2.6050625610e+02   -5.7073101044e+01
    2.6060617065e+02   -5.7032001495e+01
    2.6070651245e+02   -5.6990299225e+01
    2.6080661011e+02   -5.6948398590e+01
    2.6090661621e+02   -5.6906101227e+01
    2.6100656128e+02   -5.6863601685e+01
    2.6110647583e+02   -5.6820598602e+01
    2.6120635986e+02   -5.6777400970e+01
    2.6130670166e+02   -5.6733501434e+01
    2.6140655518e+02   -5.6689498901e+01
    2.6150650024e+02   -5.6645099640e+01
    2.6160647583e+02   -5.6600399017e+01
    2.6170642090e+02   -5.6555198669e+01
    2.6180639648e+02   -5.6509700775e+01
    2.6190637207e+02   -5.6463798523e+01
    2.6200549316e+02   -5.6417999268e+01
    2.6210552979e+02   -5.6371299744e+01
    2.6220556641e+02   -5.6324298859e+01
    2.6230563354e+02   -5.6276901245e+01
    2.6240567017e+02   -5.6229099274e+01
    2.6250674438e+02   -5.6180500031e+01
    2.6260528564e+02   -5.6132900238e+01
    2.6270544434e+02   -5.6084098816e+01
    2.6280572510e+02   -5.6034900665e+01
    2.6290609741e+02   -5.5985500336e+01
    2.6300656128e+02   -5.5935699463e+01
    2.6310635376e+02   -5.5885898590e+01
    2.6320629883e+02   -5.5835899353e+01
    2.6330587769e+02   -5.5785800934e+01
    2.6340646362e+02   -5.5734901428e+01
    2.6350555420e+02   -5.5684600830e+01
    2.6360610962e+02   -5.5633300781e+01
    2.6370666504e+02   -5.5581798553e+01
    2.6380572510e+02   -5.5530899048e+01
    2.6390551758e+02   -5.5479400635e+01
    2.6400604248e+02   -5.5427299500e+01
    2.6410662842e+02   -5.5375000000e+01
    2.6420565796e+02   -5.5323299408e+01
    2.6430627441e+02   -5.5270500183e+01
    2.6440533447e+02   -5.5218399048e+01
    2.6450595093e+02   -5.5165199280e+01
    2.6460552979e+02   -5.5112300873e+01
    2.6470617676e+02   -5.5058601379e+01
    2.6480673218e+02   -5.5004798889e+01
    2.6490573120e+02   -5.4951499939e+01
    2.6500619507e+02   -5.4897300720e+01
    2.6510662842e+02   -5.4842800140e+01
    2.6520663452e+02   -5.4788299561e+01
    2.6530694580e+02   -5.4733299255e+01
    2.6540573120e+02   -5.4679000854e+01
    2.6550610352e+02   -5.4623600006e+01
    2.6560644531e+02   -5.4567901611e+01
    2.6570614624e+02   -5.4512298584e+01
    2.6580648804e+02   -5.4456199646e+01
    2.6590670776e+02   -5.4399799347e+01
    2.6600680542e+02   -5.4343200684e+01
    2.6610684204e+02   -5.4286499023e+01
    2.6620590210e+02   -5.4229900360e+01
    2.6630578613e+02   -5.4172698975e+01
    2.6640628052e+02   -5.4114799500e+01
    2.6650619507e+02   -5.4056999207e+01
    2.6660626221e+02   -5.3998798370e+01
    2.6670617676e+02   -5.3940399170e+01
    2.6680593872e+02   -5.3881900787e+01
    2.6690612793e+02   -5.3822799683e+01
    2.6700677490e+02   -5.3763198853e+01
    2.6710702515e+02   -5.3703498840e+01
    2.6720581055e+02   -5.3644500732e+01
    2.6730624390e+02   -5.3584300995e+01
    2.6740676880e+02   -5.3523799896e+01
    2.6750579834e+02   -5.3463901520e+01
    2.6760601807e+02   -5.3403198242e+01
    2.6770669556e+02   -5.3341999054e+01
    2.6780590820e+02   -5.3281600952e+01
    2.6790661621e+02   -5.3220100403e+01
    2.6800640869e+02   -5.3159000397e+01
    2.6810705566e+02   -5.3097198486e+01
    2.6820617676e+02   -5.3036300659e+01
    2.6830682373e+02   -5.2974300385e+01
    2.6840591431e+02   -5.2913101196e+01
    2.6850671387e+02   -5.2850700378e+01
    2.6860589600e+02   -5.2789199829e+01
    2.6870657349e+02   -5.2726699829e+01
    2.6880575562e+02   -5.2665000916e+01
    2.6890643311e+02   -5.2602199554e+01
    2.6900653076e+02   -5.2539699554e+01
    2.6910562134e+02   -5.2477699280e+01
    2.6920635986e+02   -5.2414501190e+01
    2.6930712891e+02   -5.2351200104e+01
    2.6940637207e+02   -5.2288799286e+01
    2.6950720215e+02   -5.2225200653e+01
    2.6960641479e+02   -5.2162601471e+01
    2.6970675659e+02   -5.2098999023e+01
    2.6980603027e+02   -5.2036098480e+01
    2.6990664673e+02   -5.1972099304e+01
    2.7000723267e+02   -5.1908100128e+01
    2.7010623169e+02   -5.1844898224e+01
    2.7020663452e+02   -5.1780601501e+01
    2.7030694580e+02   -5.1716201782e+01
    2.7040725708e+02   -5.1651599884e+01
    2.7050665283e+02   -5.1587501526e+01
    2.7060681152e+02   -5.1522598267e+01
    2.7070690918e+02   -5.1457599640e+01
    2.7080706787e+02   -5.1392299652e+01
    2.7090707397e+02   -5.1326900482e+01
    2.7100698853e+02   -5.1261398315e+01
    2.7110684204e+02   -5.1195598602e+01
    2.7120669556e+02   -5.1129699707e+01
    2.7130657959e+02   -5.1063499451e+01
    2.7140658569e+02   -5.0996898651e+01
    2.7150628662e+02   -5.0930400848e+01
    2.7160626221e+02   -5.0863498688e+01
    2.7170629883e+02   -5.0796298981e+01
    2.7180642700e+02   -5.0728900909e+01
    2.7190664673e+02   -5.0661098480e+01
    2.7200698853e+02   -5.0593101501e+01
    2.7210620117e+02   -5.0525699615e+01
    2.7220666504e+02   -5.0457199097e+01
    2.7230706787e+02   -5.0388500214e+01
    2.7240637207e+02   -5.0320400238e+01
    2.7250674438e+02   -5.0251399994e+01
    2.7260714722e+02   -5.0182201385e+01
    2.7270602417e+02   -5.0113899231e+01
    2.7280648804e+02   -5.0044300079e+01
    2.7290701294e+02   -4.9974601746e+01
    2.7300607300e+02   -4.9905700684e+01
    2.7310601807e+02   -4.9835998535e+01
    2.7320672607e+02   -4.9765598297e+01
    2.7330596924e+02   -4.9696201324e+01
    2.7340686035e+02   -4.9625499725e+01
    2.7350622559e+02   -4.9555801392e+01
    2.7360726929e+02   -4.9484798431e+01
    2.7370681763e+02   -4.9414798737e+01
    2.7380636597e+02   -4.9344699860e+01
    2.7390740967e+02   -4.9273399353e+01
    2.7400698853e+02   -4.9203201294e+01
    2.7410705566e+02   -4.9132499695e+01
    2.7420645142e+02   -4.9062198639e+01
    2.7430740356e+02   -4.8990699768e+01
    2.7440679932e+02   -4.8920200348e+01
    2.7450616455e+02   -4.8849601746e+01
    2.7460644531e+02   -4.8778301239e+01
    2.7470739746e+02   -4.8706401825e+01
    2.7480673218e+02   -4.8635398865e+01
    2.7490750122e+02   -4.8563400269e+01
    2.7500671387e+02   -4.8492198944e+01
    2.7510733032e+02   -4.8419898987e+01
    2.7520645142e+02   -4.8348598480e+01
    2.7530688477e+02   -4.8276000977e+01
    2.7540740967e+02   -4.8203300476e+01
    2.7550637817e+02   -4.8131500244e+01
    2.7560699463e+02   -4.8058300018e+01
    2.7570602417e+02   -4.7986099243e+01
    2.7580718994e+02   -4.7912200928e+01
    2.7590631104e+02   -4.7839599609e+01
    2.7600680542e+02   -4.7765800476e+01
    2.7610720825e+02   -4.7691898346e+01
    2.7620748901e+02   -4.7617801666e+01
    2.7630621338e+02   -4.7544799805e+01
    2.7640631104e+02   -4.7470500946e+01
    2.7650637817e+02   -4.7395999908e+01
    2.7660678101e+02   -4.7321098328e+01
    2.7670681763e+02   -4.7246200562e+01
    2.7680694580e+02   -4.7171001434e+01
    2.7690637207e+02   -4.7096199036e+01
    2.7700714111e+02   -4.7020099640e+01
    2.7710736084e+02   -4.6944198608e+01
    2.7720767212e+02   -4.6868099213e+01
    2.7730645752e+02   -4.6792900085e+01
    2.7740695190e+02   -4.6716201782e+01
    2.7750756836e+02   -4.6639198303e+01
    2.7760626221e+02   -4.6563598633e+01
    2.7770706177e+02   -4.6486198425e+01
    2.7780639648e+02   -4.6409801483e+01
    2.7790734863e+02   -4.6332000732e+01
    2.7800726318e+02   -4.6254901886e+01
    2.7810650635e+02   -4.6178199768e+01
    2.7820739746e+02   -4.6100200653e+01
    2.7830673218e+02   -4.6023300171e+01
    2.7840768433e+02   -4.5944999695e+01
    2.7850686646e+02   -4.5868000031e+01
    2.7860632324e+02   -4.5790699005e+01
    2.7870721436e+02   -4.5712299347e+01
    2.7880654907e+02   -4.5634899139e+01
    2.7890621948e+02   -4.5557201385e+01
    2.7900695801e+02   -4.5478599548e+01
    2.7910772705e+02   -4.5399799347e+01
    2.7920632935e+02   -4.5322700500e+01
    2.7930694580e+02   -4.5243900299e+01
    2.7940774536e+02   -4.5164901733e+01
    2.7950698853e+02   -4.5086898804e+01
    2.7960781860e+02   -4.5007701874e+01
    2.7970706177e+02   -4.4929500580e+01
    2.7980633545e+02   -4.4851299286e+01
    2.7990719604e+02   -4.4771598816e+01
    2.8000650024e+02   -4.4693099976e+01
    2.8010739136e+02   -4.4613201141e+01
    2.8020718384e+02   -4.4534099579e+01
    2.8030664062e+02   -4.4455101013e+01
    2.8040756226e+02   -4.4374801636e+01
    2.8050689697e+02   -4.4295600891e+01
    2.8060763550e+02   -4.4215099335e+01
    2.8070678711e+02   -4.4135700226e+01
    2.8080728149e+02   -4.4055099487e+01
    2.8090765381e+02   -4.3974399567e+01
    2.8100790405e+02   -4.3893699646e+01
    2.8110665894e+02   -4.3813899994e+01
    2.8120681763e+02   -4.3732799530e+01
    2.8130700684e+02   -4.3651500702e+01
    2.8140722656e+02   -4.3569900513e+01
    2.8150701904e+02   -4.3488601685e+01
    2.8160733032e+02   -4.3406600952e+01
    2.8170773315e+02   -4.3324401855e+01
    2.8180670166e+02   -4.3243198395e+01
    2.8190740967e+02   -4.3160400391e+01
    2.8200665283e+02   -4.3078701019e+01
    2.8210675049e+02   -4.2996101379e+01
    2.8220776367e+02   -4.2912601471e+01
    2.8230734253e+02   -4.2830299377e+01
    2.8240689087e+02   -4.2747798920e+01
    2.8250790405e+02   -4.2664001465e+01
    2.8260742188e+02   -4.2581298828e+01
    2.8270767212e+02   -4.2497898102e+01
    2.8280700684e+02   -4.2415100098e+01
    2.8290795898e+02   -4.2330898285e+01
    2.8300750732e+02   -4.2247798920e+01
    2.8310708618e+02   -4.2164600372e+01
    2.8320669556e+02   -4.2081298828e+01
    2.8330764771e+02   -4.1996898651e+01
    2.8340771484e+02   -4.1912998199e+01
    2.8350726318e+02   -4.1829601288e+01
    2.8360681152e+02   -4.1746101379e+01
    2.8370800781e+02   -4.1661201477e+01
    2.8380764771e+02   -4.1577598572e+01
    2.8390731812e+02   -4.1493900299e+01
    2.8400701904e+02   -4.1410198212e+01
    2.8410671997e+02   -4.1326499939e+01
    2.8420809937e+02   -4.1241298676e+01
    2.8430795288e+02   -4.1157398224e+01
    2.8440747070e+02   -4.1073799133e+01
    2.8450714111e+02   -4.0990001678e+01
    2.8460678101e+02   -4.0906200409e+01
    2.8470727539e+02   -4.0821601868e+01
    2.8480697632e+02   -4.0737598419e+01
    2.8490805054e+02   -4.0652400970e+01
    2.8500753784e+02   -4.0568401337e+01
    2.8510690308e+02   -4.0484401703e+01
    2.8520816040e+02   -4.0398799896e+01
    2.8530728149e+02   -4.0314800262e+01
    2.8540795898e+02   -4.0229301453e+01
    2.8550711060e+02   -4.0145099640e+01
    2.8560757446e+02   -4.0059600830e+01
    2.8570687866e+02   -3.9974899292e+01
    2.8580758667e+02   -3.9888999939e+01
    2.8590753174e+02   -3.9803501129e+01
    2.8600811768e+02   -3.9717399597e+01
    2.8610705566e+02   -3.9632598877e+01
    2.8620779419e+02   -3.9546100616e+01
    2.8630682373e+02   -3.9460998535e+01
    2.8640731812e+02   -3.9374500275e+01
    2.8650762939e+02   -3.9288101196e+01
    2.8660815430e+02   -3.9201301575e+01
    2.8670718384e+02   -3.9115798950e+01
    2.8680792236e+02   -3.9028598785e+01
    2.8690716553e+02   -3.8942600250e+01
    2.8700787354e+02   -3.8855201721e+01
    2.8710702515e+02   -3.8769100189e+01
    2.8720819092e+02   -3.8681098938e+01
    2.8730722046e+02   -3.8594898224e+01
    2.8740789795e+02   -3.8507099152e+01
    2.8750711060e+02   -3.8420600891e+01
    2.8760800171e+02   -3.8332500458e+01
    2.8770816040e+02   -3.8244998932e+01
    2.8780770874e+02   -3.8158000946e+01
    2.8790710449e+02   -3.8071098328e+01
    2.8800823975e+02   -3.7982601166e+01
    2.8810787964e+02   -3.7895500183e+01
    2.8820761108e+02   -3.7808300018e+01
    2.8830743408e+02   -3.7721000671e+01
    2.8840731812e+02   -3.7633701324e+01
    2.8850708008e+02   -3.7546501160e+01
    2.8860711670e+02   -3.7459201813e+01
    2.8870706177e+02   -3.7371898651e+01
    2.8880691528e+02   -3.7284801483e+01
    2.8890689087e+02   -3.7197498322e+01
    2.8900811768e+02   -3.7109298706e+01
    2.8910772705e+02   -3.7022399902e+01
    2.8920742798e+02   -3.6935501099e+01
    2.8930715942e+02   -3.6848598480e+01
    2.8940832520e+02   -3.6760398865e+01
    2.8950799561e+02   -3.6673599243e+01
    2.8960696411e+02   -3.6587299347e+01
    2.8970724487e+02   -3.6499900818e+01
    2.8980697632e+02   -3.6412998199e+01
    2.8990713501e+02   -3.6325698853e+01
    2.9000839233e+02   -3.6237400055e+01
    2.9010812378e+02   -3.6150398254e+01
    2.9020794678e+02   -3.6063301086e+01
    2.9030841064e+02   -3.5975700378e+01
    2.9040844727e+02   -3.5888301849e+01
    2.9050842285e+02   -3.5800998688e+01
    2.9060830688e+02   -3.5713798523e+01
    2.9070809937e+02   -3.5626499176e+01
    2.9080776978e+02   -3.5539299011e+01
    2.9090731812e+02   -3.5452201843e+01
    2.9100823975e+02   -3.5363800049e+01
    2.9110757446e+02   -3.5276699066e+01
    2.9120834351e+02   -3.5188301086e+01
    2.9130743408e+02   -3.5101299286e+01
    2.9140808105e+02   -3.5012901306e+01
    2.9150720215e+02   -3.4925800323e+01
    2.9160797119e+02   -3.4837100983e+01
    2.9170724487e+02   -3.4749698639e+01
    2.9180819702e+02   -3.4660800934e+01
    2.9190771484e+02   -3.4573101044e+01
    2.9200729370e+02   -3.4485298157e+01
    2.9210855103e+02   -3.4396099091e+01
    2.9220828247e+02   -3.4308200836e+01
    2.9230728149e+02   -3.4220901489e+01
    2.9240795898e+02   -3.4132198334e+01
    2.9250775146e+02   -3.4044200897e+01
    2.9260760498e+02   -3.3956199646e+01
    2.9270745850e+02   -3.3868301392e+01
    2.9280734253e+02   -3.3780300140e+01
    2.9290731812e+02   -3.3692401886e+01
    2.9300750732e+02   -3.3604198456e+01
    2.9310763550e+02   -3.3516201019e+01
    2.9320776367e+02   -3.3428298950e+01
    2.9330783081e+02   -3.3340499878e+01
    2.9340783691e+02   -3.3252799988e+01
    2.9350784302e+02   -3.3165199280e+01
    2.9360775757e+02   -3.3077701569e+01
    2.9370755005e+02   -3.2990501404e+01
    2.9380728149e+02   -3.2903400421e+01
    2.9390856934e+02   -3.2814899445e+01
    2.9400833130e+02   -3.2728000641e+01
    2.9410806274e+02   -3.2641101837e+01
    2.9420724487e+02   -3.2554798126e+01
    2.9430868530e+02   -3.2466598511e+01
    2.9440783691e+02   -3.2380500793e+01
    2.9450769043e+02   -3.2293899536e+01
    2.9460757446e+02   -3.2207298279e+01
    2.9470770264e+02   -3.2120601654e+01
    2.9480776978e+02   -3.2034000397e+01
    2.9490774536e+02   -3.1947500229e+01
    2.9500765991e+02   -3.1861200333e+01
    2.9510748291e+02   -3.1774900436e+01
    2.9520727539e+02   -3.1688600540e+01
    2.9530844116e+02   -3.1601200104e+01
    2.9540795898e+02   -3.1515199661e+01
    2.9550808716e+02   -3.1428699493e+01
    2.9560772705e+02   -3.1342599869e+01
    2.9570730591e+02   -3.1256500244e+01
    2.9580834961e+02   -3.1169200897e+01
    2.9590783691e+02   -3.1083200455e+01
    2.9600759888e+02   -3.0996900558e+01
    2.9610778809e+02   -3.0910299301e+01
    2.9620870972e+02   -3.0822999954e+01
    2.9630816650e+02   -3.0737100601e+01
    2.9640826416e+02   -3.0650499344e+01
    2.9650769043e+02   -3.0564599991e+01
    2.9660879517e+02   -3.0477199554e+01
    2.9670846558e+02   -3.0391199112e+01
    2.9680822754e+02   -3.0305000305e+01
    2.9690798950e+02   -3.0218900681e+01
    2.9700808716e+02   -3.0132499695e+01
    2.9710800171e+02   -3.0046300888e+01
    2.9720791626e+02   -2.9960199356e+01
    2.9730822754e+02   -2.9873800278e+01
    2.9740798950e+02   -2.9787900925e+01
    2.9750875854e+02   -2.9701200485e+01
    2.9760873413e+02   -2.9615299225e+01
    2.9770874023e+02   -2.9529399872e+01
    2.9780740356e+02   -2.9444799423e+01
    2.9790890503e+02   -2.9357799530e+01
    2.9800894165e+02   -2.9272300720e+01
    2.9810745239e+02   -2.9188100815e+01
    2.9820767212e+02   -2.9102600098e+01
    2.9830798340e+02   -2.9017099380e+01
    2.9840832520e+02   -2.8931800842e+01
    2.9850894165e+02   -2.8846300125e+01
    2.9860794067e+02   -2.8762500763e+01
    2.9870837402e+02   -2.8677499771e+01
    2.9880874634e+02   -2.8592800140e+01
    2.9890756226e+02   -2.8509500504e+01
    2.9900836182e+02   -2.8424800873e+01
    2.9910787964e+02   -2.8341199875e+01
    2.9920809937e+02   -2.8257200241e+01
    2.9930825806e+02   -2.8173400879e+01
    2.9940838623e+02   -2.8089700699e+01
    2.9950866699e+02   -2.8006000519e+01
    2.9960858154e+02   -2.7922800064e+01
    2.9970883179e+02   -2.7839300156e+01
    2.9980892944e+02   -2.7756099701e+01
    2.9990899658e+02   -2.7673000336e+01
endcurve
