Curveplot
LS-DYNA keyword deck by LS-Prepost
Abcissa
Ordinate
Define Curve
Curve 1 #pts=149
* Minval=   0.000000e+000 at time=        0.000000
* Maxval=   0.000000e+000 at time=        0.000000
0.00,13.7814
10.00,13.7768
20.00,13.6596
30.00,13.5414
40.00,13.2510
50.00,12.3707
60.00,10.8910
70.00,9.1087
80.00,7.3087
90.00,5.5104
100.00,4.2943
110.00,-0.1540
120.00,-5.5432
130.00,-11.9334
140.00,-19.4039
150.00,-27.9462
160.00,-37.4129
170.00,-46.9856
180.00,-56.7490
190.00,-65.1204
200.00,-71.6439
210.00,-76.2867
220.00,-79.1852
230.00,-80.4883
240.00,-79.9125
250.00,-78.5868
260.00,-76.8357
270.00,-73.1702
280.00,-68.2734
290.00,-62.6311
300.00,-56.8141
310.00,-51.1350
320.00,-45.9206
330.00,-41.3657
340.00,-37.2910
350.00,-33.7328
360.00,-30.3930
370.00,-27.4384
380.00,-24.5831
390.00,-21.9370
400.00,-19.1961
410.00,-16.9044
420.00,-14.8080
430.00,-12.8530
440.00,-11.1020
450.00,-9.3486
460.00,-7.8601
470.00,-6.3922
480.00,-5.3800
490.00,-4.1624
500.00,-0.1610
500.00,-59.6607
490.00,-51.6180
480.00,-51.5564
470.00,-51.6872
460.00,-51.9833
450.00,-52.4495
440.00,-53.1057
430.00,-53.9596
420.00,-55.0875
410.00,-56.4826
400.00,-58.5095
390.00,-60.7587
380.00,-63.4584
370.00,-66.5060
360.00,-70.0910
350.00,-73.9105
340.00,-77.9224
330.00,-82.1924
320.00,-86.7600
310.00,-91.1058
300.00,-95.2573
290.00,-98.9663
280.00,-102.1524
270.00,-104.6836
260.00,-106.6104
250.00,-107.4666
240.00,-108.1987
230.00,-108.0448
220.00,-106.9325
210.00,-104.9260
200.00,-101.6305
190.00,-97.0703
180.00,-91.1512
170.00,-83.7559
160.00,-75.2586
150.00,-66.0795
140.00,-56.8140
130.00,-47.5526
120.00,-39.9375
110.00,-33.3493
100.00,-27.2846
90.00,-23.1419
80.00,-19.9659
70.00,-17.6694
60.00,-16.0809
50.00,-14.9557
40.00,-14.1892
30.00,-13.8779
20.00,-13.7089
10.00,-13.6338
0.00,-13.6248
endcurve
