Curveplot
LS-DYNA keyword deck by LS-PrePost
Abscissa
Ordinate
XY data
CHOPHeadyRot-1 #pts=3000
* Minval=    -1.2098499574e-02 at time=       299.9089965820
* Maxval=     1.2184900232e-02 at time=       182.3015747070
    0.0000000000e+00    0.0000000000e+00
    9.9515393376e-02    0.0000000000e+00
    1.9926306605e-01    0.0000000000e+00
    2.9929459095e-01    1.5096799699e-22
    3.9880996943e-01    6.8008798113e-17
    4.9985638261e-01    4.5856500021e-12
    5.9905362129e-01    1.2629099988e-09
    6.9987636805e-01    1.7045199696e-09
    7.9954648018e-01    5.3007298551e-10
    8.9864903688e-01   -6.9476698700e-12
    9.9966126680e-01   -9.2046198441e-10
    1.0996326208e+00   -6.8816602417e-10
    1.1992081404e+00    5.9951399400e-09
    1.2992560863e+00    1.3768599594e-08
    1.3984533548e+00    1.1157699653e-08
    1.4998453856e+00   -8.4768796427e-09
    1.5994231701e+00   -3.8121999779e-08
    1.6985268593e+00   -5.8938500302e-08
    1.7997437716e+00   -5.3719301008e-08
    1.8993321657e+00   -1.6359100741e-08
    1.9997705221e+00    4.5764299017e-08
    2.0991508961e+00    1.1658399757e-07
    2.1989893913e+00    1.8031400373e-07
    2.2993984222e+00    2.2060399374e-07
    2.3992598057e+00    2.1873400158e-07
    2.4991235733e+00    1.6356899835e-07
    2.5987050533e+00    5.9231300753e-08
    2.6996295452e+00   -8.0540196734e-08
    2.7984552383e+00   -2.2829300406e-07
    2.8999648094e+00   -3.6889599642e-07
    2.9995646477e+00   -4.8647399353e-07
    3.0999040604e+00   -5.8363701783e-07
    3.1995027065e+00   -6.5754500156e-07
    3.2985928059e+00   -7.0566500199e-07
    3.3985512257e+00   -7.2717597277e-07
    3.4984316826e+00   -7.1583701811e-07
    3.5994479656e+00   -6.6139597266e-07
    3.6990442276e+00   -5.5871799987e-07
    3.7992246151e+00   -4.2296798597e-07
    3.8993701935e+00   -2.8083599091e-07
    3.9994227886e+00   -1.5830100608e-07
    4.0995702744e+00   -6.4466803451e-08
    4.1997194290e+00    5.0263500029e-09
    4.2992067337e+00    6.9032800809e-08
    4.3998479843e+00    1.4118700165e-07
    4.4984693527e+00    2.3142399641e-07
    4.5991115570e+00    3.5233500739e-07
    4.6995639801e+00    5.0056002010e-07
    4.7992572784e+00    6.7494198674e-07
    4.8994216919e+00    8.8200800974e-07
    4.9986214638e+00    1.1242000255e-06
    5.0999350548e+00    1.4220199773e-06
    5.1995096207e+00    1.7714199885e-06
    5.2987051010e+00    2.1785999706e-06
    5.3990669250e+00    2.6394400265e-06
    5.4996919632e+00    3.1373899674e-06
    5.5998415947e+00    3.6519199966e-06
    5.6989326477e+00    4.1657499423e-06
    5.7985906601e+00    4.6760701480e-06
    5.8998737335e+00    5.1877100304e-06
    5.9998154640e+00    5.6893700275e-06
    6.0996627808e+00    6.1836299210e-06
    6.1989426613e+00    6.6529601099e-06
    6.2983975410e+00    7.0912501542e-06
    6.3997802734e+00    7.5086099969e-06
    6.4992542267e+00    7.9048495536e-06
    6.5996904373e+00    8.3158802227e-06
    6.6996359825e+00    8.7547696239e-06
    6.7985401154e+00    9.2275204224e-06
    6.8986897469e+00    9.7561496659e-06
    6.9997239113e+00    1.0330300029e-05
    7.0992083549e+00    1.0918200132e-05
    7.1986923218e+00    1.1519499822e-05
    7.2996892929e+00    1.2139399587e-05
    7.3985881805e+00    1.2757699551e-05
    7.4985284805e+00    1.3385199964e-05
    7.5995121002e+00    1.4012200154e-05
    7.6986827850e+00    1.4600899704e-05
    7.7998762131e+00    1.5154700122e-05
    7.8998236656e+00    1.5641200662e-05
    7.9989199638e+00    1.6065199816e-05
    8.0998153687e+00    1.6454099750e-05
    8.1998615265e+00    1.6817399228e-05
    8.2990570068e+00    1.7175500034e-05
    8.3988990784e+00    1.7544000002e-05
    8.4998006821e+00    1.7925300199e-05
    8.5999631882e+00    1.8303999241e-05
    8.6987676620e+00    1.8676999389e-05
    8.7995939255e+00    1.9066499590e-05
    8.8990020752e+00    1.9469200197e-05
    8.9996566772e+00    1.9901699488e-05
    9.0994253159e+00    2.0357299945e-05
    9.1989107132e+00    2.0820099962e-05
    9.2986021042e+00    2.1272000595e-05
    9.3995208740e+00    2.1703999664e-05
    9.4999656677e+00    2.2102900402e-05
    9.5991315842e+00    2.2470600015e-05
    9.6984272003e+00    2.2822499886e-05
    9.7983865738e+00    2.3171200155e-05
    9.8995943069e+00    2.3526099540e-05
    9.9990644455e+00    2.3873499231e-05
    1.0098740578e+01    2.4218999897e-05
    1.0199964523e+01    2.4571099857e-05
    1.0299671173e+01    2.4926299375e-05
    1.0399828911e+01    2.5298200853e-05
    1.0499686241e+01    2.5691200790e-05
    1.0598957062e+01    2.6100800824e-05
    1.0699192047e+01    2.6530100513e-05
    1.0799160004e+01    2.6967800295e-05
    1.0898541451e+01    2.7398600650e-05
    1.0999831200e+01    2.7828300517e-05
    1.1099590302e+01    2.8244399800e-05
    1.1199539185e+01    2.8665399441e-05
    1.1298731804e+01    2.9090599128e-05
    1.1399438858e+01    2.9500699384e-05
    1.1499849319e+01    2.9873399399e-05
    1.1598558426e+01    3.0205499570e-05
    1.1699192047e+01    3.0536099075e-05
    1.1798781395e+01    3.0895498639e-05
    1.1898856163e+01    3.1308100006e-05
    1.1999099731e+01    3.1769799534e-05
    1.2098836899e+01    3.2261199522e-05
    1.2198673248e+01    3.2754800486e-05
    1.2299571037e+01    3.3223801438e-05
    1.2399525642e+01    3.3624601201e-05
    1.2499297142e+01    3.3944099414e-05
    1.2598771095e+01    3.4192700696e-05
    1.2698864937e+01    3.4400498407e-05
    1.2799510002e+01    3.4604199755e-05
    1.2899018288e+01    3.4839100408e-05
    1.2999300957e+01    3.5121298424e-05
    1.3099866867e+01    3.5441898945e-05
    1.3199278831e+01    3.5793698771e-05
    1.3299127579e+01    3.6184301280e-05
    1.3399185181e+01    3.6617198930e-05
    1.3498596191e+01    3.7110301491e-05
    1.3599918365e+01    3.7704900024e-05
    1.3698760033e+01    3.8389200199e-05
    1.3799416542e+01    3.9163998736e-05
    1.3899566650e+01    3.9964801545e-05
    1.3999134064e+01    4.0746101149e-05
    1.4099665642e+01    4.1505398258e-05
    1.4198574066e+01    4.2233899876e-05
    1.4299221039e+01    4.2983898311e-05
    1.4399885178e+01    4.3758998800e-05
    1.4498701096e+01    4.4566299039e-05
    1.4599349976e+01    4.5446500735e-05
    1.4699978828e+01    4.6378700063e-05
    1.4799977303e+01    4.7357800213e-05
    1.4899495125e+01    4.8393099860e-05
    1.4999355316e+01    4.9507299991e-05
    1.5098661423e+01    5.0713100791e-05
    1.5198907852e+01    5.2042298194e-05
    1.5299245834e+01    5.3485699027e-05
    1.5398726463e+01    5.4998301493e-05
    1.5499447823e+01    5.6590699387e-05
    1.5598524094e+01    5.8191501012e-05
    1.5699790955e+01    5.9836500441e-05
    1.5799527168e+01    6.1449100031e-05
    1.5899530411e+01    6.3059502281e-05
    1.5999344826e+01    6.4667103288e-05
    1.6099838257e+01    6.6278800659e-05
    1.6199182510e+01    6.7836997914e-05
    1.6298717499e+01    6.9341898779e-05
    1.6399026871e+01    7.0809503086e-05
    1.6499639511e+01    7.2271897807e-05
    1.6599966049e+01    7.3768002039e-05
    1.6699516296e+01    7.5319600001e-05
    1.6799160004e+01    7.6946198533e-05
    1.6898914337e+01    7.8655401012e-05
    1.6998966217e+01    8.0422396422e-05
    1.7099979401e+01    8.2227801613e-05
    1.7198873520e+01    8.3998696937e-05
    1.7299186707e+01    8.5796396888e-05
    1.7399387360e+01    8.7602202257e-05
    1.7498723984e+01    8.9389897767e-05
    1.7598539352e+01    9.1163703473e-05
    1.7699022293e+01    9.2891001259e-05
    1.7799432755e+01    9.4525101304e-05
    1.7899370193e+01    9.6039701020e-05
    1.7999597549e+01    9.7448697488e-05
    1.8099447250e+01    9.8775002698e-05
    1.8199300766e+01    1.0006299999e-04
    1.8299535751e+01    1.0134100012e-04
    1.8399299622e+01    1.0261400166e-04
    1.8499729156e+01    1.0390300304e-04
    1.8599893570e+01    1.0519000352e-04
    1.8699567795e+01    1.0646699957e-04
    1.8799831390e+01    1.0777099669e-04
    1.8899637222e+01    1.0910700075e-04
    1.8998748779e+01    1.1047400039e-04
    1.9099582672e+01    1.1190099758e-04
    1.9199359894e+01    1.1331099813e-04
    1.9299434662e+01    1.1467999866e-04
    1.9398958206e+01    1.1598000128e-04
    1.9499582291e+01    1.1722299678e-04
    1.9598772049e+01    1.1838399951e-04
    1.9699968338e+01    1.1951800116e-04
    1.9798786163e+01    1.2059500295e-04
    1.9899040222e+01    1.2166499801e-04
    1.9999559402e+01    1.2271199375e-04
    2.0099245071e+01    1.2371799676e-04
    2.0199890137e+01    1.2471800437e-04
    2.0299772263e+01    1.2572199921e-04
    2.0399650574e+01    1.2676199549e-04
    2.0499698639e+01    1.2785800209e-04
    2.0599178314e+01    1.2900099682e-04
    2.0698671341e+01    1.3018799655e-04
    2.0798824310e+01    1.3141200179e-04
    2.0898784637e+01    1.3263399887e-04
    2.0999406815e+01    1.3386399951e-04
    2.1098482132e+01    1.3507899712e-04
    2.1199199677e+01    1.3633799972e-04
    2.1300012589e+01    1.3762200251e-04
    2.1399957657e+01    1.3888199464e-04
    2.1499794006e+01    1.4010599989e-04
    2.1599159241e+01    1.4128499606e-04
    2.1699502945e+01    1.4245799684e-04
    2.1798704147e+01    1.4364799426e-04
    2.1898960114e+01    1.4490500325e-04
    2.1998720169e+01    1.4621899754e-04
    2.2098939896e+01    1.4758900215e-04
    2.2199617386e+01    1.4898499649e-04
    2.2299827576e+01    1.5035799879e-04
    2.2399114609e+01    1.5166999947e-04
    2.2499444962e+01    1.5293199976e-04
    2.2598722458e+01    1.5413899382e-04
    2.2699853897e+01    1.5535000421e-04
    2.2798582077e+01    1.5655100287e-04
    2.2899238586e+01    1.5782700211e-04
    2.2999137878e+01    1.5914899996e-04
    2.3098657608e+01    1.6050800332e-04
    2.3199026108e+01    1.6191700706e-04
    2.3299343109e+01    1.6336499539e-04
    2.3398542404e+01    1.6484399384e-04
    2.3498989105e+01    1.6641699767e-04
    2.3598775864e+01    1.6808300279e-04
    2.3698747635e+01    1.6986500123e-04
    2.3799365997e+01    1.7174299865e-04
    2.3899591446e+01    1.7364599626e-04
    2.3998765945e+01    1.7551900237e-04
    2.4099773407e+01    1.7741399643e-04
    2.4199552536e+01    1.7929000023e-04
    2.4298782349e+01    1.8119199376e-04
    2.4399843216e+01    1.8317099602e-04
    2.4498678207e+01    1.8517200078e-04
    2.4598945618e+01    1.8728700525e-04
    2.4699495316e+01    1.8948600336e-04
    2.4799011230e+01    1.9174099725e-04
    2.4900051117e+01    1.9411799440e-04
    2.4999332428e+01    1.9653899653e-04
    2.5099761963e+01    1.9909499679e-04
    2.5199033737e+01    2.0173100347e-04
    2.5300035477e+01    2.0452500030e-04
    2.5399406433e+01    2.0735600265e-04
    2.5499134064e+01    2.1025899332e-04
    2.5599613190e+01    2.1322400426e-04
    2.5699163437e+01    2.1618099709e-04
    2.5798503876e+01    2.1912099328e-04
    2.5899248123e+01    2.2210100724e-04
    2.5999994278e+01    2.2507899848e-04
    2.6099037170e+01    2.2800700390e-04
    2.6200025558e+01    2.3097600206e-04
    2.6299936295e+01    2.3387500551e-04
    2.6399944305e+01    2.3674400290e-04
    2.6498910904e+01    2.3958500242e-04
    2.6599910736e+01    2.4252900039e-04
    2.6698696136e+01    2.4547599605e-04
    2.6799938202e+01    2.4856600794e-04
    2.6899932861e+01    2.5170200388e-04
    2.6999673843e+01    2.5489600375e-04
    2.7099128723e+01    2.5810100487e-04
    2.7198656082e+01    2.6130399783e-04
    2.7298643112e+01    2.6450201403e-04
    2.7399482727e+01    2.6769700344e-04
    2.7498590469e+01    2.7079301071e-04
    2.7599332809e+01    2.7387600858e-04
    2.7698459625e+01    2.7682399377e-04
    2.7799516678e+01    2.7971799136e-04
    2.7899650574e+01    2.8245401336e-04
    2.7999504089e+01    2.8504600050e-04
    2.8098585129e+01    2.8750800993e-04
    2.8199771881e+01    2.8993899468e-04
    2.8298843384e+01    2.9225699836e-04
    2.8399639130e+01    2.9458600329e-04
    2.8499494553e+01    2.9689000803e-04
    2.8599842072e+01    2.9920501402e-04
    2.8699117661e+01    3.0149199301e-04
    2.8798791885e+01    3.0379698728e-04
    2.8899847031e+01    3.0614700518e-04
    2.8999639511e+01    3.0847798917e-04
    2.9099418640e+01    3.1081799534e-04
    2.9198518753e+01    3.1311300700e-04
    2.9299543381e+01    3.1538799522e-04
    2.9399906158e+01    3.1756400131e-04
    2.9498832703e+01    3.1961599598e-04
    2.9599447250e+01    3.2160300179e-04
    2.9699592590e+01    3.2349600224e-04
    2.9798889160e+01    3.2530899625e-04
    2.9898960114e+01    3.2709201332e-04
    2.9999504089e+01    3.2884799293e-04
    3.0098531723e+01    3.3054599771e-04
    3.0199562073e+01    3.3226000960e-04
    3.0298788071e+01    3.3395198989e-04
    3.0398969650e+01    3.3570200321e-04
    3.0498847961e+01    3.3751298906e-04
    3.0599874496e+01    3.3942100708e-04
    3.0698890686e+01    3.4136598697e-04
    3.0799699783e+01    3.4340898856e-04
    3.0899259567e+01    3.4545798553e-04
    3.0999967575e+01    3.4755800152e-04
    3.1099996567e+01    3.4967399552e-04
    3.1198886871e+01    3.5181301064e-04
    3.1299573898e+01    3.5402900539e-04
    3.1399017334e+01    3.5619598930e-04
    3.1499788284e+01    3.5834399750e-04
    3.1599523544e+01    3.6043999717e-04
    3.1699588776e+01    3.6256699241e-04
    3.1799076080e+01    3.6477899994e-04
    3.1900079727e+01    3.6715000169e-04
    3.1999242783e+01    3.6958500277e-04
    3.2099510193e+01    3.7211898598e-04
    3.2198631287e+01    3.7464100751e-04
    3.2299388885e+01    3.7716000224e-04
    3.2399307251e+01    3.7955399603e-04
    3.2498889923e+01    3.8180701085e-04
    3.2599979401e+01    3.8397900062e-04
    3.2698627472e+01    3.8603201392e-04
    3.2799640656e+01    3.8813400897e-04
    3.2898746490e+01    3.9027299499e-04
    3.2999019623e+01    3.9254000876e-04
    3.3100063324e+01    3.9491901407e-04
    3.3199569702e+01    3.9736100007e-04
    3.3299873352e+01    3.9992699749e-04
    3.3399551392e+01    4.0258400259e-04
    3.3499988556e+01    4.0539799375e-04
    3.3598609924e+01    4.0833000094e-04
    3.3699157715e+01    4.1149999015e-04
    3.3799007416e+01    4.1477198829e-04
    3.3899604797e+01    4.1810001130e-04
    3.3998775482e+01    4.2133399984e-04
    3.4099689484e+01    4.2455698713e-04
    3.4199836731e+01    4.2770899017e-04
    3.4298866272e+01    4.3084300705e-04
    3.4399936676e+01    4.3408898637e-04
    3.4498493195e+01    4.3736299267e-04
    3.4599922180e+01    4.4089299627e-04
    3.4698947906e+01    4.4449200504e-04
    3.4799991608e+01    4.4832000276e-04
    3.4899494171e+01    4.5225600479e-04
    3.4998970032e+01    4.5635399874e-04
    3.5099967957e+01    4.6070999815e-04
    3.5199047089e+01    4.6518899035e-04
    3.5299457550e+01    4.6996099991e-04
    3.5398910522e+01    4.7488100245e-04
    3.5498916626e+01    4.7998700757e-04
    3.5599937439e+01    4.8524700105e-04
    3.5699329376e+01    4.9044698244e-04
    3.5799266815e+01    4.9563997891e-04
    3.5899963379e+01    5.0082599046e-04
    3.5999042511e+01    5.0590001047e-04
    3.6098529816e+01    5.1097798860e-04
    3.6199169159e+01    5.1607098430e-04
    3.6299892426e+01    5.2108202362e-04
    3.6399749756e+01    5.2597402828e-04
    3.6499153137e+01    5.3082202794e-04
    3.6598678589e+01    5.3571397439e-04
    3.6699142456e+01    5.4073799402e-04
    3.6799869537e+01    5.4589501815e-04
    3.6899379730e+01    5.5115798023e-04
    3.6998783112e+01    5.5655901087e-04
    3.7099712372e+01    5.6212197524e-04
    3.7199489594e+01    5.6763301836e-04
    3.7299419403e+01    5.7311198907e-04
    3.7399810791e+01    5.7855498744e-04
    3.7499927521e+01    5.8388098842e-04
    3.7599002838e+01    5.8902002638e-04
    3.7699714661e+01    5.9407297522e-04
    3.7798812866e+01    5.9882900678e-04
    3.7899372101e+01    6.0340599157e-04
    3.7999195099e+01    6.0768297408e-04
    3.8099407196e+01    6.1175000155e-04
    3.8199340820e+01    6.1564298812e-04
    3.8299354553e+01    6.1942997854e-04
    3.8399074554e+01    6.2315602554e-04
    3.8499275208e+01    6.2689202605e-04
    3.8599330902e+01    6.3060701359e-04
    3.8698486328e+01    6.3425902044e-04
    3.8799770355e+01    6.3797901385e-04
    3.8899299622e+01    6.4163899515e-04
    3.8998828888e+01    6.4531399403e-04
    3.9099857330e+01    6.4907397609e-04
    3.9199832916e+01    6.5277301474e-04
    3.9299045563e+01    6.5634999191e-04
    3.9398574829e+01    6.5980298677e-04
    3.9499298096e+01    6.6313199932e-04
    3.9598480225e+01    6.6624197643e-04
    3.9699295044e+01    6.6926900763e-04
    3.9798488617e+01    6.7216297612e-04
    3.9899307251e+01    6.7506299820e-04
    3.9998508453e+01    6.7789497552e-04
    4.0099330902e+01    6.8075099261e-04
    4.0199234009e+01    6.8356900010e-04
    4.0298763275e+01    6.8639899837e-04
    4.0399806976e+01    6.8933301372e-04
    4.0499313354e+01    6.9231999805e-04
    4.0598815918e+01    6.9542601705e-04
    4.0698593140e+01    6.9866800914e-04
    4.0799499512e+01    7.0206297096e-04
    4.0899147034e+01    7.0547300857e-04
    4.0999248505e+01    7.0894201053e-04
    4.1099441528e+01    7.1243499406e-04
    4.1199047089e+01    7.1595900226e-04
    4.1299789429e+01    7.1957200998e-04
    4.1398914337e+01    7.2310701944e-04
    4.1499668121e+01    7.2665599873e-04
    4.1599575043e+01    7.3014298687e-04
    4.1699714661e+01    7.3366600554e-04
    4.1799175262e+01    7.3729298310e-04
    4.1898616791e+01    7.4108300032e-04
    4.1999458313e+01    7.4509100523e-04
    4.2098537445e+01    7.4915302685e-04
    4.2199249268e+01    7.5331999687e-04
    4.2298347473e+01    7.5737602310e-04
    4.2398628235e+01    7.6134299161e-04
    4.2499031067e+01    7.6513999375e-04
    4.2598461151e+01    7.6875800733e-04
    4.2699275970e+01    7.7234802302e-04
    4.2799488068e+01    7.7594001777e-04
    4.2899055481e+01    7.7963800868e-04
    4.2998535156e+01    7.8349298565e-04
    4.3099548340e+01    7.8754301649e-04
    4.3199115753e+01    7.9166400246e-04
    4.3299861908e+01    7.9596700380e-04
    4.3398906708e+01    8.0032699043e-04
    4.3499126434e+01    8.0492201960e-04
    4.3598388672e+01    8.0971501302e-04
    4.3699779510e+01    8.1487698480e-04
    4.3799228668e+01    8.2013499923e-04
    4.3898277283e+01    8.2542398013e-04
    4.3999061584e+01    8.3075201837e-04
    4.4098529816e+01    8.3593098680e-04
    4.4199535370e+01    8.4113801131e-04
    4.4298385620e+01    8.4625999443e-04
    4.4399440765e+01    8.5157097783e-04
    4.4499725342e+01    8.5700297495e-04
    4.4599327087e+01    8.6261401884e-04
    4.4699378967e+01    8.6845498299e-04
    4.4798877716e+01    8.7446498219e-04
    4.4899887085e+01    8.8079099078e-04
    4.4998939514e+01    8.8721700013e-04
    4.5099704742e+01    8.9402997401e-04
    4.5199317932e+01    9.0104999254e-04
    4.5298744202e+01    9.0835697483e-04
    4.5399871826e+01    9.1603898909e-04
    4.5498485565e+01    9.2372001382e-04
    4.5598773956e+01    9.3163701240e-04
    4.5699344635e+01    9.3958899379e-04
    4.5799720764e+01    9.4745901879e-04
    4.5898738861e+01    9.5515901921e-04
    4.5999389648e+01    9.6295098774e-04
    4.6098636627e+01    9.7061198903e-04
    4.6199424744e+01    9.7832502797e-04
    4.6298450470e+01    9.8577898461e-04
    4.6399097443e+01    9.9324597977e-04
    4.6499595642e+01    1.0006800294e-03
    4.6598964691e+01    1.0080999928e-03
    4.6699855804e+01    1.0157800280e-03
    4.6798965454e+01    1.0234699585e-03
    4.6899520874e+01    1.0314800311e-03
    4.6998859406e+01    1.0395400459e-03
    4.7099712372e+01    1.0477700271e-03
    4.7199031830e+01    1.0558200302e-03
    4.7298431396e+01    1.0637700325e-03
    4.7399028778e+01    1.0717200348e-03
    4.7499637604e+01    1.0795099661e-03
    4.7598648071e+01    1.0870000115e-03
    4.7699302673e+01    1.0943600209e-03
    4.7798351288e+01    1.1013000039e-03
    4.7899353027e+01    1.1080199620e-03
    4.7999153137e+01    1.1142799631e-03
    4.8098453522e+01    1.1202000314e-03
    4.8198909760e+01    1.1259700404e-03
    4.8299633026e+01    1.1315899901e-03
    4.8398738861e+01    1.1370299617e-03
    4.8499198914e+01    1.1425199918e-03
    4.8598854065e+01    1.1479100212e-03
    4.8699150085e+01    1.1532700155e-03
    4.8799079895e+01    1.1585799512e-03
    4.8898597717e+01    1.1638900032e-03
    4.8999652863e+01    1.1693000561e-03
    4.9099071503e+01    1.1746500386e-03
    4.9199214935e+01    1.1800000211e-03
    4.9298885345e+01    1.1851600138e-03
    4.9398395538e+01    1.1901200050e-03
    4.9499343872e+01    1.1949200416e-03
    4.9599201202e+01    1.1994299712e-03
    4.9698394775e+01    1.2037300039e-03
    4.9798366547e+01    1.2079499429e-03
    4.9899192810e+01    1.2121399632e-03
    4.9998390198e+01    1.2161999475e-03
    5.0099800110e+01    1.2202899670e-03
    5.0198532104e+01    1.2242100202e-03
    5.0299587250e+01    1.2282399694e-03
    5.0399093628e+01    1.2322899420e-03
    5.0498950958e+01    1.2364899740e-03
    5.0599006653e+01    1.2408699840e-03
    5.0698478699e+01    1.2454099488e-03
    5.0799171448e+01    1.2501500314e-03
    5.0898323059e+01    1.2548899977e-03
    5.0998867035e+01    1.2597599998e-03
    5.1099498749e+01    1.2647099793e-03
    5.1199752808e+01    1.2697400525e-03
    5.1298835754e+01    1.2748499867e-03
    5.1398994446e+01    1.2800400145e-03
    5.1499706268e+01    1.2852499494e-03
    5.1599384308e+01    1.2903900351e-03
    5.1698520660e+01    1.2955400161e-03
    5.1799461365e+01    1.3009400573e-03
    5.1898849487e+01    1.3064600062e-03
    5.1999725342e+01    1.3122799573e-03
    5.2098739624e+01    1.3181699906e-03
    5.2199386597e+01    1.3242099667e-03
    5.2298427582e+01    1.3301200233e-03
    5.2398551941e+01    1.3359299628e-03
    5.2499275208e+01    1.3415799476e-03
    5.2598937988e+01    1.3470300473e-03
    5.2698734283e+01    1.3524600072e-03
    5.2798408508e+01    1.3579600491e-03
    5.2899562836e+01    1.3637499651e-03
    5.2998989105e+01    1.3696700335e-03
    5.3098411560e+01    1.3757599518e-03
    5.3199359894e+01    1.3821000466e-03
    5.3298328400e+01    1.3884799555e-03
    5.3398296356e+01    1.3950900175e-03
    5.3499610901e+01    1.4020400122e-03
    5.3598720551e+01    1.4091399498e-03
    5.3698627472e+01    1.4165999601e-03
    5.3798198700e+01    1.4242300531e-03
    5.3898925781e+01    1.4319899492e-03
    5.3999671936e+01    1.4396499610e-03
    5.4098808289e+01    1.4470600290e-03
    5.4199142456e+01    1.4545000158e-03
    5.4298648834e+01    1.4619299909e-03
    5.4399677277e+01    1.4695799910e-03
    5.4499649048e+01    1.4773500152e-03
    5.4599693298e+01    1.4853900066e-03
    5.4698577881e+01    1.4935899526e-03
    5.4799564362e+01    1.5022200532e-03
    5.4898994446e+01    1.5109899687e-03
    5.4999210358e+01    1.5201000497e-03
    5.5098278046e+01    1.5294300392e-03
    5.5199554443e+01    1.5392800560e-03
    5.5298919678e+01    1.5492800158e-03
    5.5398529053e+01    1.5595400473e-03
    5.5498878479e+01    1.5700600343e-03
    5.5599460602e+01    1.5806800220e-03
    5.5698905945e+01    1.5911400551e-03
    5.5798271179e+01    1.6014799476e-03
    5.5898849487e+01    1.6118499916e-03
    5.5999435425e+01    1.6221599653e-03
    5.6098999023e+01    1.6323400196e-03
    5.6199249268e+01    1.6425099457e-03
    5.6298202515e+01    1.6524100211e-03
    5.6398120880e+01    1.6622999683e-03
    5.6499198914e+01    1.6722900327e-03
    5.6598491669e+01    1.6821899917e-03
    5.6699291229e+01    1.6924099764e-03
    5.6799270630e+01    1.7027199501e-03
    5.6898563385e+01    1.7132200301e-03
    5.6999332428e+01    1.7240500310e-03
    5.7098556519e+01    1.7347600078e-03
    5.7199298859e+01    1.7455599736e-03
    5.7299049377e+01    1.7561099958e-03
    5.7399551392e+01    1.7665600171e-03
    5.7498447418e+01    1.7766100354e-03
    5.7598999023e+01    1.7865500413e-03
    5.7699577332e+01    1.7961499980e-03
    5.7798553467e+01    1.8052100204e-03
    5.7898429871e+01    1.8139099702e-03
    5.7999313354e+01    1.8222100334e-03
    5.8099056244e+01    1.8299899530e-03
    5.8199077606e+01    1.8374699866e-03
    5.8299358368e+01    1.8446999602e-03
    5.8398315430e+01    1.8516900018e-03
    5.8499008179e+01    1.8587399973e-03
    5.8599185944e+01    1.8656699685e-03
    5.8698398590e+01    1.8724700203e-03
    5.8799144745e+01    1.8793300260e-03
    5.8899295807e+01    1.8861499848e-03
    5.8998798370e+01    1.8929200014e-03
    5.9099071503e+01    1.8997399602e-03
    5.9198818207e+01    1.9064099761e-03
    5.9299606323e+01    1.9129300490e-03
    5.9398818970e+01    1.9190800376e-03
    5.9498332977e+01    1.9249599427e-03
    5.9598651886e+01    1.9305699971e-03
    5.9699459076e+01    1.9359700382e-03
    5.9798648834e+01    1.9410999957e-03
    5.9899463654e+01    1.9461900229e-03
    5.9998657227e+01    1.9511099672e-03
    6.0099468231e+01    1.9560100045e-03
    6.0199417114e+01    1.9608000293e-03
    6.0298927307e+01    1.9655700307e-03
    6.0398414612e+01    1.9704599399e-03
    6.0498451233e+01    1.9755500834e-03
    6.0599441528e+01    1.9809200894e-03
    6.0698879242e+01    1.9864400383e-03
    6.0798358917e+01    1.9921800122e-03
    6.0898712158e+01    1.9981099758e-03
    6.0998638153e+01    2.0041500684e-03
    6.1098850250e+01    2.0103300922e-03
    6.1198661804e+01    2.0166800823e-03
    6.1299304962e+01    2.0232698880e-03
    6.1398910522e+01    2.0298899617e-03
    6.1499561310e+01    2.0366199315e-03
    6.1599170685e+01    2.0433398895e-03
    6.1699386597e+01    2.0502000116e-03
    6.1798725128e+01    2.0572100766e-03
    6.1899555206e+01    2.0645600744e-03
    6.1998531342e+01    2.0720099565e-03
    6.2099079132e+01    2.0797799807e-03
    6.2198017120e+01    2.0874799229e-03
    6.2298595428e+01    2.0952699706e-03
    6.2399600983e+01    2.1029401105e-03
    6.2499008179e+01    2.1103199106e-03
    6.2599357605e+01    2.1176498849e-03
    6.2699073792e+01    2.1249300335e-03
    6.2798751831e+01    2.1323200781e-03
    6.2898178101e+01    2.1399399266e-03
    6.2999042511e+01    2.1479499992e-03
    6.3098369598e+01    2.1560699679e-03
    6.3199218750e+01    2.1645401139e-03
    6.3299423218e+01    2.1731900051e-03
    6.3399105072e+01    2.1820499096e-03
    6.3499263763e+01    2.1912199445e-03
    6.3598846436e+01    2.2006600630e-03
    6.3699417114e+01    2.2104899399e-03
    6.3798416138e+01    2.2203400731e-03
    6.3899059296e+01    2.2303299047e-03
    6.3998111725e+01    2.2399900481e-03
    6.4098808289e+01    2.2496499587e-03
    6.4198616028e+01    2.2591000888e-03
    6.4298065186e+01    2.2685199510e-03
    6.4399047852e+01    2.2781300358e-03
    6.4498497009e+01    2.2877599113e-03
    6.4598205566e+01    2.2976999171e-03
    6.4698471069e+01    2.3079700768e-03
    6.4799392700e+01    2.3186199833e-03
    6.4898757935e+01    2.3294300772e-03
    6.4998992920e+01    2.3406399414e-03
    6.5098457336e+01    2.3521299008e-03
    6.5199485779e+01    2.3641400039e-03
    6.5298767090e+01    2.3763100617e-03
    6.5398094177e+01    2.3887800053e-03
    6.5498542786e+01    2.4016199168e-03
    6.5599021912e+01    2.4145499337e-03
    6.5698654175e+01    2.4273099843e-03
    6.5798309326e+01    2.4398700334e-03
    6.5898796082e+01    2.4523499887e-03
    6.5999298096e+01    2.4646800011e-03
    6.6099357605e+01    2.4768600706e-03
    6.6198089600e+01    2.4887900800e-03
    6.6298568726e+01    2.5007699151e-03
    6.6399055481e+01    2.5126400869e-03
    6.6499374390e+01    2.5244699791e-03
    6.6598571777e+01    2.5362300221e-03
    6.6699279785e+01    2.5483199861e-03
    6.6798873901e+01    2.5604199618e-03
    6.6898162842e+01    2.5727800094e-03
    6.6998817444e+01    2.5855500717e-03
    6.7099456787e+01    2.5983999949e-03
    6.7198554993e+01    2.6110000908e-03
    6.7298095703e+01    2.6234600227e-03
    6.7398475647e+01    2.6357600000e-03
    6.7498878479e+01    2.6477200445e-03
    6.7599319458e+01    2.6592800859e-03
    6.7698173523e+01    2.6702301111e-03
    6.7798675537e+01    2.6808900293e-03
    6.7898078918e+01    2.6909299195e-03
    6.7998870850e+01    2.7005400043e-03
    6.8098144531e+01    2.7095100377e-03
    6.8198066711e+01    2.7180900797e-03
    6.8298637390e+01    2.7263700031e-03
    6.8399040222e+01    2.7343800757e-03
    6.8498031616e+01    2.7421500999e-03
    6.8599357605e+01    2.7499899734e-03
    6.8698394775e+01    2.7575499844e-03
    6.8799079895e+01    2.7651700657e-03
    6.8898124695e+01    2.7726299595e-03
    6.8999107361e+01    2.7801999822e-03
    6.9098579407e+01    2.7876300737e-03
    6.9198295593e+01    2.7949600480e-03
    6.9299041748e+01    2.8020900209e-03
    6.9399078369e+01    2.8088800609e-03
    6.9498542786e+01    2.8152999002e-03
    6.9599403381e+01    2.8214401100e-03
    6.9698539734e+01    2.8271700721e-03
    6.9799308777e+01    2.8327601030e-03
    6.9898460388e+01    2.8381000739e-03
    6.9999237061e+01    2.8434100095e-03
    7.0098388672e+01    2.8485199437e-03
    7.0198394775e+01    2.8535600286e-03
    7.0298057556e+01    2.8585800901e-03
    7.0399032593e+01    2.8637899086e-03
    7.0498466492e+01    2.8690900654e-03
    7.0599403381e+01    2.8747299220e-03
    7.0698791504e+01    2.8805600014e-03
    7.0798881531e+01    2.8867400251e-03
    7.0898231506e+01    2.8931100387e-03
    7.0999336243e+01    2.8998199850e-03
    7.1098709106e+01    2.9066100251e-03
    7.1198707581e+01    2.9136899393e-03
    7.1299278259e+01    2.9210799839e-03
    7.1398231506e+01    2.9285401106e-03
    7.1498794556e+01    2.9363099020e-03
    7.1598716736e+01    2.9442000668e-03
    7.1697982788e+01    2.9522299301e-03
    7.1798751831e+01    2.9606299940e-03
    7.1897949219e+01    2.9691499658e-03
    7.1998519897e+01    2.9780201148e-03
    7.2098945618e+01    2.9870599974e-03
    7.2199378967e+01    2.9961599503e-03
    7.2298210144e+01    3.0050498899e-03
    7.2398147583e+01    3.0139000155e-03
    7.2498870850e+01    3.0226800591e-03
    7.2598121643e+01    3.0312601011e-03
    7.2698532104e+01    3.0399800744e-03
    7.2799018860e+01    3.0488700140e-03
    7.2898773193e+01    3.0580100138e-03
    7.2997962952e+01    3.0674301088e-03
    7.3098670959e+01    3.0772800092e-03
    7.3199371338e+01    3.0874100048e-03
    7.3298095703e+01    3.0976200942e-03
    7.3398689270e+01    3.1082900241e-03
    7.3498687744e+01    3.1191499438e-03
    7.3597930908e+01    3.1302201096e-03
    7.3698081970e+01    3.1415899284e-03
    7.3798294067e+01    3.1530600972e-03
    7.3898818970e+01    3.1644699629e-03
    7.3999389648e+01    3.1756700482e-03
    7.4098358154e+01    3.1864598859e-03
    7.4198646545e+01    3.1972299330e-03
    7.4297996521e+01    3.2078099903e-03
    7.4398872375e+01    3.2185399905e-03
    7.4498786926e+01    3.2292900141e-03
    7.4598777771e+01    3.2403098885e-03
    7.4698471069e+01    3.2515800558e-03
    7.4799293518e+01    3.2632900402e-03
    7.4898551941e+01    3.2751399558e-03
    7.4998977661e+01    3.2874199096e-03
    7.5099006653e+01    3.2999699470e-03
    7.5198219299e+01    3.3127199858e-03
    7.5298927307e+01    3.3260099590e-03
    7.5399108887e+01    3.3395099454e-03
    7.5498382568e+01    3.3530800138e-03
    7.5598762512e+01    3.3668500837e-03
    7.5699150085e+01    3.3804799896e-03
    7.5798500061e+01    3.3936901018e-03
    7.5898895264e+01    3.4067300148e-03
    7.5999313354e+01    3.4195398912e-03
    7.6099197388e+01    3.4321399871e-03
    7.6198791504e+01    3.4445899073e-03
    7.6298805237e+01    3.4569199197e-03
    7.6399192810e+01    3.4691900946e-03
    7.6499221802e+01    3.4813999664e-03
    7.6598320007e+01    3.4935199656e-03
    7.6698913574e+01    3.5059100483e-03
    7.6799156189e+01    3.5183900036e-03
    7.6899078369e+01    3.5311200190e-03
    7.6998100281e+01    3.5439699423e-03
    7.7098617554e+01    3.5570799373e-03
    7.7199111938e+01    3.5700800363e-03
    7.7298439026e+01    3.5826798994e-03
    7.7398689270e+01    3.5950599704e-03
    7.7498970032e+01    3.6070200149e-03
    7.7599281311e+01    3.6185299978e-03
    7.7698013306e+01    3.6294099409e-03
    7.7798393250e+01    3.6399799865e-03
    7.7898521423e+01    3.6500000861e-03
    7.7999191284e+01    3.6594700068e-03
    7.8098335266e+01    3.6682300270e-03
    7.8197845459e+01    3.6764899269e-03
    7.8298294067e+01    3.6843700800e-03
    7.8398773193e+01    3.6919100676e-03
    7.8499282837e+01    3.6992800888e-03
    7.8598693848e+01    3.7064200733e-03
    7.8699264526e+01    3.7134699523e-03
    7.8798240662e+01    3.7203100510e-03
    7.8898727417e+01    3.7271799520e-03
    7.8998100281e+01    3.7339299452e-03
    7.9099014282e+01    3.7407700438e-03
    7.9198646545e+01    3.7474399433e-03
    7.9299301147e+01    3.7539401092e-03
    7.9398857117e+01    3.7601098884e-03
    7.9498237610e+01    3.7659499794e-03
    7.9598648071e+01    3.7714999635e-03
    7.9699325562e+01    3.7767500617e-03
    7.9798385620e+01    3.7816599943e-03
    7.9899085999e+01    3.7864700425e-03
    7.9998161316e+01    3.7910700776e-03
    8.0098861694e+01    3.7955900189e-03
    8.0197929382e+01    3.7998599000e-03
    8.0298751831e+01    3.8041600492e-03
    8.0398132324e+01    3.8084599655e-03
    8.0499023438e+01    3.8129899185e-03
    8.0598365784e+01    3.8176900707e-03
    8.0699211121e+01    3.8227799814e-03
    8.0798362732e+01    3.8281199522e-03
    8.0899169922e+01    3.8338499144e-03
    8.0998023987e+01    3.8397600874e-03
    8.1099250793e+01    3.8461100776e-03
    8.1198242188e+01    3.8526600692e-03
    8.1298713684e+01    3.8596999366e-03
    8.1399169922e+01    3.8670699578e-03
    8.1498008728e+01    3.8746199571e-03
    8.1599243164e+01    3.8826200180e-03
    8.1698394775e+01    3.8907099515e-03
    8.1799026489e+01    3.8991901092e-03
    8.1898094177e+01    3.9077801630e-03
    8.1998344421e+01    3.9167199284e-03
    8.2098625183e+01    3.9258301258e-03
    8.2198913574e+01    3.9349598810e-03
    8.2299217224e+01    3.9439802058e-03
    8.2397872925e+01    3.9526498877e-03
    8.2498443604e+01    3.9612897672e-03
    8.2598587036e+01    3.9698299952e-03
    8.2698928833e+01    3.9784698747e-03
    8.2799247742e+01    3.9873500355e-03
    8.2898834229e+01    3.9965701289e-03
    8.2997856140e+01    4.0061599575e-03
    8.3098388672e+01    4.0162298828e-03
    8.3198905945e+01    4.0266299620e-03
    8.3298507690e+01    4.0372801013e-03
    8.3398628235e+01    4.0482999757e-03
    8.3498840332e+01    4.0596402250e-03
    8.3598663330e+01    4.0712398477e-03
    8.3698081970e+01    4.0829498321e-03
    8.3798988342e+01    4.0948297828e-03
    8.3897727966e+01    4.1062501259e-03
    8.3998138428e+01    4.1175098158e-03
    8.4098587036e+01    4.1284100153e-03
    8.4198059082e+01    4.1389297694e-03
    8.4298797607e+01    4.1494201869e-03
    8.4398010254e+01    4.1596698575e-03
    8.4498764038e+01    4.1701002046e-03
    8.4597770691e+01    4.1805198416e-03
    8.4698585510e+01    4.1913501918e-03
    8.4797760010e+01    4.2022601701e-03
    8.4898429871e+01    4.2136698030e-03
    8.4998825073e+01    4.2253402062e-03
    8.5098945618e+01    4.2373300530e-03
    8.5198036194e+01    4.2494898662e-03
    8.5298629761e+01    4.2621698231e-03
    8.5398887634e+01    4.2750397697e-03
    8.5498062134e+01    4.2879199609e-03
    8.5598335266e+01    4.3009100482e-03
    8.5698608398e+01    4.3136798777e-03
    8.5798507690e+01    4.3260399252e-03
    8.5898803711e+01    4.3380497955e-03
    8.5999130249e+01    4.3497201987e-03
    8.6098640442e+01    4.3610301800e-03
    8.6199195862e+01    4.3722297996e-03
    8.6298072815e+01    4.3829800561e-03
    8.6398361206e+01    4.3937098235e-03
    8.6498855591e+01    4.4044097885e-03
    8.6597862244e+01    4.4149500318e-03
    8.6698356628e+01    4.4256998226e-03
    8.6798484802e+01    4.4365199283e-03
    8.6898498535e+01    4.4476301409e-03
    8.6998924255e+01    4.4590500183e-03
    8.7097801208e+01    4.4704200700e-03
    8.7198173523e+01    4.4819000177e-03
    8.7298309326e+01    4.4931401499e-03
    8.7398429871e+01    4.5040301047e-03
    8.7498573303e+01    4.5145098120e-03
    8.7598747253e+01    4.5245201327e-03
    8.7698951721e+01    4.5340601355e-03
    8.7799179077e+01    4.5430799946e-03
    8.7897918701e+01    4.5514302328e-03
    8.7998443604e+01    4.5592901297e-03
    8.8098976135e+01    4.5665102080e-03
    8.8198997498e+01    4.5730802231e-03
    8.8297691345e+01    4.5790500008e-03
    8.8398033142e+01    4.5847399160e-03
    8.8498413086e+01    4.5902198181e-03
    8.8597984314e+01    4.5954799280e-03
    8.8698921204e+01    4.6006701887e-03
    8.8797782898e+01    4.6056797728e-03
    8.8898147583e+01    4.6107401140e-03
    8.8998939514e+01    4.6158400364e-03
    8.9098205566e+01    4.6209199354e-03
    8.9199073792e+01    4.6260701492e-03
    8.9297981262e+01    4.6309600584e-03
    8.9398658752e+01    4.6357298270e-03
    8.9497917175e+01    4.6401601285e-03
    8.9598388672e+01    4.6443301253e-03
    8.9698928833e+01    4.6481601894e-03
    8.9797874451e+01    4.6516498551e-03
    8.9898452759e+01    4.6549499966e-03
    8.9999046326e+01    4.6580499038e-03
    9.0098007202e+01    4.6608699486e-03
    9.0198593140e+01    4.6634902246e-03
    9.0298278809e+01    4.6659898944e-03
    9.0399085999e+01    4.6685398556e-03
    9.0498336792e+01    4.6711699106e-03
    9.0599113464e+01    4.6740397811e-03
    9.0698715210e+01    4.6771899797e-03
    9.0798736572e+01    4.6807299368e-03
    9.0897918701e+01    4.6846000478e-03
    9.0998588562e+01    4.6889497899e-03
    9.1097702026e+01    4.6936199069e-03
    9.1198005676e+01    4.6988101676e-03
    9.1298339844e+01    4.7045298852e-03
    9.1398674011e+01    4.7106700949e-03
    9.1498992920e+01    4.7171800397e-03
    9.1599052429e+01    4.7240201384e-03
    9.1698066711e+01    4.7310697846e-03
    9.1798553467e+01    4.7385501675e-03
    9.1898986816e+01    4.7462801449e-03
    9.1997833252e+01    4.7541097738e-03
    9.2097953796e+01    4.7621699050e-03
    9.2198081970e+01    4.7701601870e-03
    9.2298233032e+01    4.7779101878e-03
    9.2398345947e+01    4.7853197902e-03
    9.2498764038e+01    4.7924402170e-03
    9.2598083496e+01    4.7993301414e-03
    9.2699035645e+01    4.8063797876e-03
    9.2797569275e+01    4.8135300167e-03
    9.2897949219e+01    4.8213400878e-03
    9.2998306274e+01    4.8296898603e-03
    9.3098655701e+01    4.8385099508e-03
    9.3198982239e+01    4.8478101380e-03
    9.3298011780e+01    4.8574600369e-03
    9.3397842407e+01    4.8676398583e-03
    9.3499000549e+01    4.8783798702e-03
    9.3598716736e+01    4.8893298954e-03
    9.3699081421e+01    4.9005700275e-03
    9.3797912598e+01    4.9116201699e-03
    9.3897895813e+01    4.9224998802e-03
    9.3998115540e+01    4.9329102039e-03
    9.4098388672e+01    4.9427798949e-03
    9.4197883606e+01    4.9521299079e-03
    9.4298469543e+01    4.9612699077e-03
    9.4397819519e+01    4.9700601958e-03
    9.4498794556e+01    4.9789301120e-03
    9.4598228455e+01    4.9877502024e-03
    9.4699005127e+01    4.9968701787e-03
    9.4798049927e+01    5.0060697831e-03
    9.4898864746e+01    5.0157997757e-03
    9.4997505188e+01    5.0256801769e-03
    9.5098075867e+01    5.0361598842e-03
    9.5198554993e+01    5.0470498390e-03
    9.5299003601e+01    5.0583798438e-03
    9.5397895813e+01    5.0698202103e-03
    9.5498283386e+01    5.0815800205e-03
    9.5597854614e+01    5.0931898877e-03
    9.5697975159e+01    5.1045701839e-03
    9.5798103333e+01    5.1154899411e-03
    9.5898262024e+01    5.1258997992e-03
    9.5998458862e+01    5.1358700730e-03
    9.6098693848e+01    5.1454198547e-03
    9.6197608948e+01    5.1544401795e-03
    9.6298835754e+01    5.1632300019e-03
    9.6399009705e+01    5.1715997979e-03
    9.6497978210e+01    5.1797199994e-03
    9.6598396301e+01    5.1879398525e-03
    9.6698791504e+01    5.1962397993e-03
    9.6798995972e+01    5.2046999335e-03
    9.6899085999e+01    5.2135400474e-03
    9.6997871399e+01    5.2226400003e-03
    9.7098136902e+01    5.2320901304e-03
    9.7198371887e+01    5.2415700629e-03
    9.7298835754e+01    5.2509801462e-03
    9.7398796082e+01    5.2601201460e-03
    9.7498764038e+01    5.2689597942e-03
    9.7598762512e+01    5.2774399519e-03
    9.7698776245e+01    5.2854600362e-03
    9.7798820496e+01    5.2929199301e-03
    9.7897666931e+01    5.2996701561e-03
    9.7998001099e+01    5.3057898767e-03
    9.8098442078e+01    5.3111598827e-03
    9.8198554993e+01    5.3158299997e-03
    9.8298698425e+01    5.3199301474e-03
    9.8398887634e+01    5.3235800005e-03
    9.8497497559e+01    5.3269099444e-03
    9.8597778320e+01    5.3300601430e-03
    9.8698692322e+01    5.3330599330e-03
    9.8799034119e+01    5.3360299207e-03
    9.8898605347e+01    5.3390800022e-03
    9.8997726440e+01    5.3423200734e-03
    9.9098381042e+01    5.3458600305e-03
    9.9198158264e+01    5.3495201282e-03
    9.9297866821e+01    5.3531299345e-03
    9.9398483276e+01    5.3566298448e-03
    9.9497573853e+01    5.3598899394e-03
    9.9599006653e+01    5.3629800677e-03
    9.9697753906e+01    5.3657200187e-03
    9.9798133850e+01    5.3682201542e-03
    9.9898544312e+01    5.3704199381e-03
    9.9998962402e+01    5.3722900338e-03
    1.0009777832e+02    5.3737498820e-03
    1.0019821167e+02    5.3748497739e-03
    1.0029888916e+02    5.3757401183e-03
    1.0039781952e+02    5.3765899502e-03
    1.0049822998e+02    5.3774998523e-03
    1.0059887695e+02    5.3785601631e-03
    1.0069798279e+02    5.3798500448e-03
    1.0079834747e+02    5.3815301508e-03
    1.0089894104e+02    5.3836000152e-03
    1.0099797058e+02    5.3861001506e-03
    1.0109847260e+02    5.3891399875e-03
    1.0119817352e+02    5.3927898407e-03
    1.0129834747e+02    5.3971800953e-03
    1.0139852905e+02    5.4021598771e-03
    1.0149870300e+02    5.4076001979e-03
    1.0159868622e+02    5.4134298116e-03
    1.0169754028e+02    5.4195099510e-03
    1.0179785156e+02    5.4260198958e-03
    1.0189808655e+02    5.4327999242e-03
    1.0199855042e+02    5.4398099892e-03
    1.0209848785e+02    5.4468400776e-03
    1.0219844055e+02    5.4536499083e-03
    1.0229840851e+02    5.4600401781e-03
    1.0239816284e+02    5.4658399895e-03
    1.0249878693e+02    5.4711401463e-03
    1.0259880066e+02    5.4761199281e-03
    1.0269789124e+02    5.4810200818e-03
    1.0279759979e+02    5.4862899706e-03
    1.0289856720e+02    5.4922900163e-03
    1.0299875641e+02    5.4989699274e-03
    1.0309892273e+02    5.5062901229e-03
    1.0319754028e+02    5.5141299963e-03
    1.0329884338e+02    5.5228602141e-03
    1.0339807892e+02    5.5320300162e-03
    1.0349862671e+02    5.5419099517e-03
    1.0359784698e+02    5.5521898903e-03
    1.0369799042e+02    5.5629201233e-03
    1.0379820251e+02    5.5737099610e-03
    1.0389814758e+02    5.5841701105e-03
    1.0399816132e+02    5.5940099992e-03
    1.0409822845e+02    5.6031597778e-03
    1.0419790649e+02    5.6116799824e-03
    1.0429830170e+02    5.6198099628e-03
    1.0439785767e+02    5.6274901144e-03
    1.0449749756e+02    5.6349798106e-03
    1.0459821320e+02    5.6425300427e-03
    1.0469891357e+02    5.6501599029e-03
    1.0479779816e+02    5.6578801014e-03
    1.0489872742e+02    5.6661400013e-03
    1.0499881744e+02    5.6747901253e-03
    1.0509835815e+02    5.6839501485e-03
    1.0519866180e+02    5.6937998161e-03
    1.0529892731e+02    5.7042897679e-03
    1.0539762878e+02    5.7150200009e-03
    1.0549781036e+02    5.7261399925e-03
    1.0559812164e+02    5.7372599840e-03
    1.0569802856e+02    5.7480600663e-03
    1.0579797363e+02    5.7583600283e-03
    1.0589794159e+02    5.7680997998e-03
    1.0599794769e+02    5.7773101144e-03
    1.0609821320e+02    5.7859700173e-03
    1.0619876862e+02    5.7940199040e-03
    1.0629879761e+02    5.8013699017e-03
    1.0639884186e+02    5.8081899770e-03
    1.0649861145e+02    5.8147399686e-03
    1.0659890747e+02    5.8212601580e-03
    1.0669764709e+02    5.8277398348e-03
    1.0679782104e+02    5.8345501311e-03
    1.0689777374e+02    5.8418000117e-03
    1.0699813080e+02    5.8495597914e-03
    1.0709822845e+02    5.8575901203e-03
    1.0719830322e+02    5.8657801710e-03
    1.0729747772e+02    5.8739301749e-03
    1.0739781952e+02    5.8821500279e-03
    1.0749749756e+02    5.8902101591e-03
    1.0759887695e+02    5.8982297778e-03
    1.0769866943e+02    5.9057897888e-03
    1.0779847717e+02    5.9128301218e-03
    1.0789862061e+02    5.9192199260e-03
    1.0799873352e+02    5.9247701429e-03
    1.0809854889e+02    5.9294500388e-03
    1.0819844818e+02    5.9333699755e-03
    1.0829839325e+02    5.9366198257e-03
    1.0839837646e+02    5.9393597767e-03
    1.0849842834e+02    5.9417798184e-03
    1.0859854126e+02    5.9439199977e-03
    1.0869870758e+02    5.9458501637e-03
    1.0879804230e+02    5.9477798641e-03
    1.0889849854e+02    5.9499097988e-03
    1.0899745178e+02    5.9523601085e-03
    1.0909792328e+02    5.9553198516e-03
    1.0919837952e+02    5.9586400166e-03
    1.0929881287e+02    5.9620998800e-03
    1.0939768982e+02    5.9655001387e-03
    1.0949806976e+02    5.9688701294e-03
    1.0959860992e+02    5.9720799327e-03
    1.0969873810e+02    5.9750401415e-03
    1.0979888916e+02    5.9776999988e-03
    1.0989743805e+02    5.9800199233e-03
    1.0999764252e+02    5.9819701128e-03
    1.1009784698e+02    5.9834201820e-03
    1.1019806671e+02    5.9843198396e-03
    1.1029750061e+02    5.9848502278e-03
    1.1039803314e+02    5.9852101840e-03
    1.1049826050e+02    5.9855100699e-03
    1.1059835052e+02    5.9858299792e-03
    1.1069815826e+02    5.9863198549e-03
    1.1079779816e+02    5.9871198609e-03
    1.1089824677e+02    5.9882700443e-03
    1.1099864960e+02    5.9898900799e-03
    1.1109748840e+02    5.9920400381e-03
    1.1119779205e+02    5.9950100258e-03
    1.1129824066e+02    5.9989402071e-03
    1.1139797211e+02    6.0036499053e-03
    1.1149794006e+02    6.0089998879e-03
    1.1159764862e+02    6.0148099437e-03
    1.1169780731e+02    6.0210600495e-03
    1.1179788971e+02    6.0277199373e-03
    1.1189791107e+02    6.0347099788e-03
    1.1199832153e+02    6.0419598594e-03
    1.1209802246e+02    6.0491701588e-03
    1.1219774628e+02    6.0560298152e-03
    1.1229752350e+02    6.0622100718e-03
    1.1239769745e+02    6.0675297864e-03
    1.1249874878e+02    6.0719898902e-03
    1.1259858704e+02    6.0757999308e-03
    1.1269844055e+02    6.0793901794e-03
    1.1279827118e+02    6.0832700692e-03
    1.1289792633e+02    6.0878898948e-03
    1.1299793243e+02    6.0933600180e-03
    1.1309790802e+02    6.0996399261e-03
    1.1319786072e+02    6.1067701317e-03
    1.1329754639e+02    6.1147902161e-03
    1.1339761353e+02    6.1237402260e-03
    1.1349858856e+02    6.1336997896e-03
    1.1359841156e+02    6.1444300227e-03
    1.1369828033e+02    6.1558401212e-03
    1.1379739380e+02    6.1674499884e-03
    1.1389837646e+02    6.1790798791e-03
    1.1399813080e+02    6.1899102293e-03
    1.1409793854e+02    6.1999298632e-03
    1.1419764709e+02    6.2092100270e-03
    1.1429779816e+02    6.2179500237e-03
    1.1439766693e+02    6.2260897830e-03
    1.1449852753e+02    6.2338998541e-03
    1.1459780121e+02    6.2413699925e-03
    1.1469750977e+02    6.2487800606e-03
    1.1479772949e+02    6.2563298270e-03
    1.1489826202e+02    6.2642698176e-03
    1.1499815369e+02    6.2726899050e-03
    1.1509851837e+02    6.2818801962e-03
    1.1519860077e+02    6.2919300981e-03
    1.1529863739e+02    6.3029401936e-03
    1.1539862061e+02    6.3146101311e-03
    1.1549854279e+02    6.3267098740e-03
    1.1559774780e+02    6.3389400020e-03
    1.1569737244e+02    6.3511100598e-03
    1.1579863739e+02    6.3631199300e-03
    1.1589833832e+02    6.3744499348e-03
    1.1599809265e+02    6.3852597959e-03
    1.1609742737e+02    6.3953399658e-03
    1.1619766235e+02    6.4046401531e-03
    1.1629746246e+02    6.4129200764e-03
    1.1639727783e+02    6.4203902148e-03
    1.1649874878e+02    6.4274501055e-03
    1.1659828186e+02    6.4341500401e-03
    1.1669835663e+02    6.4408001490e-03
    1.1679872894e+02    6.4475899562e-03
    1.1689813232e+02    6.4547499642e-03
    1.1699812317e+02    6.4624198712e-03
    1.1709803772e+02    6.4704399556e-03
    1.1719789886e+02    6.4787599258e-03
    1.1729772186e+02    6.4873402007e-03
    1.1739749146e+02    6.4961598255e-03
    1.1749807739e+02    6.5052499995e-03
    1.1759757233e+02    6.5143601969e-03
    1.1769866943e+02    6.5235202201e-03
    1.1779818726e+02    6.5321498550e-03
    1.1789737701e+02    6.5401201136e-03
    1.1799870300e+02    6.5473797731e-03
    1.1809850311e+02    6.5535698086e-03
    1.1819811249e+02    6.5588201396e-03
    1.1829779816e+02    6.5632499754e-03
    1.1839755249e+02    6.5669901669e-03
    1.1849736786e+02    6.5702600405e-03
    1.1859726715e+02    6.5730898641e-03
    1.1869722748e+02    6.5755899996e-03
    1.1879788971e+02    6.5780798905e-03
    1.1889816284e+02    6.5807499923e-03
    1.1899844360e+02    6.5838498995e-03
    1.1909870911e+02    6.5875700675e-03
    1.1919743347e+02    6.5917801112e-03
    1.1929763031e+02    6.5963799134e-03
    1.1939778137e+02    6.6011701711e-03
    1.1949787140e+02    6.6061299294e-03
    1.1959718323e+02    6.6110999323e-03
    1.1969860840e+02    6.6161002032e-03
    1.1979844666e+02    6.6208601929e-03
    1.1989830780e+02    6.6253500991e-03
    1.1999819946e+02    6.6294302233e-03
    1.2009810638e+02    6.6329301335e-03
    1.2019803619e+02    6.6357399337e-03
    1.2029746246e+02    6.6380100325e-03
    1.2039837646e+02    6.6399797797e-03
    1.2049838257e+02    6.6416398622e-03
    1.2059731293e+02    6.6430601291e-03
    1.2069747925e+02    6.6444198601e-03
    1.2079750824e+02    6.6458899528e-03
    1.2089788055e+02    6.6475900821e-03
    1.2099810791e+02    6.6496799700e-03
    1.2109828949e+02    6.6523500718e-03
    1.2119840240e+02    6.6559300758e-03
    1.2129788971e+02    6.6606397741e-03
    1.2139817047e+02    6.6664200276e-03
    1.2149790955e+02    6.6729597747e-03
    1.2159729004e+02    6.6801197827e-03
    1.2169869995e+02    6.6880001687e-03
    1.2179850769e+02    6.6963299178e-03
    1.2189823914e+02    6.7051202059e-03
    1.2199845123e+02    6.7142401822e-03
    1.2209786987e+02    6.7232698202e-03
    1.2219731903e+02    6.7317900248e-03
    1.2229843140e+02    6.7395200022e-03
    1.2239797974e+02    6.7459498532e-03
    1.2249756622e+02    6.7512001842e-03
    1.2259719849e+02    6.7555801943e-03
    1.2269846344e+02    6.7595499568e-03
    1.2279811096e+02    6.7635900341e-03
    1.2289813995e+02    6.7683202215e-03
    1.2299794769e+02    6.7738401704e-03
    1.2309818268e+02    6.7802798003e-03
    1.2319792175e+02    6.7877499387e-03
    1.2329759979e+02    6.7964000627e-03
    1.2339721680e+02    6.8062799983e-03
    1.2349726105e+02    6.8174600601e-03
    1.2359774017e+02    6.8299500272e-03
    1.2369730377e+02    6.8433298729e-03
    1.2379833984e+02    6.8575497717e-03
    1.2389852142e+02    6.8716998212e-03
    1.2399794006e+02    6.8852901459e-03
    1.2409837341e+02    6.8982900120e-03
    1.2419815826e+02    6.9104698487e-03
    1.2429711914e+02    6.9218701683e-03
    1.2439836121e+02    6.9327498786e-03
    1.2449759674e+02    6.9427201524e-03
    1.2459809875e+02    6.9522899576e-03
    1.2469780731e+02    6.9614402018e-03
    1.2479802704e+02    6.9705802016e-03
    1.2489716339e+02    6.9798398763e-03
    1.2499838257e+02    6.9897500798e-03
    1.2509752655e+02    7.0001902059e-03
    1.2519734955e+02    7.0116799325e-03
    1.2529862213e+02    7.0245498791e-03
    1.2539830780e+02    7.0381299593e-03
    1.2549793243e+02    7.0524001494e-03
    1.2559748840e+02    7.0672198199e-03
    1.2569809723e+02    7.0824101567e-03
    1.2579741669e+02    7.0973797701e-03
    1.2589839172e+02    7.1123200469e-03
    1.2599781036e+02    7.1266600862e-03
    1.2609860229e+02    7.1405097842e-03
    1.2619831085e+02    7.1532102302e-03
    1.2629731750e+02    7.1646198630e-03
    1.2639843750e+02    7.1751698852e-03
    1.2649800873e+02    7.1847201325e-03
    1.2659857941e+02    7.1937600151e-03
    1.2669841766e+02    7.2022299282e-03
    1.2679750061e+02    7.2103599086e-03
    1.2689707184e+02    7.2186198086e-03
    1.2699855804e+02    7.2272601537e-03
    1.2709826660e+02    7.2359498590e-03
    1.2719792938e+02    7.2448998690e-03
    1.2729753876e+02    7.2542498820e-03
    1.2739856720e+02    7.2642602026e-03
    1.2749803925e+02    7.2746700607e-03
    1.2759748077e+02    7.2856699117e-03
    1.2769715118e+02    7.2970301844e-03
    1.2779794312e+02    7.3085199110e-03
    1.2789859772e+02    7.3196599260e-03
    1.2799804688e+02    7.3300199583e-03
    1.2809729004e+02    7.3394901119e-03
    1.2819816589e+02    7.3481001891e-03
    1.2829751587e+02    7.3555600829e-03
    1.2839854431e+02    7.3621901684e-03
    1.2849806213e+02    7.3679601774e-03
    1.2859768677e+02    7.3729897849e-03
    1.2869737244e+02    7.3773497716e-03
    1.2879791260e+02    7.3814298958e-03
    1.2889794922e+02    7.3854499497e-03
    1.2899801636e+02    7.3897899128e-03
    1.2909805298e+02    7.3947398923e-03
    1.2919807434e+02    7.4003399350e-03
    1.2929803467e+02    7.4064298533e-03
    1.2939791870e+02    7.4129598215e-03
    1.2949772644e+02    7.4200001545e-03
    1.2959745789e+02    7.4275000952e-03
    1.2969772339e+02    7.4353399687e-03
    1.2979719543e+02    7.4432799593e-03
    1.2989828491e+02    7.4513601139e-03
    1.2999778748e+02    7.4590798467e-03
    1.3009729004e+02    7.4662799016e-03
    1.3019845581e+02    7.4728401378e-03
    1.3029803467e+02    7.4785901234e-03
    1.3039767456e+02    7.4837598950e-03
    1.3049737549e+02    7.4883201160e-03
    1.3059793091e+02    7.4923001230e-03
    1.3069831848e+02    7.4957897887e-03
    1.3079812622e+02    7.4989898130e-03
    1.3089779663e+02    7.5020999648e-03
    1.3099781799e+02    7.5053800829e-03
    1.3109779358e+02    7.5091300532e-03
    1.3119770813e+02    7.5138099492e-03
    1.3129783630e+02    7.5198002160e-03
    1.3139874268e+02    7.5271199457e-03
    1.3149824524e+02    7.5353500433e-03
    1.3159841919e+02    7.5445198454e-03
    1.3169802856e+02    7.5544398278e-03
    1.3179753113e+02    7.5651397929e-03
    1.3189843750e+02    7.5767198578e-03
    1.3199801636e+02    7.5886701234e-03
    1.3209866333e+02    7.6008602045e-03
    1.3219776917e+02    7.6123401523e-03
    1.3229852295e+02    7.6229101978e-03
    1.3239776611e+02    7.6318900101e-03
    1.3249865723e+02    7.6394700445e-03
    1.3259802246e+02    7.6457201503e-03
    1.3269741821e+02    7.6511898078e-03
    1.3279843140e+02    7.6566198841e-03
    1.3289776611e+02    7.6624201611e-03
    1.3299734497e+02    7.6688500121e-03
    1.3309744263e+02    7.6760700904e-03
    1.3319845581e+02    7.6844999567e-03
    1.3329789734e+02    7.6941098087e-03
    1.3339875793e+02    7.7053401619e-03
    1.3349804688e+02    7.7179400250e-03
    1.3359878540e+02    7.7323201112e-03
    1.3369798279e+02    7.7478801832e-03
    1.3379864502e+02    7.7646798454e-03
    1.3389779663e+02    7.7816699632e-03
    1.3399839783e+02    7.7988198027e-03
    1.3409788513e+02    7.8153302893e-03
    1.3419876099e+02    7.8315697610e-03
    1.3429833984e+02    7.8470204026e-03
    1.3439755249e+02    7.8616198152e-03
    1.3449792480e+02    7.8755300492e-03
    1.3459765625e+02    7.8885704279e-03
    1.3469857788e+02    7.9011302441e-03
    1.3479898071e+02    7.9132895917e-03
    1.3489746094e+02    7.9251499847e-03
    1.3499833679e+02    7.9374704510e-03
    1.3509762573e+02    7.9501196742e-03
    1.3519865417e+02    7.9638399184e-03
    1.3529809570e+02    7.9784700647e-03
    1.3539900208e+02    7.9942699522e-03
    1.3549830627e+02    8.0106202513e-03
    1.3559901428e+02    8.0280099064e-03
    1.3569825745e+02    8.0457199365e-03
    1.3579881287e+02    8.0640697852e-03
    1.3589782715e+02    8.0822696909e-03
    1.3599882507e+02    8.1007899716e-03
    1.3609780884e+02    8.1184301525e-03
    1.3619860840e+02    8.1354398280e-03
    1.3629872131e+02    8.1510897726e-03
    1.3639782715e+02    8.1653902307e-03
    1.3649859619e+02    8.1788804382e-03
    1.3659780884e+02    8.1912698224e-03
    1.3669842529e+02    8.2028498873e-03
    1.3679768372e+02    8.2134297118e-03
    1.3689859009e+02    8.2236900926e-03
    1.3699830627e+02    8.2334801555e-03
    1.3709779358e+02    8.2429796457e-03
    1.3719877625e+02    8.2526002079e-03
    1.3729818726e+02    8.2623595372e-03
    1.3739898682e+02    8.2728499547e-03
    1.3749821472e+02    8.2839699462e-03
    1.3759890747e+02    8.2962000743e-03
    1.3769900513e+02    8.3091203123e-03
    1.3779789734e+02    8.3223404363e-03
    1.3789869690e+02    8.3359098062e-03
    1.3799778748e+02    8.3489799872e-03
    1.3809777832e+02    8.3615798503e-03
    1.3819825745e+02    8.3733499050e-03
    1.3829881287e+02    8.3841197193e-03
    1.3839785767e+02    8.3937002346e-03
    1.3849859619e+02    8.4025198594e-03
    1.3859786987e+02    8.4102097899e-03
    1.3869885254e+02    8.4170503542e-03
    1.3879890442e+02    8.4231700748e-03
    1.3889868164e+02    8.4288604558e-03
    1.3899847412e+02    8.4345601499e-03
    1.3909825134e+02    8.4406295791e-03
    1.3919912720e+02    8.4472596645e-03
    1.3929815674e+02    8.4542604163e-03
    1.3939779663e+02    8.4618097171e-03
    1.3949882507e+02    8.4702400491e-03
    1.3959825134e+02    8.4793595597e-03
    1.3969923401e+02    8.4893098101e-03
    1.3979832458e+02    8.4995999932e-03
    1.3989828491e+02    8.5103800520e-03
    1.3999815369e+02    8.5212895647e-03
    1.4009883118e+02    8.5321404040e-03
    1.4019793701e+02    8.5423802957e-03
    1.4029869080e+02    8.5522197187e-03
    1.4039790344e+02    8.5613103583e-03
    1.4049880981e+02    8.5697602481e-03
    1.4059927368e+02    8.5772396997e-03
    1.4069894409e+02    8.5837999359e-03
    1.4079841614e+02    8.5896402597e-03
    1.4089863586e+02    8.5950298235e-03
    1.4099836731e+02    8.6001502350e-03
    1.4109806824e+02    8.6054401472e-03
    1.4119786072e+02    8.6114397272e-03
    1.4129887390e+02    8.6186695844e-03
    1.4139828491e+02    8.6269397289e-03
    1.4149916077e+02    8.6363395676e-03
    1.4159887695e+02    8.6465599015e-03
    1.4169822693e+02    8.6576296017e-03
    1.4179895020e+02    8.6698196828e-03
    1.4189804077e+02    8.6827799678e-03
    1.4199853516e+02    8.6967702955e-03
    1.4209884644e+02    8.7112197652e-03
    1.4219917297e+02    8.7254401296e-03
    1.4229794312e+02    8.7385503575e-03
    1.4239839172e+02    8.7505197152e-03
    1.4249891663e+02    8.7609095499e-03
    1.4259791565e+02    8.7698502466e-03
    1.4269854736e+02    8.7779704481e-03
    1.4279920959e+02    8.7857497856e-03
    1.4289848328e+02    8.7935803458e-03
    1.4299862671e+02    8.8017098606e-03
    1.4309934998e+02    8.8102901354e-03
    1.4319859314e+02    8.8195698336e-03
    1.4329930115e+02    8.8300798088e-03
    1.4339839172e+02    8.8417101651e-03
    1.4349890137e+02    8.8549703360e-03
    1.4359933472e+02    8.8698500767e-03
    1.4369821167e+02    8.8860299438e-03
    1.4379852295e+02    8.9037502185e-03
    1.4389805603e+02    8.9221596718e-03
    1.4399826050e+02    8.9411297813e-03
    1.4409875488e+02    8.9602498338e-03
    1.4419917297e+02    8.9793698862e-03
    1.4429875183e+02    8.9981900528e-03
    1.4439907837e+02    9.0166097507e-03
    1.4449894714e+02    9.0342303738e-03
    1.4459950256e+02    9.0511804447e-03
    1.4469831848e+02    9.0670995414e-03
    1.4479878235e+02    9.0827001259e-03
    1.4489920044e+02    9.0978601947e-03
    1.4499963379e+02    9.1127902269e-03
    1.4509945679e+02    9.1276597232e-03
    1.4519860840e+02    9.1427396983e-03
    1.4529924011e+02    9.1586401686e-03
    1.4539834595e+02    9.1747799888e-03
    1.4549887085e+02    9.1916602105e-03
    1.4559930420e+02    9.2091998085e-03
    1.4569920349e+02    9.2273196205e-03
    1.4579946899e+02    9.2462198809e-03
    1.4589816284e+02    9.2653296888e-03
    1.4599911499e+02    9.2851901427e-03
    1.4609951782e+02    9.3047702685e-03
    1.4619841003e+02    9.3234395608e-03
    1.4629905701e+02    9.3415202573e-03
    1.4639930725e+02    9.3585699797e-03
    1.4649961853e+02    9.3747898936e-03
    1.4659840393e+02    9.3899304047e-03
    1.4669885254e+02    9.4041395932e-03
    1.4679937744e+02    9.4170300290e-03
    1.4689836121e+02    9.4285495579e-03
    1.4699847412e+02    9.4390800223e-03
    1.4709924316e+02    9.4486102462e-03
    1.4719940186e+02    9.4573795795e-03
    1.4729922485e+02    9.4659300521e-03
    1.4739837646e+02    9.4746695831e-03
    1.4749894714e+02    9.4841895625e-03
    1.4759947205e+02    9.4946697354e-03
    1.4769845581e+02    9.5059499145e-03
    1.4779876709e+02    9.5181697980e-03
    1.4789859009e+02    9.5308497548e-03
    1.4799894714e+02    9.5437597483e-03
    1.4809941101e+02    9.5565300435e-03
    1.4819955444e+02    9.5688002184e-03
    1.4829977417e+02    9.5804501325e-03
    1.4839848328e+02    9.5912199467e-03
    1.4849884033e+02    9.6014300361e-03
    1.4859930420e+02    9.6107702702e-03
    1.4869830322e+02    9.6190301701e-03
    1.4879846191e+02    9.6266204491e-03
    1.4889938354e+02    9.6336202696e-03
    1.4899882507e+02    9.6402298659e-03
    1.4909979248e+02    9.6469298005e-03
    1.4919975281e+02    9.6537396312e-03
    1.4929914856e+02    9.6607198939e-03
    1.4939851379e+02    9.6679702401e-03
    1.4949926758e+02    9.6759498119e-03
    1.4959843445e+02    9.6846101806e-03
    1.4969902039e+02    9.6942000091e-03
    1.4979867554e+02    9.7044203430e-03
    1.4989886475e+02    9.7153401002e-03
    1.4999931335e+02    9.7268400714e-03
    1.5009977722e+02    9.7386902198e-03
    1.5019847107e+02    9.7504099831e-03
    1.5029879761e+02    9.7622396424e-03
    1.5039918518e+02    9.7738699988e-03
    1.5049966431e+02    9.7849899903e-03
    1.5059939575e+02    9.7952298820e-03
    1.5069918823e+02    9.8045701161e-03
    1.5079981995e+02    9.8131299019e-03
    1.5089997864e+02    9.8208403215e-03
    1.5099931335e+02    9.8278801888e-03
    1.5109934998e+02    9.8347403109e-03
    1.5119996643e+02    9.8419701681e-03
    1.5129995728e+02    9.8498901352e-03
    1.5139897156e+02    9.8584601656e-03
    1.5149957275e+02    9.8677901551e-03
    1.5159933472e+02    9.8776295781e-03
    1.5169995117e+02    9.8881702870e-03
    1.5179896545e+02    9.8992902786e-03
    1.5189933777e+02    9.9115297198e-03
    1.5199894714e+02    9.9246799946e-03
    1.5209901428e+02    9.9387504160e-03
    1.5219906616e+02    9.9531197920e-03
    1.5229910278e+02    9.9670998752e-03
    1.5239918518e+02    9.9801104516e-03
    1.5249934387e+02    9.9918600172e-03
    1.5259996033e+02    1.0002600029e-02
    1.5269964600e+02    1.0012400337e-02
    1.5279988098e+02    1.0022000410e-02
    1.5289854431e+02    1.0031599551e-02
    1.5299879456e+02    1.0041199625e-02
    1.5309999084e+02    1.0050900280e-02
    1.5319888306e+02    1.0060699657e-02
    1.5329927063e+02    1.0071099736e-02
    1.5339959717e+02    1.0082099587e-02
    1.5349984741e+02    1.0094000027e-02
    1.5360000610e+02    1.0107100010e-02
    1.5370013428e+02    1.0121399537e-02
    1.5379870605e+02    1.0136799887e-02
    1.5389900208e+02    1.0153199546e-02
    1.5399894714e+02    1.0170299560e-02
    1.5409877014e+02    1.0187899694e-02
    1.5419885254e+02    1.0206099600e-02
    1.5430000305e+02    1.0224999860e-02
    1.5439991760e+02    1.0243799537e-02
    1.5449903870e+02    1.0262300260e-02
    1.5459910583e+02    1.0280700400e-02
    1.5469914246e+02    1.0298600420e-02
    1.5479963684e+02    1.0316099972e-02
    1.5489950562e+02    1.0332800448e-02
    1.5499943542e+02    1.0349100456e-02
    1.5509944153e+02    1.0365200229e-02
    1.5519898987e+02    1.0380900465e-02
    1.5529997253e+02    1.0396700352e-02
    1.5539918518e+02    1.0411899537e-02
    1.5549945068e+02    1.0427000001e-02
    1.5559965515e+02    1.0442100465e-02
    1.5570025635e+02    1.0457499884e-02
    1.5580029297e+02    1.0473500006e-02
    1.5589877319e+02    1.0489800014e-02
    1.5600025940e+02    1.0506999679e-02
    1.5609890747e+02    1.0523700155e-02
    1.5619900513e+02    1.0540200397e-02
    1.5629908752e+02    1.0556099936e-02
    1.5639903259e+02    1.0571500286e-02
    1.5649899292e+02    1.0586599819e-02
    1.5659899902e+02    1.0601500049e-02
    1.5669908142e+02    1.0615699925e-02
    1.5679924011e+02    1.0628700256e-02
    1.5689950562e+02    1.0640400462e-02
    1.5699934387e+02    1.0650300421e-02
    1.5710032654e+02    1.0658700019e-02
    1.5719912720e+02    1.0665600188e-02
    1.5729968262e+02    1.0671899654e-02
    1.5740020752e+02    1.0677999817e-02
    1.5749914551e+02    1.0684099980e-02
    1.5759956360e+02    1.0690899566e-02
    1.5769993591e+02    1.0698200203e-02
    1.5779942322e+02    1.0706000030e-02
    1.5789971924e+02    1.0714299977e-02
    1.5799995422e+02    1.0722800158e-02
    1.5809956360e+02    1.0731300339e-02
    1.5819956970e+02    1.0739799589e-02
    1.5829960632e+02    1.0748200119e-02
    1.5839968872e+02    1.0756500065e-02
    1.5849981689e+02    1.0764500126e-02
    1.5860000610e+02    1.0772200301e-02
    1.5870027161e+02    1.0779400356e-02
    1.5880015564e+02    1.0786299594e-02
    1.5889923096e+02    1.0792899877e-02
    1.5899980164e+02    1.0799500160e-02
    1.5910035706e+02    1.0805999860e-02
    1.5919900513e+02    1.0812399909e-02
    1.5929942322e+02    1.0818899609e-02
    1.5939929199e+02    1.0825200006e-02
    1.5949974060e+02    1.0831800289e-02
    1.5960011292e+02    1.0838800110e-02
    1.5970042419e+02    1.0846200399e-02
    1.5980018616e+02    1.0854000226e-02
    1.5990005493e+02    1.0862399824e-02
    1.6000022888e+02    1.0871299542e-02
    1.6009919739e+02    1.0880599730e-02
    1.6019912720e+02    1.0890600272e-02
    1.6029908752e+02    1.0901100002e-02
    1.6039910889e+02    1.0912099853e-02
    1.6049917603e+02    1.0923200287e-02
    1.6059915161e+02    1.0934099555e-02
    1.6069943237e+02    1.0944499634e-02
    1.6079946899e+02    1.0954500176e-02
    1.6089927673e+02    1.0963800363e-02
    1.6099958801e+02    1.0972499847e-02
    1.6110003662e+02    1.0980799794e-02
    1.6120013428e+02    1.0989099741e-02
    1.6130024719e+02    1.0997599922e-02
    1.6140043640e+02    1.1006300338e-02
    1.6150065613e+02    1.1014900170e-02
    1.6159942627e+02    1.1023200117e-02
    1.6169978333e+02    1.1031599715e-02
    1.6180007935e+02    1.1040099896e-02
    1.6190029907e+02    1.1049100198e-02
    1.6200051880e+02    1.1059000157e-02
    1.6210043335e+02    1.1069799773e-02
    1.6220031738e+02    1.1081200093e-02
    1.6230015564e+02    1.1092600413e-02
    1.6239999390e+02    1.1103499681e-02
    1.6249986267e+02    1.1113500223e-02
    1.6259930420e+02    1.1122900061e-02
    1.6269935608e+02    1.1132099666e-02
    1.6279985046e+02    1.1141300201e-02
    1.6289970398e+02    1.1150600389e-02
    1.6299955750e+02    1.1159899645e-02
    1.6309941101e+02    1.1168800294e-02
    1.6319981384e+02    1.1177600361e-02
    1.6329983521e+02    1.1186299846e-02
    1.6339987183e+02    1.1194899678e-02
    1.6349986267e+02    1.1203800328e-02
    1.6359982300e+02    1.1213200167e-02
    1.6369973755e+02    1.1223400012e-02
    1.6379962158e+02    1.1234300211e-02
    1.6389929199e+02    1.1245699599e-02
    1.6400065613e+02    1.1257899925e-02
    1.6410052490e+02    1.1270600371e-02
    1.6420043945e+02    1.1284099892e-02
    1.6429942322e+02    1.1298400350e-02
    1.6440066528e+02    1.1313499883e-02
    1.6450042725e+02    1.1328799650e-02
    1.6460017395e+02    1.1344200000e-02
    1.6469987488e+02    1.1359400116e-02
    1.6480012512e+02    1.1374499649e-02
    1.6489959717e+02    1.1389099993e-02
    1.6500065613e+02    1.1403599754e-02
    1.6510021973e+02    1.1417699978e-02
    1.6519970703e+02    1.1431399733e-02
    1.6529983521e+02    1.1444600299e-02
    1.6540072632e+02    1.1456999928e-02
    1.6550067139e+02    1.1468299665e-02
    1.6560058594e+02    1.1479199864e-02
    1.6570019531e+02    1.1489800178e-02
    1.6580000305e+02    1.1500800028e-02
    1.6589987183e+02    1.1512200348e-02
    1.6600013733e+02    1.1523599736e-02
    1.6610011292e+02    1.1534799822e-02
    1.6620004272e+02    1.1545100249e-02
    1.6629995728e+02    1.1554700322e-02
    1.6640086365e+02    1.1564100161e-02
    1.6650065613e+02    1.1573599651e-02
    1.6660049438e+02    1.1583499610e-02
    1.6670036316e+02    1.1593500152e-02
    1.6680029297e+02    1.1602800339e-02
    1.6690032959e+02    1.1610999703e-02
    1.6700076294e+02    1.1617699638e-02
    1.6710057068e+02    1.1622799560e-02
    1.6720074463e+02    1.1626600288e-02
    1.6730024719e+02    1.1629500426e-02
    1.6740055847e+02    1.1632000096e-02
    1.6750079346e+02    1.1634400114e-02
    1.6759953308e+02    1.1636800133e-02
    1.6769953918e+02    1.1639200151e-02
    1.6780090332e+02    1.1641499586e-02
    1.6789959717e+02    1.1643799953e-02
    1.6800062561e+02    1.1645900086e-02
    1.6810060120e+02    1.1648000218e-02
    1.6820057678e+02    1.1649999768e-02
    1.6830056763e+02    1.1652099900e-02
    1.6840060425e+02    1.1654299684e-02
    1.6850028992e+02    1.1656600051e-02
    1.6860011292e+02    1.1659200303e-02
    1.6870019531e+02    1.1661999859e-02
    1.6880055237e+02    1.1665299535e-02
    1.6890081787e+02    1.1669199914e-02
    1.6900103760e+02    1.1673600413e-02
    1.6909970093e+02    1.1678500101e-02
    1.6920062256e+02    1.1683699675e-02
    1.6930059814e+02    1.1689100415e-02
    1.6940103149e+02    1.1694500223e-02
    1.6950102234e+02    1.1699999683e-02
    1.6960066223e+02    1.1705500074e-02
    1.6970060730e+02    1.1710899882e-02
    1.6980050659e+02    1.1716200039e-02
    1.6990025330e+02    1.1721299961e-02
    1.7000094604e+02    1.1726600118e-02
    1.7010078430e+02    1.1732099578e-02
    1.7020089722e+02    1.1738000438e-02
    1.7030055237e+02    1.1744599789e-02
    1.7040023804e+02    1.1751900427e-02
    1.7049996948e+02    1.1759899557e-02
    1.7059971619e+02    1.1768200435e-02
    1.7070010376e+02    1.1776699685e-02
    1.7080085754e+02    1.1785199866e-02
    1.7090109253e+02    1.1793499812e-02
    1.7100088501e+02    1.1801600456e-02
    1.7110058594e+02    1.1809499934e-02
    1.7120095825e+02    1.1817499995e-02
    1.7130053711e+02    1.1825500056e-02
    1.7140017700e+02    1.1833400466e-02
    1.7149992371e+02    1.1840799823e-02
    1.7160124207e+02    1.1847600341e-02
    1.7170121765e+02    1.1853500269e-02
    1.7180119324e+02    1.1858800426e-02
    1.7190115356e+02    1.1864000000e-02
    1.7200105286e+02    1.1869500391e-02
    1.7210096741e+02    1.1875499971e-02
    1.7220066833e+02    1.1881999671e-02
    1.7230036926e+02    1.1888399720e-02
    1.7240005493e+02    1.1894100346e-02
    1.7250131226e+02    1.1899099685e-02
    1.7260099792e+02    1.1903599836e-02
    1.7270042419e+02    1.1907899752e-02
    1.7280094910e+02    1.1912600137e-02
    1.7290054321e+02    1.1917600408e-02
    1.7300013733e+02    1.1922799982e-02
    1.7310130310e+02    1.1927899905e-02
    1.7320066833e+02    1.1932699941e-02
    1.7330029297e+02    1.1937100440e-02
    1.7339997864e+02    1.1941299774e-02
    1.7350126648e+02    1.1945400387e-02
    1.7360104370e+02    1.1949700303e-02
    1.7370082092e+02    1.1954200454e-02
    1.7380056763e+02    1.1958999559e-02
    1.7390046692e+02    1.1963900179e-02
    1.7400010681e+02    1.1969000101e-02
    1.7410105896e+02    1.1974499561e-02
    1.7420089722e+02    1.1980599724e-02
    1.7430119324e+02    1.1987599544e-02
    1.7440078735e+02    1.1995100416e-02
    1.7450083923e+02    1.2002999894e-02
    1.7460049438e+02    1.2010999955e-02
    1.7470010376e+02    1.2019000016e-02
    1.7480111694e+02    1.2027000077e-02
    1.7490075684e+02    1.2035000138e-02
    1.7500004578e+02    1.2043200433e-02
    1.7510095215e+02    1.2051800266e-02
    1.7520071411e+02    1.2060499750e-02
    1.7530026245e+02    1.2068600394e-02
    1.7540046692e+02    1.2075900100e-02
    1.7550091553e+02    1.2082099915e-02
    1.7560054016e+02    1.2087600306e-02
    1.7570124817e+02    1.2093000114e-02
    1.7580075073e+02    1.2098600157e-02
    1.7590032959e+02    1.2104400434e-02
    1.7600041199e+02    1.2109899893e-02
    1.7610017395e+02    1.2114600278e-02
    1.7620140076e+02    1.2117999606e-02
    1.7630114746e+02    1.2120000087e-02
    1.7640034485e+02    1.2121300213e-02
    1.7650001526e+02    1.2122799642e-02
    1.7660075378e+02    1.2125000358e-02
    1.7670155334e+02    1.2127700262e-02
    1.7680137634e+02    1.2130299583e-02
    1.7690121460e+02    1.2132200412e-02
    1.7700111389e+02    1.2133000419e-02
    1.7710104370e+02    1.2132699601e-02
    1.7720054626e+02    1.2131599709e-02
    1.7730064392e+02    1.2130100280e-02
    1.7740068054e+02    1.2128500268e-02
    1.7750062561e+02    1.2126999907e-02
    1.7760052490e+02    1.2125499547e-02
    1.7770046997e+02    1.2123700231e-02
    1.7780152893e+02    1.2121500447e-02
    1.7790144348e+02    1.2118900195e-02
    1.7800102234e+02    1.2115799822e-02
    1.7810079956e+02    1.2112500146e-02
    1.7820062256e+02    1.2109000236e-02
    1.7830050659e+02    1.2105200440e-02
    1.7840043640e+02    1.2101300061e-02
    1.7850041199e+02    1.2097500265e-02
    1.7860023499e+02    1.2093899772e-02
    1.7870126343e+02    1.2090899982e-02
    1.7880137634e+02    1.2088700198e-02
    1.7890141296e+02    1.2087699957e-02
    1.7900135803e+02    1.2087900192e-02
    1.7910119629e+02    1.2089000084e-02
    1.7920065308e+02    1.2090800330e-02
    1.7930116272e+02    1.2093300000e-02
    1.7940080261e+02    1.2096200138e-02
    1.7950059509e+02    1.2099700049e-02
    1.7960156250e+02    1.2103499845e-02
    1.7970164490e+02    1.2107299641e-02
    1.7980116272e+02    1.2110699899e-02
    1.7990046692e+02    1.2113600038e-02
    1.8000042725e+02    1.2116200291e-02
    1.8010139465e+02    1.2118499726e-02
    1.8020178223e+02    1.2120800093e-02
    1.8030107117e+02    1.2123499997e-02
    1.8040037537e+02    1.2126799673e-02
    1.8050131226e+02    1.2130700052e-02
    1.8060069275e+02    1.2134700082e-02
    1.8070162964e+02    1.2138999999e-02
    1.8080166626e+02    1.2143299915e-02
    1.8090104675e+02    1.2147700414e-02
    1.8100044250e+02    1.2152099982e-02
    1.8110122681e+02    1.2156600133e-02
    1.8120103455e+02    1.2161299586e-02
    1.8130175781e+02    1.2166099623e-02
    1.8140097046e+02    1.2170599774e-02
    1.8150184631e+02    1.2174800038e-02
    1.8160069275e+02    1.2178099714e-02
    1.8170173645e+02    1.2180400081e-02
    1.8180131531e+02    1.2181799859e-02
    1.8190089417e+02    1.2182500213e-02
    1.8200047302e+02    1.2183199637e-02
    1.8210104370e+02    1.2183999643e-02
    1.8220051575e+02    1.2184699997e-02
    1.8230157471e+02    1.2184900232e-02
    1.8240109253e+02    1.2183999643e-02
    1.8250117493e+02    1.2181799859e-02
    1.8260070801e+02    1.2178800069e-02
    1.8270187378e+02    1.2175300159e-02
    1.8280120850e+02    1.2171899900e-02
    1.8290124512e+02    1.2168800458e-02
    1.8300152588e+02    1.2165799737e-02
    1.8310101318e+02    1.2162899598e-02
    1.8320051575e+02    1.2160000391e-02
    1.8330163574e+02    1.2156999670e-02
    1.8340150452e+02    1.2154100463e-02
    1.8350120544e+02    1.2151299976e-02
    1.8360087585e+02    1.2148899958e-02
    1.8370051575e+02    1.2146799825e-02
    1.8380162048e+02    1.2144800276e-02
    1.8390081787e+02    1.2142700143e-02
    1.8400189209e+02    1.2140399776e-02
    1.8410098267e+02    1.2138400227e-02
    1.8420069885e+02    1.2136899866e-02
    1.8430099487e+02    1.2135799974e-02
    1.8440051270e+02    1.2135099620e-02
    1.8450160217e+02    1.2134299614e-02
    1.8460110474e+02    1.2133300304e-02
    1.8470137024e+02    1.2132200412e-02
    1.8480093384e+02    1.2131200172e-02
    1.8490191650e+02    1.2130400166e-02
    1.8500114441e+02    1.2130400166e-02
    1.8510061646e+02    1.2131200172e-02
    1.8520150757e+02    1.2132599950e-02
    1.8530085754e+02    1.2134100311e-02
    1.8540155029e+02    1.2135099620e-02
    1.8550123596e+02    1.2135500088e-02
    1.8560203552e+02    1.2135400437e-02
    1.8570106506e+02    1.2135599740e-02
    1.8580180359e+02    1.2136300094e-02
    1.8590103149e+02    1.2137499638e-02
    1.8600187683e+02    1.2138499878e-02
    1.8610116577e+02    1.2138400227e-02
    1.8620164490e+02    1.2136800215e-02
    1.8630113220e+02    1.2133399956e-02
    1.8640101624e+02    1.2128899805e-02
    1.8650201416e+02    1.2124099769e-02
    1.8660150146e+02    1.2119599618e-02
    1.8670106506e+02    1.2115599588e-02
    1.8680172729e+02    1.2111499906e-02
    1.8690151978e+02    1.2106800452e-02
    1.8700201416e+02    1.2101300061e-02
    1.8710168457e+02    1.2095199898e-02
    1.8720118713e+02    1.2088799849e-02
    1.8730099487e+02    1.2082399800e-02
    1.8740220642e+02    1.2076199986e-02
    1.8750181580e+02    1.2067000382e-02
    1.8760134888e+02    1.2059399858e-02
    1.8770118713e+02    1.2048799545e-02
    1.8780154419e+02    1.2037799694e-02
    1.8790106201e+02    1.2029300444e-02
    1.8800163269e+02    1.2018100359e-02
    1.8810102844e+02    1.2009699829e-02
    1.8820205688e+02    1.1999200098e-02
    1.8830162048e+02    1.1990600266e-02
    1.8840126038e+02    1.1981099844e-02
    1.8850097656e+02    1.1967999861e-02
    1.8860227966e+02    1.1957299896e-02
    1.8870123291e+02    1.1945500039e-02
    1.8880165100e+02    1.1934099719e-02
    1.8890144348e+02    1.1921999976e-02
    1.8900111389e+02    1.1912300251e-02
    1.8910215759e+02    1.1903000064e-02
    1.8920159912e+02    1.1895299889e-02
    1.8930096436e+02    1.1887500063e-02
    1.8940170288e+02    1.1881100014e-02
    1.8950140381e+02    1.1875400320e-02
    1.8960200500e+02    1.1870699935e-02
    1.8970190430e+02    1.1866300367e-02
    1.8980111694e+02    1.1862399988e-02
    1.8990179443e+02    1.1858499609e-02
    1.9000099182e+02    1.1854800396e-02
    1.9010165405e+02    1.1850300245e-02
    1.9020227051e+02    1.1845899746e-02
    1.9030105591e+02    1.1841800064e-02
    1.9040156555e+02    1.1837800033e-02
    1.9050210571e+02    1.1834099889e-02
    1.9060112000e+02    1.1830500327e-02
    1.9070172119e+02    1.1826200411e-02
    1.9080233765e+02    1.1821400374e-02
    1.9090138245e+02    1.1816799641e-02
    1.9100221252e+02    1.1811800301e-02
    1.9110136414e+02    1.1806299910e-02
    1.9120124817e+02    1.1800699867e-02
    1.9130226135e+02    1.1795800179e-02
    1.9140130615e+02    1.1790400371e-02
    1.9150198364e+02    1.1785199866e-02
    1.9160215759e+02    1.1779099703e-02
    1.9170144653e+02    1.1772899888e-02
    1.9180220032e+02    1.1765499599e-02
    1.9190150452e+02    1.1758100241e-02
    1.9200230408e+02    1.1750300415e-02
    1.9210130310e+02    1.1742900126e-02
    1.9220210266e+02    1.1734999716e-02
    1.9230139160e+02    1.1725700460e-02
    1.9240229797e+02    1.1714500375e-02
    1.9250166321e+02    1.1701899581e-02
    1.9260105896e+02    1.1687500402e-02
    1.9270210266e+02    1.1671000160e-02
    1.9280160522e+02    1.1654100381e-02
    1.9290133667e+02    1.1636399664e-02
    1.9300242615e+02    1.1618499644e-02
    1.9310226440e+02    1.1600700207e-02
    1.9320172119e+02    1.1582800187e-02
    1.9330122375e+02    1.1564799584e-02
    1.9340150452e+02    1.1546899565e-02
    1.9350114441e+02    1.1529300362e-02
    1.9360223389e+02    1.1511599645e-02
    1.9370178223e+02    1.1494499631e-02
    1.9380122375e+02    1.1477899738e-02
    1.9390136719e+02    1.1460700072e-02
    1.9400218201e+02    1.1443300173e-02
    1.9410147095e+02    1.1426099576e-02
    1.9420201111e+02    1.1409199797e-02
    1.9430111694e+02    1.1392800137e-02
    1.9440263367e+02    1.1376099661e-02
[...]
    2.5130525208e+02   -3.9607901126e-03
    2.5140496826e+02   -4.0034498088e-03
    2.5150505066e+02   -4.0465700440e-03
    2.5160516357e+02   -4.0892898105e-03
    2.5170469666e+02   -4.1311699897e-03
    2.5180487061e+02   -4.1730399244e-03
    2.5190501404e+02   -4.2151799425e-03
    2.5200515747e+02   -4.2574601248e-03
    2.5210531616e+02   -4.3000699952e-03
    2.5220550537e+02   -4.3428698555e-03
    2.5230467224e+02   -4.3853898533e-03
    2.5240487671e+02   -4.4281901792e-03
    2.5250512695e+02   -4.4685001485e-03
    2.5260542297e+02   -4.5099901035e-03
    2.5270581055e+02   -4.5517901890e-03
    2.5280471802e+02   -4.5927697793e-03
    2.5290512085e+02   -4.6338802204e-03
    2.5300585938e+02   -4.6756197698e-03
    2.5310502625e+02   -4.7166100703e-03
    2.5320562744e+02   -4.7588502057e-03
    2.5330619812e+02   -4.8012197949e-03
    2.5340524292e+02   -4.8429300077e-03
    2.5350573730e+02   -4.8853298649e-03
    2.5360620117e+02   -4.9277800135e-03
    2.5370498657e+02   -4.9692499451e-03
    2.5380540466e+02   -5.0107301213e-03
    2.5390580750e+02   -5.0517600030e-03
    2.5400610352e+02   -5.0927801058e-03
    2.5410522461e+02   -5.1330998540e-03
    2.5420582581e+02   -5.1730498672e-03
    2.5430581665e+02   -5.2121197805e-03
    2.5440478516e+02   -5.2503501065e-03
    2.5450532532e+02   -5.2888598293e-03
    2.5460542297e+02   -5.3265299648e-03
    2.5470594788e+02   -5.3642098792e-03
    2.5480491638e+02   -5.4015000351e-03
    2.5490530396e+02   -5.4402099922e-03
    2.5500625610e+02   -5.4791402072e-03
    2.5510493469e+02   -5.5158599280e-03
    2.5520512390e+02   -5.5507998914e-03
    2.5530526733e+02   -5.5838502012e-03
    2.5540539551e+02   -5.6149899028e-03
    2.5550579834e+02   -5.6445300579e-03
    2.5560589600e+02   -5.6727100164e-03
    2.5570591736e+02   -5.6997700594e-03
    2.5580584717e+02   -5.7254000567e-03
    2.5590568542e+02   -5.7489601895e-03
    2.5600549316e+02   -5.7705100626e-03
    2.5610525513e+02   -5.7909600437e-03
    2.5620498657e+02   -5.8111599647e-03
    2.5630630493e+02   -5.8321398683e-03
    2.5640612793e+02   -5.8527998626e-03
    2.5650598145e+02   -5.8731897734e-03
    2.5660586548e+02   -5.8933198452e-03
    2.5670581055e+02   -5.9132101014e-03
    2.5680569458e+02   -5.9327101335e-03
    2.5690582275e+02   -5.9524700046e-03
    2.5700616455e+02   -5.9735202231e-03
    2.5710638428e+02   -5.9959501959e-03
    2.5720507812e+02   -6.0197999701e-03
    2.5730578613e+02   -6.0455799103e-03
    2.5740618896e+02   -6.0720499605e-03
    2.5750540161e+02   -6.0984399170e-03
    2.5760583496e+02   -6.1251600273e-03
    2.5770581055e+02   -6.1518400908e-03
    2.5780633545e+02   -6.1789997853e-03
    2.5790548706e+02   -6.2059699558e-03
    2.5800598145e+02   -6.2328199856e-03
    2.5810650635e+02   -6.2587601133e-03
    2.5820550537e+02   -6.2832902186e-03
    2.5830609131e+02   -6.3072401099e-03
    2.5840560913e+02   -6.3306898810e-03
    2.5850628662e+02   -6.3546900637e-03
    2.5860552979e+02   -6.3788997941e-03
    2.5870623779e+02   -6.4033600502e-03
    2.5880557251e+02   -6.4266100526e-03
    2.5890524292e+02   -6.4484099858e-03
    2.5900610352e+02   -6.4691598527e-03
    2.5910525513e+02   -6.4888298512e-03
    2.5920578003e+02   -6.5084900707e-03
    2.5930630493e+02   -6.5283598378e-03
    2.5940539551e+02   -6.5478398465e-03
    2.5950534058e+02   -6.5671298653e-03
    2.5960623169e+02   -6.5856701694e-03
    2.5970553589e+02   -6.6027198918e-03
    2.5980621338e+02   -6.6191698425e-03
    2.5990524292e+02   -6.6349101253e-03
    2.6000518799e+02   -6.6504799761e-03
    2.6010644531e+02   -6.6655599512e-03
    2.6020535278e+02   -6.6790799610e-03
    2.6030569458e+02   -6.6913198680e-03
    2.6040600586e+02   -6.7020100541e-03
    2.6050625610e+02   -6.7111998796e-03
    2.6060617065e+02   -6.7191901617e-03
    2.6070651245e+02   -6.7264498211e-03
    2.6080661011e+02   -6.7332601175e-03
    2.6090661621e+02   -6.7396601662e-03
    2.6100656128e+02   -6.7456001416e-03
    2.6110647583e+02   -6.7508099601e-03
    2.6120635986e+02   -6.7552397959e-03
    2.6130670166e+02   -6.7594000138e-03
    2.6140655518e+02   -6.7633101717e-03
    2.6150650024e+02   -6.7667900585e-03
    2.6160647583e+02   -6.7696399055e-03
    2.6170642090e+02   -6.7714001052e-03
    2.6180639648e+02   -6.7719900981e-03
    2.6190637207e+02   -6.7717898637e-03
    2.6200549316e+02   -6.7714801989e-03
    2.6210552979e+02   -6.7713200115e-03
    2.6220556641e+02   -6.7715100013e-03
    2.6230563354e+02   -6.7722601816e-03
    2.6240567017e+02   -6.7736599594e-03
    2.6250674438e+02   -6.7758499645e-03
    2.6260528564e+02   -6.7789801396e-03
    2.6270544434e+02   -6.7836102098e-03
    2.6280572510e+02   -6.7894901149e-03
    2.6290609741e+02   -6.7968098447e-03
    2.6300656128e+02   -6.8054799922e-03
    2.6310635376e+02   -6.8153101020e-03
    2.6320629883e+02   -6.8259700201e-03
    2.6330587769e+02   -6.8372897804e-03
    2.6340646362e+02   -6.8496800959e-03
    2.6350555420e+02   -6.8627698347e-03
    2.6360610962e+02   -6.8771298975e-03
    2.6370666504e+02   -6.8925498053e-03
    2.6380572510e+02   -6.9084698334e-03
    2.6390551758e+02   -6.9248299114e-03
    2.6400604248e+02   -6.9412798621e-03
    2.6410662842e+02   -6.9574899971e-03
    2.6420565796e+02   -6.9731799886e-03
    2.6430627441e+02   -6.9888699800e-03
    2.6440533447e+02   -7.0040100254e-03
    2.6450595093e+02   -7.0189600810e-03
    2.6460552979e+02   -7.0332298055e-03
    2.6470617676e+02   -7.0472699590e-03
    2.6480673218e+02   -7.0612998679e-03
    2.6490573120e+02   -7.0751700550e-03
    2.6500619507e+02   -7.0892898366e-03
    2.6510662842e+02   -7.1031698026e-03
    2.6520663452e+02   -7.1164597757e-03
    2.6530694580e+02   -7.1291299537e-03
    2.6540573120e+02   -7.1410401724e-03
    2.6550610352e+02   -7.1525601670e-03
    2.6560644531e+02   -7.1637998335e-03
    2.6570614624e+02   -7.1746502072e-03
    2.6580648804e+02   -7.1851098910e-03
    2.6590670776e+02   -7.1947202086e-03
    2.6600680542e+02   -7.2032301687e-03
    2.6610684204e+02   -7.2106900625e-03
    2.6620590210e+02   -7.2174598463e-03
    2.6630578613e+02   -7.2238901630e-03
    2.6640628052e+02   -7.2299200110e-03
    2.6650619507e+02   -7.2363601066e-03
    2.6660626221e+02   -7.2424202226e-03
    2.6670617676e+02   -7.2482000105e-03
    2.6680593872e+02   -7.2542899288e-03
    2.6690612793e+02   -7.2605297901e-03
    2.6700677490e+02   -7.2670998052e-03
    2.6710702515e+02   -7.2744297795e-03
    2.6720581055e+02   -7.2828601114e-03
    2.6730624390e+02   -7.2931097820e-03
    2.6740676880e+02   -7.3047899641e-03
    2.6750579834e+02   -7.3179001920e-03
    2.6760601807e+02   -7.3323901743e-03
    2.6770669556e+02   -7.3480699211e-03
    2.6780590820e+02   -7.3643699288e-03
    2.6790661621e+02   -7.3816399090e-03
    2.6800640869e+02   -7.3988600634e-03
    2.6810705566e+02   -7.4159200303e-03
    2.6820617676e+02   -7.4324700981e-03
    2.6830682373e+02   -7.4487598613e-03
    2.6840591431e+02   -7.4644498527e-03
    2.6850671387e+02   -7.4799498543e-03
    2.6860589600e+02   -7.4947499670e-03
    2.6870657349e+02   -7.5093898922e-03
    2.6880575562e+02   -7.5235702097e-03
    2.6890643311e+02   -7.5378199108e-03
    2.6900653076e+02   -7.5517501682e-03
    2.6910562134e+02   -7.5656301342e-03
    2.6920635986e+02   -7.5795901939e-03
    2.6930712891e+02   -7.5933798216e-03
    2.6940637207e+02   -7.6059801504e-03
    2.6950720215e+02   -7.6185399666e-03
    2.6960641479e+02   -7.6294699684e-03
    2.6970675659e+02   -7.6388800517e-03
    2.6980603027e+02   -7.6466598548e-03
    2.6990664673e+02   -7.6536801644e-03
    2.7000723267e+02   -7.6596201397e-03
    2.7010623169e+02   -7.6642399654e-03
    2.7020663452e+02   -7.6677100733e-03
    2.7030694580e+02   -7.6694497839e-03
    2.7040725708e+02   -7.6702400111e-03
    2.7050665283e+02   -7.6693901792e-03
    2.7060681152e+02   -7.6670800336e-03
    2.7070690918e+02   -7.6630897820e-03
    2.7080706787e+02   -7.6577197760e-03
    2.7090707397e+02   -7.6514398679e-03
    2.7100698853e+02   -7.6440698467e-03
    2.7110684204e+02   -7.6364502311e-03
    2.7120669556e+02   -7.6287197880e-03
    2.7130657959e+02   -7.6211900450e-03
    2.7140658569e+02   -7.6139499433e-03
    2.7150628662e+02   -7.6069599018e-03
    2.7160626221e+02   -7.6003200375e-03
    2.7170629883e+02   -7.5941900723e-03
    2.7180642700e+02   -7.5887897983e-03
    2.7190664673e+02   -7.5840698555e-03
    2.7200698853e+02   -7.5798099861e-03
    2.7210620117e+02   -7.5757801533e-03
    2.7220666504e+02   -7.5715701096e-03
    2.7230706787e+02   -7.5671798550e-03
    2.7240637207e+02   -7.5628901832e-03
    2.7250674438e+02   -7.5590400957e-03
    2.7260714722e+02   -7.5560798869e-03
    2.7270602417e+02   -7.5543001294e-03
    2.7280648804e+02   -7.5536300428e-03
    2.7290701294e+02   -7.5539899990e-03
    2.7300607300e+02   -7.5552398339e-03
    2.7310601807e+02   -7.5574298389e-03
    2.7320672607e+02   -7.5605800375e-03
    2.7330596924e+02   -7.5645297766e-03
    2.7340686035e+02   -7.5692199171e-03
    2.7350622559e+02   -7.5742998160e-03
    2.7360726929e+02   -7.5800297782e-03
    2.7370681763e+02   -7.5863101520e-03
    2.7380636597e+02   -7.5932298787e-03
    2.7390740967e+02   -7.6008299366e-03
    2.7400698853e+02   -7.6087401249e-03
    2.7410705566e+02   -7.6168500818e-03
    2.7420645142e+02   -7.6247397810e-03
    2.7430740356e+02   -7.6322001405e-03
    2.7440679932e+02   -7.6386900619e-03
    2.7450616455e+02   -7.6441899873e-03
    2.7460644531e+02   -7.6487897895e-03
    2.7470739746e+02   -7.6525299810e-03
    2.7480673218e+02   -7.6554198749e-03
    2.7490750122e+02   -7.6574599370e-03
    2.7500671387e+02   -7.6584699564e-03
    2.7510733032e+02   -7.6584299095e-03
    2.7520645142e+02   -7.6575200073e-03
    2.7530688477e+02   -7.6561900787e-03
    2.7540740967e+02   -7.6548899524e-03
    2.7550637817e+02   -7.6538398862e-03
    2.7560699463e+02   -7.6529299840e-03
    2.7570602417e+02   -7.6520298608e-03
    2.7580718994e+02   -7.6509797946e-03
    2.7590631104e+02   -7.6497001573e-03
    2.7600680542e+02   -7.6480400749e-03
    2.7610720825e+02   -7.6458700933e-03
    2.7620748901e+02   -7.6431198977e-03
    2.7630621338e+02   -7.6398202218e-03
    2.7640631104e+02   -7.6358299702e-03
    2.7650637817e+02   -7.6311500743e-03
    2.7660678101e+02   -7.6258401386e-03
    2.7670681763e+02   -7.6201800257e-03
    2.7680694580e+02   -7.6144998893e-03
    2.7690637207e+02   -7.6091201045e-03
    2.7700714111e+02   -7.6041598804e-03
    2.7710736084e+02   -7.5998599641e-03
    2.7720767212e+02   -7.5962902047e-03
    2.7730645752e+02   -7.5936098583e-03
    2.7740695190e+02   -7.5918599032e-03
    2.7750756836e+02   -7.5912401080e-03
    2.7760626221e+02   -7.5918198563e-03
    2.7770706177e+02   -7.5937001966e-03
    2.7780639648e+02   -7.5968299061e-03
    2.7790734863e+02   -7.6012001373e-03
    2.7800726318e+02   -7.6065598987e-03
    2.7810650635e+02   -7.6127401553e-03
    2.7820739746e+02   -7.6198000461e-03
    2.7830673218e+02   -7.6274098828e-03
    2.7840768433e+02   -7.6355901547e-03
    2.7850686646e+02   -7.6437401585e-03
    2.7860632324e+02   -7.6516298577e-03
    2.7870721436e+02   -7.6590701938e-03
    2.7880654907e+02   -7.6657799073e-03
    2.7890621948e+02   -7.6720397919e-03
    2.7900695801e+02   -7.6782400720e-03
    2.7910772705e+02   -7.6846699230e-03
    2.7920632935e+02   -7.6913801022e-03
    2.7930694580e+02   -7.6986597851e-03
    2.7940774536e+02   -7.7061401680e-03
    2.7950698853e+02   -7.7133900486e-03
    2.7960781860e+02   -7.7204299159e-03
    2.7970706177e+02   -7.7270301990e-03
    2.7980633545e+02   -7.7333902009e-03
    2.7990719604e+02   -7.7396598645e-03
    2.8000650024e+02   -7.7455597930e-03
    2.8010739136e+02   -7.7511398122e-03
    2.8020718384e+02   -7.7561098151e-03
    2.8030664062e+02   -7.7604101971e-03
    2.8040756226e+02   -7.7640498057e-03
    2.8050689697e+02   -7.7668898739e-03
    2.8060763550e+02   -7.7690398321e-03
    2.8070678711e+02   -7.7704899013e-03
    2.8080728149e+02   -7.7713797800e-03
    2.8090765381e+02   -7.7718100511e-03
    2.8100790405e+02   -7.7718799002e-03
    2.8110665894e+02   -7.7716801316e-03
    2.8120681763e+02   -7.7713499777e-03
    2.8130700684e+02   -7.7710598707e-03
    2.8140722656e+02   -7.7710798942e-03
    2.8150701904e+02   -7.7717201784e-03
    2.8160733032e+02   -7.7733099461e-03
    2.8170773315e+02   -7.7761202119e-03
    2.8180670166e+02   -7.7802501619e-03
    2.8190740967e+02   -7.7858399600e-03
    2.8200665283e+02   -7.7925398946e-03
    2.8210675049e+02   -7.8002498485e-03
    2.8220776367e+02   -7.8087099828e-03
    2.8230734253e+02   -7.8175198287e-03
    2.8240689087e+02   -7.8266998753e-03
    2.8250790405e+02   -7.8363902867e-03
    2.8260742188e+02   -7.8463703394e-03
    2.8270767212e+02   -7.8569501638e-03
    2.8280700684e+02   -7.8680301085e-03
    2.8290795898e+02   -7.8799398616e-03
    2.8300750732e+02   -7.8924400732e-03
    2.8310708618e+02   -7.9058296978e-03
    2.8320669556e+02   -7.9202800989e-03
    2.8330764771e+02   -7.9359896481e-03
    2.8340771484e+02   -7.9523697495e-03
    2.8350726318e+02   -7.9692397267e-03
    2.8360681152e+02   -7.9865697771e-03
    2.8370800781e+02   -8.0047501251e-03
    2.8380764771e+02   -8.0232797191e-03
    2.8390731812e+02   -8.0424100161e-03
    2.8400701904e+02   -8.0620301887e-03
    2.8410671997e+02   -8.0819204450e-03
    2.8420809937e+02   -8.1020696089e-03
    2.8430795288e+02   -8.1215295941e-03
    2.8440747070e+02   -8.1402696669e-03
    2.8450714111e+02   -8.1582898274e-03
    2.8460678101e+02   -8.1755099818e-03
    2.8470727539e+02   -8.1920698285e-03
    2.8480697632e+02   -8.2075400278e-03
    2.8490805054e+02   -8.2220500335e-03
    2.8500753784e+02   -8.2350000739e-03
    2.8510690308e+02   -8.2465903834e-03
    2.8520816040e+02   -8.2571301609e-03
    2.8530728149e+02   -8.2665104419e-03
    2.8540795898e+02   -8.2754902542e-03
    2.8550711060e+02   -8.2841301337e-03
    2.8560757446e+02   -8.2928203046e-03
    2.8570687866e+02   -8.3014704287e-03
    2.8580758667e+02   -8.3103701472e-03
    2.8590753174e+02   -8.3194803447e-03
    2.8600811768e+02   -8.3290496841e-03
    2.8610705566e+02   -8.3388797939e-03
    2.8620779419e+02   -8.3492202684e-03
    2.8630682373e+02   -8.3595197648e-03
    2.8640731812e+02   -8.3699002862e-03
    2.8650762939e+02   -8.3799799904e-03
    2.8660815430e+02   -8.3896499127e-03
    2.8670718384e+02   -8.3987498656e-03
    2.8680792236e+02   -8.4078004584e-03
    2.8690716553e+02   -8.4168901667e-03
    2.8700787354e+02   -8.4267202765e-03
    2.8710702515e+02   -8.4373196587e-03
    2.8720819092e+02   -8.4491595626e-03
    2.8730722046e+02   -8.4616895765e-03
    2.8740789795e+02   -8.4752803668e-03
    2.8750711060e+02   -8.4896003827e-03
    2.8760800171e+02   -8.5052903742e-03
    2.8770816040e+02   -8.5221901536e-03
    2.8780770874e+02   -8.5403798148e-03
    2.8790710449e+02   -8.5598295555e-03
    2.8800823975e+02   -8.5808504373e-03
    2.8810787964e+02   -8.6026797071e-03
    2.8820761108e+02   -8.6255697533e-03
    2.8830743408e+02   -8.6495401338e-03
    2.8840731812e+02   -8.6746299639e-03
    2.8850708008e+02   -8.7007395923e-03
    2.8860711670e+02   -8.7276296690e-03
    2.8870706177e+02   -8.7546799332e-03
    2.8880691528e+02   -8.7813101709e-03
    2.8890689087e+02   -8.8071804494e-03
    2.8900811768e+02   -8.8324798271e-03
    2.8910772705e+02   -8.8566998020e-03
    2.8920742798e+02   -8.8806897402e-03
    2.8930715942e+02   -8.9047504589e-03
    2.8940832520e+02   -8.9293699712e-03
    2.8950799561e+02   -8.9537398890e-03
    2.8960696411e+02   -8.9777503163e-03
    2.8970724487e+02   -9.0016499162e-03
    2.8980697632e+02   -9.0248798952e-03
    2.8990713501e+02   -9.0479301289e-03
    2.9000839233e+02   -9.0713603422e-03
    2.9010812378e+02   -9.0948203579e-03
    2.9020794678e+02   -9.1185998172e-03
    2.9030841064e+02   -9.1423597187e-03
    2.9040844727e+02   -9.1652600095e-03
    2.9050842285e+02   -9.1869896278e-03
    2.9060830688e+02   -9.2075401917e-03
    2.9070809937e+02   -9.2273596674e-03
    2.9080776978e+02   -9.2469900846e-03
    2.9090731812e+02   -9.2667704448e-03
    2.9100823975e+02   -9.2870099470e-03
    2.9110757446e+02   -9.3068601564e-03
    2.9120834351e+02   -9.3266498297e-03
    2.9130743408e+02   -9.3457000330e-03
    2.9140808105e+02   -9.3648703769e-03
    2.9150720215e+02   -9.3840900809e-03
    2.9160797119e+02   -9.4044897705e-03
    2.9170724487e+02   -9.4257304445e-03
    2.9180819702e+02   -9.4485003501e-03
    2.9190771484e+02   -9.4718597829e-03
    2.9200729370e+02   -9.4959596172e-03
    2.9210855103e+02   -9.5211500302e-03
    2.9220828247e+02   -9.5467995852e-03
    2.9230728149e+02   -9.5732798800e-03
    2.9240795898e+02   -9.6012596041e-03
    2.9250775146e+02   -9.6299201250e-03
    2.9260760498e+02   -9.6592400223e-03
    2.9270745850e+02   -9.6889501438e-03
    2.9280734253e+02   -9.7189797089e-03
    2.9290731812e+02   -9.7494199872e-03
    2.9300750732e+02   -9.7805904225e-03
    2.9310763550e+02   -9.8125804216e-03
    2.9320776367e+02   -9.8454002291e-03
    2.9330783081e+02   -9.8786801100e-03
    2.9340783691e+02   -9.9118798971e-03
    2.9350784302e+02   -9.9446699023e-03
    2.9360775757e+02   -9.9771898240e-03
    2.9370755005e+02   -1.0009800084e-02
    2.9380728149e+02   -1.0043200105e-02
    2.9390856934e+02   -1.0077900253e-02
    2.9400833130e+02   -1.0112700053e-02
    2.9410806274e+02   -1.0147499852e-02
    2.9420724487e+02   -1.0181499645e-02
    2.9430868530e+02   -1.0215399787e-02
    2.9440783691e+02   -1.0247900151e-02
    2.9450769043e+02   -1.0280099697e-02
    2.9460757446e+02   -1.0312300175e-02
    2.9470770264e+02   -1.0344600305e-02
    2.9480776978e+02   -1.0376499966e-02
    2.9490774536e+02   -1.0407299735e-02
    2.9500765991e+02   -1.0436699726e-02
    2.9510748291e+02   -1.0464600287e-02
    2.9520727539e+02   -1.0491300374e-02
    2.9530844116e+02   -1.0517699644e-02
    2.9540795898e+02   -1.0543299839e-02
    2.9550808716e+02   -1.0568800382e-02
    2.9560772705e+02   -1.0593799874e-02
    2.9570730591e+02   -1.0618099943e-02
    2.9580834961e+02   -1.0642199777e-02
    2.9590783691e+02   -1.0665800422e-02
    2.9600759888e+02   -1.0689799674e-02
    2.9610778809e+02   -1.0715099983e-02
    2.9620870972e+02   -1.0741700418e-02
    2.9630816650e+02   -1.0769099928e-02
    2.9640826416e+02   -1.0797400028e-02
    2.9650769043e+02   -1.0826000012e-02
    2.9660879517e+02   -1.0855199769e-02
    2.9670846558e+02   -1.0884099640e-02
    2.9680822754e+02   -1.0913100094e-02
    2.9690798950e+02   -1.0942599736e-02
    2.9700808716e+02   -1.0972799733e-02
    2.9710800171e+02   -1.1003700085e-02
    2.9720791626e+02   -1.1035200208e-02
    2.9730822754e+02   -1.1067500338e-02
    2.9740798950e+02   -1.1100400239e-02
    2.9750875854e+02   -1.1134699918e-02
    2.9760873413e+02   -1.1169799604e-02
    2.9770874023e+02   -1.1206099764e-02
    2.9780740356e+02   -1.1242800392e-02
    2.9790890503e+02   -1.1281399988e-02
    2.9800894165e+02   -1.1320199817e-02
    2.9810745239e+02   -1.1358999647e-02
    2.9820767212e+02   -1.1399299838e-02
    2.9830798340e+02   -1.1440499686e-02
    2.9840832520e+02   -1.1482900009e-02
    2.9850894165e+02   -1.1526499875e-02
    2.9860794067e+02   -1.1570000090e-02
    2.9870837402e+02   -1.1614499614e-02
    2.9880874634e+02   -1.1658599600e-02
    2.9890756226e+02   -1.1701400392e-02
    2.9900836182e+02   -1.1744299904e-02
    2.9910787964e+02   -1.1785999872e-02
    2.9920809937e+02   -1.1827399954e-02
    2.9930825806e+02   -1.1868500151e-02
    2.9940838623e+02   -1.1909100227e-02
    2.9950866699e+02   -1.1949099600e-02
    2.9960858154e+02   -1.1988000013e-02
    2.9970883179e+02   -1.2025900185e-02
    2.9980892944e+02   -1.2062500231e-02
    2.9990899658e+02   -1.2098499574e-02
endcurve
