Curveplot
LS-DYNA keyword deck by LS-PrePost
Yrot-displ
phi moment-stiffness
Joint Stiff
300001 #pts=1000
* Minval= -2.163089062500e+004 at time=      -2.787553787231
* Maxval=  1.334177636719e+004 at time=      -1.979159116745
-1.085897816111e-009 -2.623169124126e-002
 4.890032823113e-011 -2.273539453745e-002
 1.845843478065e-009 -1.290463004261e-002
 4.377020523805e-009  5.224142223597e-003
 7.608262464487e-009  3.318998217583e-002
 1.136625371601e-008  7.169107347727e-002
 1.529550175405e-008  1.212802678347e-001
 1.874525601409e-008  1.798187941313e-001
 2.075919347533e-008  2.412527203560e-001
 2.020484224374e-008  2.960799634457e-001
 1.565611817966e-008  3.307191133499e-001
 5.242116518644e-009  3.229779005051e-001
-1.220583101258e-008  2.504632472992e-001
-3.757667599302e-008  8.633962273598e-002
-7.079109565211e-008 -1.934801042080e-001
-1.101009488025e-007 -5.950741767883e-001
-1.518005348089e-007 -1.096223473549e+000
-1.892696843697e-007 -1.614604711533e+000
-2.136453502999e-007 -2.023353099823e+000
-2.141752304397e-007 -2.158433675766e+000
-1.781468057516e-007 -1.817623615265e+000
-8.943499096858e-008 -7.408918142319e-001
 6.526671825213e-008  1.298874139786e+000
 2.950017972125e-007  4.487388134003e+000
 6.128240670478e-007  9.101416587830e+000
 1.021149728331e-006  1.532692337036e+001
 1.530491999802e-006  2.361102294922e+001
 2.133794851034e-006  3.423591613770e+001
 2.808528506648e-006  4.734701919556e+001
 3.543958200680e-006  6.349524688721e+001
 4.301629815018e-006  8.290765380859e+001
 5.030931333749e-006  1.060695877075e+002
 5.665081516781e-006  1.330450134277e+002
 6.130617748568e-006  1.641973266602e+002
 6.330055384751e-006  1.996592559814e+002
 6.151316483738e-006  2.395044250488e+002
 5.433513251774e-006  2.840618286133e+002
 4.030496256746e-006  3.335914306641e+002
 1.772149630597e-006  3.882067260742e+002
-1.499925019743e-006  4.474931640625e+002
-6.000718258292e-006  5.119467773438e+002
-1.211232665810e-005  5.826658325195e+002
-1.993725345528e-005  6.581773071289e+002
-2.984218008351e-005  7.394898681641e+002
-4.208717655274e-005  8.260003051758e+002
-5.699282337446e-005  9.174509277344e+002
-7.488270057365e-005  1.012778808594e+003
-9.636897448217e-005  1.113098510742e+003
-1.216446398757e-004  1.217036010742e+003
-1.511049340479e-004  1.324111938477e+003
-1.848331594374e-004  1.432892944336e+003
-2.240965259261e-004  1.544845825195e+003
-2.689382818062e-004  1.658551025391e+003
-3.197225159965e-004  1.773467773438e+003
-3.768984461203e-004  1.889124145508e+003
-4.409202956595e-004  2.005047485352e+003
-5.124935414642e-004  2.120616699219e+003
-5.919529357925e-004  2.235458007813e+003
-6.796572706662e-004  2.349271972656e+003
-7.760478765704e-004  2.461725830078e+003
-8.815639885142e-004  2.572469238281e+003
-9.972465923056e-004  2.681421142578e+003
-1.123221707530e-003  2.788207031250e+003
-1.259672688320e-003  2.892670410156e+003
-1.407001749612e-003  2.994612060547e+003
-1.565593760461e-003  3.093816650391e+003
-1.736116595566e-003  3.189920166016e+003
-1.918783178553e-003  3.282787353516e+003
-2.113859867677e-003  3.372548095703e+003
-2.322107553482e-003  3.459226806641e+003
-2.542914822698e-003  3.542545898438e+003
-2.777984598652e-003  3.622793945313e+003
-3.027650294825e-003  3.700393554688e+003
-3.289907239377e-003  3.775147216797e+003
-3.567503765225e-003  3.848118164063e+003
-3.859728807583e-003  3.919460937500e+003
-4.167063161731e-003  3.989523681641e+003
-4.489684477448e-003  4.058770507813e+003
-4.826635587960e-003  4.127598632813e+003
-5.178987514228e-003  4.196583984375e+003
-5.550759844482e-003  4.266870117188e+003
-5.934264510870e-003  4.337303222656e+003
-6.338049191982e-003  4.409923339844e+003
-6.758193485439e-003  4.484313964844e+003
-7.194523699582e-003  4.560745117188e+003
-7.649670355022e-003  4.639828613281e+003
-8.118957281113e-003  4.720925292969e+003
-8.610952645540e-003  4.805623535156e+003
-9.121467359364e-003  4.893315429688e+003
-9.647420607507e-003  4.983493164063e+003
-1.019461639225e-002  5.077166992188e+003
-1.076295040548e-002  5.174250000000e+003
-1.134777907282e-002  5.273883789063e+003
-1.195771899074e-002  5.377463378906e+003
-1.258456148207e-002  5.483443847656e+003
-1.323518343270e-002  5.592820800781e+003
-1.390951219946e-002  5.705229003906e+003
-1.460204552859e-002  5.819566406250e+003
-1.532306335866e-002  5.937144531250e+003
-1.606287993491e-002  6.055943847656e+003
-1.682952977717e-002  6.176943847656e+003
-1.761643961072e-002  6.298508300781e+003
-1.843626424670e-002  6.421979980469e+003
-1.927804015577e-002  6.545319335938e+003
-2.014610543847e-002  6.668642578125e+003
-2.104498073459e-002  6.791963378906e+003
-2.196400612593e-002  6.913082519531e+003
-2.292021363974e-002  7.033737304688e+003
-2.390090189874e-002  7.151831054688e+003
-2.491093054414e-002  7.267471191406e+003
-2.595557644963e-002  7.380730957031e+003
-2.702213637531e-002  7.489666015625e+003
-2.813051454723e-002  7.595859863281e+003
-2.926056459546e-002  7.697278320313e+003
-3.043303266168e-002  7.795583007813e+003
-3.162863478065e-002  7.888890136719e+003
-3.286728262901e-002  7.978490722656e+003
-3.413064405322e-002  8.062964843750e+003
-3.543967381120e-002  8.143954101563e+003
-3.677524253726e-002  8.220272460938e+003
-3.815084323287e-002  8.292797851563e+003
-3.955439850688e-002  8.360836914063e+003
-4.100402817130e-002  8.425429687500e+003
-4.248473048210e-002  8.486188476563e+003
-4.400230199099e-002  8.543566406250e+003
-4.556253179908e-002  8.597951171875e+003
-4.715154692531e-002  8.649000976563e+003
-4.877960681915e-002  8.697285156250e+003
-5.046078562737e-002  8.743508789063e+003
-5.216570571065e-002  8.787085937500e+003
-5.390940234065e-002  8.828708984375e+003
-5.569346249104e-002  8.868588867188e+003
-5.753499269485e-002  8.907399414063e+003
-5.940051749349e-002  8.944876953125e+003
-6.130646541715e-002  8.981723632813e+003
-6.325314939022e-002  9.018302734375e+003
-6.524194031954e-002  9.055029296875e+003
-6.727329641581e-002  9.092284179688e+003
-6.934603303671e-002  9.130339843750e+003
-7.146035134792e-002  9.169492187500e+003
-7.361660152674e-002  9.209922851563e+003
-7.581604272127e-002  9.251839843750e+003
-7.805959135294e-002  9.295329101563e+003
-8.034612983465e-002  9.340286132813e+003
-8.267612755299e-002  9.386636718750e+003
-8.505012840033e-002  9.434238281250e+003
-8.746971935034e-002  9.482859375000e+003
-8.993639796972e-002  9.532220703125e+003
-9.244894981384e-002  9.582013671875e+003
-9.500794857740e-002  9.631935546875e+003
-9.761075675488e-002  9.681620117188e+003
-1.002443805337e-001  9.730530273438e+003
-1.029508635402e-001  9.779073242188e+003
-1.056972742081e-001  9.826454101563e+003
-1.084900498390e-001  9.872539062500e+003
-1.113367751241e-001  9.917195312500e+003
-1.142135858536e-001  9.959809570313e+003
-1.171735227108e-001  1.000081542969e+004
-1.201634854078e-001  1.003937792969e+004
-1.232098042965e-001  1.007561230469e+004
-1.262857764959e-001  1.010901464844e+004
-1.294477730989e-001  1.013991601563e+004
-1.326423436403e-001  1.016748144531e+004
-1.358949840069e-001  1.019189648438e+004
-1.391966342926e-001  1.021289746094e+004
-1.425436139107e-001  1.023030566406e+004
-1.459790319204e-001  1.024401562500e+004
-1.494206041098e-001  1.025340917969e+004
-1.529508382082e-001  1.025876660156e+004
-1.565314382315e-001  1.025983984375e+004
-1.601591408253e-001  1.025657421875e+004
-1.638475358486e-001  1.024887792969e+004
-1.675711125135e-001  1.023676367188e+004
-1.713866591454e-001  1.022033593750e+004
-1.752310991287e-001  1.019998828125e+004
-1.791366040707e-001  1.017575488281e+004
-1.831045448780e-001  1.014774023438e+004
-1.871370077133e-001  1.011603320313e+004
-1.912123113871e-001  1.008115722656e+004
-1.953527629375e-001  1.004313867188e+004
-1.995404511690e-001  1.000235546875e+004
-2.037889361382e-001  9.958954101563e+003
-2.081085592508e-001  9.913064453125e+003
-2.124771922827e-001  9.865369140625e+003
-2.169049680233e-001  9.816068359375e+003
-2.213758379221e-001  9.765636718750e+003
-2.259093672037e-001  9.714142578125e+003
-2.305097281933e-001  9.661708984375e+003
-2.351662367582e-001  9.608614257813e+003
-2.398876547813e-001  9.554788085938e+003
-2.446701228619e-001  9.500322265625e+003
-2.494806200266e-001  9.445578125000e+003
-2.543915510178e-001  9.389685546875e+003
-2.593238949776e-001  9.333601562500e+003
-2.643186151981e-001  9.276887695313e+003
-2.693772315979e-001  9.219553710938e+003
-2.745012044907e-001  9.161652343750e+003
-2.796975076199e-001  9.103176757813e+003
-2.849386632442e-001  9.044391601563e+003
-2.902373075485e-001  8.985151367188e+003
-2.955802679062e-001  8.925573242188e+003
-3.009866774082e-001  8.865291015625e+003
-3.064596354961e-001  8.804251953125e+003
-3.119956254959e-001  8.742302734375e+003
-3.175956308842e-001  8.679330078125e+003
-3.232597112656e-001  8.615187500000e+003
-3.289435803890e-001  8.550262695313e+003
-3.347399234772e-001  8.483224609375e+003
-3.405551314354e-001  8.415034179688e+003
-3.464352190495e-001  8.344958007813e+003
-3.523801267147e-001  8.272734375000e+003
-3.583912849426e-001  8.198173828125e+003
-3.644687533379e-001  8.120999023438e+003
-3.705821931362e-001  8.041575683594e+003
-3.767673969269e-001  7.959391113281e+003
-3.830280900002e-001  7.874378906250e+003
-3.893201947212e-001  7.787241210938e+003
-3.956771790981e-001  7.697479003906e+003
-4.020945429802e-001  7.605294921875e+003
-4.085719287395e-001  7.510773925781e+003
-4.151096045971e-001  7.413895019531e+003
-4.217132925987e-001  7.314624023438e+003
-4.283885955811e-001  7.212817382813e+003
-4.350995719433e-001  7.109036132813e+003
-4.418673217297e-001  7.003092773438e+003
-4.487034976482e-001  6.894751464844e+003
-4.556081891060e-001  6.784119140625e+003
-4.625309705734e-001  6.672032714844e+003
-4.695221781731e-001  6.557801269531e+003
-4.765817821026e-001  6.441544921875e+003
-4.837102293968e-001  6.323380859375e+003
-4.909079074860e-001  6.203420898438e+003
-4.981215596199e-001  6.082589355469e+003
-5.054038167000e-001  5.960236328125e+003
-5.127322673798e-001  5.836802246094e+003
-5.201171636581e-001  5.712255859375e+003
-5.275485515594e-001  5.586757812500e+003
-5.350631475449e-001  5.459846191406e+003
-5.426469445229e-001  5.331716796875e+003
-5.502392649651e-001  5.203446289063e+003
-5.578866004944e-001  5.074274414063e+003
-5.656250715256e-001  4.943601074219e+003
-5.733729004860e-001  4.812873535156e+003
-5.811851620674e-001  4.681231933594e+003
-5.890608429909e-001  4.548810546875e+003
-5.969370007515e-001  4.416830566406e+003
-6.049349904060e-001  4.283443359375e+003
-6.129348278046e-001  4.150896972656e+003
-6.209909915924e-001  4.018343750000e+003
-6.291032433510e-001  3.885963134766e+003
-6.372562050819e-001  3.753966308594e+003
-6.454241871834e-001  3.622908203125e+003
-6.537092924118e-001  3.491119384766e+003
-6.619797348976e-001  3.360624755859e+003
-6.702972054482e-001  3.230409912109e+003
-6.787191033363e-001  3.099440673828e+003
-6.871480941772e-001  2.969287597656e+003
-6.956035494804e-001  2.839644287109e+003
-7.041000127792e-001  2.710207763672e+003
-7.126445174217e-001  2.580813476563e+003
-7.212698459625e-001  2.451060791016e+003
-7.298637032509e-001  2.322507812500e+003
-7.385641336441e-001  2.193235107422e+003
-7.472729086876e-001  2.064571533203e+003
-7.560294270515e-001  1.935951293945e+003
-7.648105025291e-001  1.807612792969e+003
-7.736634612083e-001  1.678881835938e+003
-7.825466394424e-001  1.550244750977e+003
-7.914234995842e-001  1.422093139648e+003
-8.004007339478e-001  1.292741943359e+003
-8.093447089195e-001  1.163920898438e+003
-8.184019923210e-001  1.033403686523e+003
-8.274258971214e-001  9.029949340820e+002
-8.364881277084e-001  7.715988769531e+002
-8.456619977951e-001  6.378662719727e+002
-8.547987937927e-001  5.039724426270e+002
-8.639713525772e-001  3.687124633789e+002
-8.731806874275e-001  2.320278625488e+002
-8.824246525764e-001  9.401040649414e+001
-8.917020559311e-001 -4.536341476440e+001
-9.010120630264e-001 -1.859612274170e+002
-9.103552103043e-001 -3.277973022461e+002
-9.197332859039e-001 -4.709787292480e+002
-9.291442036629e-001 -6.153633422852e+002
-9.385197162628e-001 -7.598867187500e+002
-9.479535222054e-001 -9.059642944336e+002
-9.574457406998e-001 -1.053651123047e+003
-9.669557213783e-001 -1.202309936523e+003
-9.764378666878e-001 -1.351102539063e+003
-9.859626889229e-001 -1.501004028320e+003
-9.955176115036e-001 -1.651878540039e+003
-1.005125045776e+000 -1.803863037109e+003
-1.014676451683e+000 -1.955209960938e+003
-1.024315476418e+000 -2.108078125000e+003
-1.033959150314e+000 -2.261022216797e+003
-1.043577432632e+000 -2.413408203125e+003
-1.053277850151e+000 -2.566883544922e+003
-1.062921762466e+000 -2.718976074219e+003
-1.072585582733e+000 -2.870624511719e+003
-1.082345485687e+000 -3.022843750000e+003
-1.092045664787e+000 -3.173011474609e+003
-1.101763367653e+000 -3.322043701172e+003
-1.111498951912e+000 -3.469635986328e+003
-1.121251463890e+000 -3.615744873047e+003
-1.130984663963e+000 -3.759712402344e+003
-1.140724778175e+000 -3.902013671875e+003
-1.150521039963e+000 -4.043375244141e+003
-1.160263061523e+000 -4.182239746094e+003
-1.170071482658e+000 -4.320520019531e+003
-1.179821372032e+000 -4.456705078125e+003
-1.189637303352e+000 -4.592639160156e+003
-1.199417591095e+000 -4.727154785156e+003
-1.209194302559e+000 -4.860791015625e+003
-1.218972086906e+000 -4.993957519531e+003
-1.228756546974e+000 -5.126659667969e+003
-1.238526701927e+000 -5.258967285156e+003
-1.248338103294e+000 -5.391651367188e+003
-1.258076906204e+000 -5.523234863281e+003
-1.267871022224e+000 -5.655736816406e+003
-1.277640342712e+000 -5.788057128906e+003
-1.287384510040e+000 -5.920398437500e+003
-1.297131299973e+000 -6.053303222656e+003
-1.306922197342e+000 -6.187504394531e+003
-1.316661000252e+000 -6.321891601563e+003
-1.326397180557e+000 -6.457442382813e+003
-1.336130976677e+000 -6.594451171875e+003
-1.345860958099e+000 -6.733139160156e+003
-1.355519771576e+000 -6.872937011719e+003
-1.365229249001e+000 -7.015812500000e+003
-1.374941945076e+000 -7.161261230469e+003
-1.384608983994e+000 -7.308551757813e+003
-1.394241571426e+000 -7.457854492188e+003
-1.403900742531e+000 -7.610129882813e+003
-1.413531422615e+000 -7.764249511719e+003
-1.423146486282e+000 -7.920165039063e+003
-1.432740449905e+000 -8.077432128906e+003
-1.442313551903e+000 -8.235722656250e+003
-1.451911330223e+000 -8.395442382813e+003
-1.461415767670e+000 -8.554048828125e+003
-1.470944881439e+000 -8.713166015625e+003
-1.480402708054e+000 -8.870732421875e+003
-1.489884138107e+000 -9.027889648438e+003
-1.499355912209e+000 -9.183648437500e+003
-1.508738994598e+000 -9.336251953125e+003
-1.518155097961e+000 -9.487468750000e+003
-1.527509570122e+000 -9.635369140625e+003
-1.536802649498e+000 -9.779847656250e+003
-1.546144485474e+000 -9.922271484375e+003
-1.555443406105e+000 -1.006106152344e+004
-1.564674973488e+000 -1.019589160156e+004
-1.573873043060e+000 -1.032708593750e+004
-1.583045840263e+000 -1.045484960938e+004
-1.592202782631e+000 -1.057893457031e+004
-1.601309537888e+000 -1.069896777344e+004
-1.610451579094e+000 -1.081608398438e+004
-1.619495749474e+000 -1.092864746094e+004
-1.628524065018e+000 -1.103779589844e+004
-1.637478113174e+000 -1.114292578125e+004
-1.646453022957e+000 -1.124550292969e+004
-1.655336380005e+000 -1.134467773438e+004
-1.664228200912e+000 -1.144199023438e+004
-1.673057794571e+000 -1.153709375000e+004
-1.681852221489e+000 -1.163083496094e+004
-1.690625309944e+000 -1.172381542969e+004
-1.699361205101e+000 -1.181653222656e+004
-1.708045959473e+000 -1.190934472656e+004
-1.716692209244e+000 -1.200292871094e+004
-1.725310683250e+000 -1.209797363281e+004
-1.733853697777e+000 -1.219441113281e+004
-1.742380142212e+000 -1.229309863281e+004
-1.750888586044e+000 -1.239417089844e+004
-1.759311914444e+000 -1.249683593750e+004
-1.767720818520e+000 -1.260170507813e+004
-1.776096463203e+000 -1.270819726563e+004
-1.784422636032e+000 -1.281551269531e+004
-1.792645215988e+000 -1.292231542969e+004
-1.800899028778e+000 -1.302974023438e+004
-1.809080362320e+000 -1.313565332031e+004
-1.817227005959e+000 -1.323979980469e+004
-1.825315117836e+000 -1.334112988281e+004
-1.833358645439e+000 -1.343911328125e+004
-1.841373205185e+000 -1.353329101563e+004
-1.849302291870e+000 -1.362215722656e+004
-1.857247829437e+000 -1.370617968750e+004
-1.865107059479e+000 -1.378382421875e+004
-1.872914910316e+000 -1.385507421875e+004
-1.880719423294e+000 -1.391992968750e+004
-1.888431549072e+000 -1.397727050781e+004
-1.896108388901e+000 -1.402716894531e+004
-1.903693079948e+000 -1.406949804688e+004
-1.911280632019e+000 -1.410472460938e+004
-1.918812274933e+000 -1.413255078125e+004
-1.926293134689e+000 -1.415298339844e+004
-1.933728575706e+000 -1.416617187500e+004
-1.941102504730e+000 -1.417278613281e+004
-1.948425769806e+000 -1.417336621094e+004
-1.955713033676e+000 -1.416854003906e+004
-1.962963104248e+000 -1.415895996094e+004
-1.970121383667e+000 -1.414553808594e+004
-1.977266311646e+000 -1.412921191406e+004
-1.984358072281e+000 -1.411086425781e+004
-1.991410017014e+000 -1.409115625000e+004
-1.998370289803e+000 -1.407076074219e+004
-2.005339384079e+000 -1.404995605469e+004
-2.012217760086e+000 -1.402955078125e+004
-2.019055604935e+000 -1.400966894531e+004
-2.025852441788e+000 -1.399037011719e+004
-2.032607316971e+000 -1.397165722656e+004
-2.039318084717e+000 -1.395342578125e+004
-2.045959234238e+000 -1.393546484375e+004
-2.052561759949e+000 -1.391720703125e+004
-2.059094667435e+000 -1.389816113281e+004
-2.065628767014e+000 -1.387744238281e+004
-2.072081327438e+000 -1.385443457031e+004
-2.078485727310e+000 -1.382828906250e+004
-2.084860563278e+000 -1.379810449219e+004
-2.091164588928e+000 -1.376334765625e+004
-2.097467660904e+000 -1.372270800781e+004
-2.103677749634e+000 -1.367565136719e+004
-2.109862565994e+000 -1.362128417969e+004
-2.116006374359e+000 -1.355914062500e+004
-2.122119188309e+000 -1.348875195313e+004
-2.128157377243e+000 -1.341020703125e+004
-2.134187459946e+000 -1.332228808594e+004
-2.140173912048e+000 -1.322583300781e+004
-2.146117448807e+000 -1.312116992188e+004
-2.152017354965e+000 -1.300884960938e+004
-2.157873630524e+000 -1.288938183594e+004
-2.163684129715e+000 -1.276335839844e+004
-2.169492483139e+000 -1.263140527344e+004
-2.175231218338e+000 -1.249603710938e+004
-2.180946350098e+000 -1.235748144531e+004
-2.186621665955e+000 -1.221716308594e+004
-2.192260503769e+000 -1.207624316406e+004
-2.197882890701e+000 -1.193539550781e+004
-2.203460931778e+000 -1.179610742188e+004
-2.208989620209e+000 -1.165922558594e+004
-2.214504718781e+000 -1.152444824219e+004
-2.219981193542e+000 -1.139301855469e+004
-2.225460529327e+000 -1.126403613281e+004
-2.230864286423e+000 -1.113915332031e+004
-2.236239194870e+000 -1.101707812500e+004
-2.241605520248e+000 -1.089709960938e+004
-2.246943473816e+000 -1.077914941406e+004
-2.252248764038e+000 -1.066235546875e+004
-2.257521390915e+000 -1.054599023438e+004
-2.262768983841e+000 -1.042919140625e+004
-2.267971038818e+000 -1.031158203125e+004
-2.273176431656e+000 -1.019103125000e+004
-2.278353691101e+000 -1.006774316406e+004
-2.283502101898e+000 -9.941384765625e+003
-2.288622379303e+000 -9.811458984375e+003
-2.293714761734e+000 -9.677558593750e+003
-2.298816204071e+000 -9.538188476563e+003
-2.303873777390e+000 -9.395072265625e+003
-2.308907747269e+000 -9.247803710938e+003
-2.313964843750e+000 -9.095258789063e+003
-2.318954229355e+000 -8.940451171875e+003
-2.323952913284e+000 -8.781374023438e+003
-2.328925609589e+000 -8.620008789063e+003
-2.333872318268e+000 -8.456900390625e+003
-2.338833332062e+000 -8.291248046875e+003
-2.343770980835e+000 -8.125066894531e+003
-2.348714590073e+000 -7.958257324219e+003
-2.353612661362e+000 -7.793364746094e+003
-2.358536243439e+000 -7.629085449219e+003
-2.363415718079e+000 -7.468816894531e+003
-2.368314504623e+000 -7.311935546875e+003
-2.373191356659e+000 -7.161439941406e+003
-2.378089427948e+000 -7.017460937500e+003
-2.382971048355e+000 -6.882651855469e+003
-2.387839078903e+000 -6.758579101563e+003
-2.392697334290e+000 -6.646648925781e+003
-2.397581577301e+000 -6.548054199219e+003
-2.402464151382e+000 -6.463368652344e+003
-2.407346725464e+000 -6.392673339844e+003
-2.412239313126e+000 -6.335615722656e+003
-2.417156934738e+000 -6.292297851563e+003
-2.422073602676e+000 -6.266330566406e+003
-2.426963567734e+000 -6.262048339844e+003
-2.431884765625e+000 -6.284557128906e+003
-2.436802387238e+000 -6.337062988281e+003
-2.441720485687e+000 -6.421422851563e+003
-2.446597099304e+000 -6.540674316406e+003
-2.451509714127e+000 -6.695553710938e+003
-2.456392526627e+000 -6.882048828125e+003
-2.461277961731e+000 -7.097240234375e+003
-2.466137647629e+000 -7.334514160156e+003
-2.471040725708e+000 -7.591791503906e+003
-2.475938558578e+000 -7.857191406250e+003
-2.480842113495e+000 -8.122883789063e+003
-2.485766172409e+000 -8.381008789063e+003
-2.490754604340e+000 -8.623505859375e+003
-2.495735645294e+000 -8.833449218750e+003
-2.500770092010e+000 -9.007351562500e+003
-2.505820274353e+000 -9.143601562500e+003
-2.510914564133e+000 -9.247591796875e+003
-2.516031503677e+000 -9.325040039063e+003
-2.521113157272e+000 -9.381773437500e+003
-2.526201963425e+000 -9.426872070313e+003
-2.531294345856e+000 -9.464878906250e+003
-2.536358118057e+000 -9.496954101563e+003
-2.541401147842e+000 -9.524143554688e+003
-2.546428203583e+000 -9.549375000000e+003
-2.551403284073e+000 -9.577350585938e+003
-2.556361913681e+000 -9.613845703125e+003
-2.561273336411e+000 -9.666571289063e+003
-2.566179990768e+000 -9.745992187500e+003
-2.571073532104e+000 -9.862831054688e+003
-2.575908660889e+000 -1.001700585938e+004
-2.580724716187e+000 -1.020788769531e+004
-2.585507869720e+000 -1.043195898438e+004
-2.590259790421e+000 -1.068414648438e+004
-2.595005512238e+000 -1.095873339844e+004
-2.599708080292e+000 -1.124465332031e+004
-2.604381799698e+000 -1.153852734375e+004
-2.609026432037e+000 -1.183899121094e+004
-2.613632440567e+000 -1.214319140625e+004
-2.618197917938e+000 -1.244867871094e+004
-2.622744560242e+000 -1.275517480469e+004
-2.627239227295e+000 -1.305921582031e+004
-2.631678581238e+000 -1.335710644531e+004
-2.636081457138e+000 -1.364587109375e+004
-2.640451669693e+000 -1.392312695313e+004
-2.644783973694e+000 -1.418919042969e+004
-2.649054765701e+000 -1.444407031250e+004
-2.653275489807e+000 -1.468907812500e+004
-2.657468318939e+000 -1.492742773438e+004
-2.661576986313e+000 -1.515941210938e+004
-2.665655851364e+000 -1.538998828125e+004
-2.669704198837e+000 -1.561894628906e+004
-2.673687458038e+000 -1.584495800781e+004
-2.677596807480e+000 -1.607018261719e+004
-2.681488990784e+000 -1.630164355469e+004
-2.685296058655e+000 -1.653684179688e+004
-2.689068794250e+000 -1.678029296875e+004
-2.692778587341e+000 -1.703187890625e+004
-2.696417808533e+000 -1.729099609375e+004
-2.699994802475e+000 -1.755523242188e+004
-2.703517913818e+000 -1.781902148438e+004
-2.706981182098e+000 -1.807674609375e+004
-2.710379123688e+000 -1.832276757813e+004
-2.713711023331e+000 -1.855114062500e+004
-2.716987371445e+000 -1.875623242188e+004
-2.720184087753e+000 -1.893548828125e+004
-2.723311424255e+000 -1.909108398438e+004
-2.726366519928e+000 -1.922435351563e+004
-2.729366302490e+000 -1.933705273438e+004
-2.732270002365e+000 -1.942901953125e+004
-2.735119104385e+000 -1.950433984375e+004
-2.737883329391e+000 -1.956325390625e+004
-2.740579843521e+000 -1.960643750000e+004
-2.743209123611e+000 -1.963555078125e+004
-2.745755195618e+000 -1.965429101563e+004
-2.748229742050e+000 -1.966809570313e+004
-2.750628232956e+000 -1.968135351563e+004
-2.752953290939e+000 -1.969828906250e+004
-2.755211591721e+000 -1.972259765625e+004
-2.757390737534e+000 -1.975601367188e+004
-2.759490728378e+000 -1.979665625000e+004
-2.761524438858e+000 -1.984281445313e+004
-2.763489961624e+000 -1.989306640625e+004
-2.765370607376e+000 -1.994621679688e+004
-2.767182111740e+000 -2.000225585938e+004
-2.768920660019e+000 -2.006087500000e+004
-2.770585298538e+000 -2.012342578125e+004
-2.772176504135e+000 -2.019108984375e+004
-2.773691892624e+000 -2.026367578125e+004
-2.775135517120e+000 -2.034075195313e+004
-2.776498556137e+000 -2.042108593750e+004
-2.777784347534e+000 -2.050491406250e+004
-2.778999567032e+000 -2.059185351563e+004
-2.780131101608e+000 -2.068021679688e+004
-2.781188249588e+000 -2.077205664063e+004
-2.782171249390e+000 -2.086866210938e+004
-2.783068418503e+000 -2.096832031250e+004
-2.783887386322e+000 -2.107026953125e+004
-2.784629583359e+000 -2.117299414063e+004
-2.785286426544e+000 -2.127325976563e+004
-2.785859346390e+000 -2.136749023438e+004
-2.786348819733e+000 -2.145064062500e+004
-2.786759853363e+000 -2.152030273438e+004
-2.787086725235e+000 -2.157364843750e+004
-2.787328004837e+000 -2.160945312500e+004
-2.787482500076e+000 -2.162770898438e+004
-2.787553787231e+000 -2.163089062500e+004
-2.787540912628e+000 -2.162216796875e+004
-2.787444114685e+000 -2.160520117188e+004
-2.787260770798e+000 -2.158248242188e+004
-2.786989927292e+000 -2.155717773438e+004
-2.786635398865e+000 -2.153380468750e+004
-2.786198139191e+000 -2.151587500000e+004
-2.785676717758e+000 -2.150575195313e+004
-2.785071372986e+000 -2.150504492188e+004
-2.784384250641e+000 -2.151452343750e+004
-2.783611536026e+000 -2.153331835938e+004
-2.782758474350e+000 -2.155789257813e+004
-2.781824111938e+000 -2.158281054688e+004
-2.780802488327e+000 -2.160158593750e+004
-2.779690265656e+000 -2.160727539063e+004
-2.778497934341e+000 -2.159360156250e+004
-2.777222633362e+000 -2.155534375000e+004
-2.775860309601e+000 -2.148976171875e+004
-2.774409770966e+000 -2.139508007813e+004
-2.772871017456e+000 -2.127258593750e+004
-2.771254062653e+000 -2.112364453125e+004
-2.769552707672e+000 -2.094841210938e+004
-2.767767190933e+000 -2.074935546875e+004
-2.765903472900e+000 -2.053000000000e+004
-2.763950109482e+000 -2.028898242188e+004
-2.761919975281e+000 -2.003449609375e+004
-2.759814977646e+000 -1.977172265625e+004
-2.757638216019e+000 -1.950584179688e+004
-2.755385398865e+000 -1.924619335938e+004
-2.753054618835e+000 -1.899649023438e+004
-2.750650167465e+000 -1.876488085938e+004
-2.748174190521e+000 -1.855671093750e+004
-2.745644330978e+000 -1.837749804688e+004
-2.743029832840e+000 -1.822734179688e+004
-2.740361690521e+000 -1.811116992188e+004
-2.737613916397e+000 -1.802576757813e+004
-2.734804630280e+000 -1.797030273438e+004
-2.731938838959e+000 -1.794066015625e+004
-2.728988647461e+000 -1.793231640625e+004
-2.725978612900e+000 -1.793918750000e+004
-2.722904205322e+000 -1.795209960938e+004
-2.719770669937e+000 -1.796175781250e+004
-2.716556787491e+000 -1.795978710938e+004
-2.713277816772e+000 -1.793927148438e+004
-2.709934949875e+000 -1.789511523438e+004
-2.706518173218e+000 -1.782623828125e+004
-2.703050136566e+000 -1.773340429688e+004
-2.699499845505e+000 -1.761843945313e+004
-2.695888996124e+000 -1.748465820313e+004
-2.692218065262e+000 -1.733493750000e+004
-2.688485622406e+000 -1.717377734375e+004
-2.684660911560e+000 -1.700282031250e+004
-2.680795907974e+000 -1.682788671875e+004
-2.676851749420e+000 -1.664965234375e+004
-2.672862768173e+000 -1.647039648438e+004
-2.668781995773e+000 -1.628876464844e+004
-2.664664268494e+000 -1.610639550781e+004
-2.660482883453e+000 -1.592063281250e+004
-2.656243562698e+000 -1.572912890625e+004
-2.651943922043e+000 -1.553032128906e+004
-2.647589683533e+000 -1.532419921875e+004
-2.643198490143e+000 -1.511169531250e+004
-2.638732433319e+000 -1.489127441406e+004
-2.634215116501e+000 -1.466729296875e+004
-2.629654407501e+000 -1.444169042969e+004
-2.625049114227e+000 -1.421706933594e+004
-2.620392084122e+000 -1.399290820313e+004
-2.615702629089e+000 -1.377325683594e+004
-2.610930681229e+000 -1.355520117188e+004
-2.606146574020e+000 -1.334379394531e+004
-2.601282835007e+000 -1.313467675781e+004
-2.596403598785e+000 -1.292964941406e+004
-2.591466665268e+000 -1.272576464844e+004
-2.586522579193e+000 -1.252481152344e+004
-2.581516742706e+000 -1.231837304688e+004
-2.576455831528e+000 -1.210384375000e+004
-2.571361303329e+000 -1.188093652344e+004
-2.566228866577e+000 -1.164649023438e+004
-2.561065196991e+000 -1.139924511719e+004
-2.555878877640e+000 -1.113919238281e+004
-2.550637006760e+000 -1.086925097656e+004
-2.545356750488e+000 -1.059224023438e+004
-2.540074586868e+000 -1.031203125000e+004
-2.534718275070e+000 -1.002698730469e+004
-2.529383182526e+000 -9.744776367188e+003
-2.523995876312e+000 -9.462541015625e+003
-2.518593788147e+000 -9.186286132813e+003
-2.513151884079e+000 -8.913327148438e+003
-2.507713079453e+000 -8.648742187500e+003
-2.502259016037e+000 -8.395215820313e+003
-2.496776819229e+000 -8.153854980469e+003
-2.491274118423e+000 -7.927782226563e+003
-2.485747337341e+000 -7.718764160156e+003
-2.480230808258e+000 -7.528637207031e+003
-2.474681138992e+000 -7.358984863281e+003
-2.469138622284e+000 -7.207875000000e+003
-2.463558435440e+000 -7.073527343750e+003
-2.457979917526e+000 -6.953458984375e+003
-2.452402353287e+000 -6.844311523438e+003
-2.446789026260e+000 -6.741633789063e+003
-2.441179752350e+000 -6.640183105469e+003
-2.435559511185e+000 -6.535303710938e+003
-2.429928064346e+000 -6.420861816406e+003
-2.424285411835e+000 -6.290924804688e+003
-2.418648481369e+000 -6.137718750000e+003
-2.412993907928e+000 -5.957494628906e+003
-2.407336711884e+000 -5.744310058594e+003
-2.401688098907e+000 -5.496663085938e+003
-2.396018981934e+000 -5.209206542969e+003
-2.390355348587e+000 -4.879348632813e+003
-2.384670019150e+000 -4.510062011719e+003
-2.378986835480e+000 -4.104635253906e+003
-2.373338460922e+000 -3.669936523438e+003
-2.367676019669e+000 -3.211188720703e+003
-2.362026929855e+000 -2.738654296875e+003
-2.356378078461e+000 -2.263708251953e+003
-2.350739717484e+000 -1.796070312500e+003
-2.345111608505e+000 -1.344641113281e+003
-2.339522600174e+000 -9.164429321289e+002
-2.333928108215e+000 -5.174936523438e+002
-2.328332901001e+000 -1.457295989990e+002
-2.322777032852e+000  1.977819519043e+002
-2.317234754562e+000  5.181903076172e+002
-2.311702489853e+000  8.236210937500e+002
-2.306221246719e+000  1.114658203125e+003
-2.300748586655e+000  1.402922607422e+003
-2.295302867889e+000  1.691920043945e+003
-2.289866209030e+000  1.983005859375e+003
-2.284483671188e+000  2.280293701172e+003
-2.279127120972e+000  2.582521240234e+003
-2.273783922195e+000  2.893577148438e+003
-2.268453359604e+000  3.207780029297e+003
-2.263178110123e+000  3.521518066406e+003
-2.257941007614e+000  3.834674804688e+003
-2.252737283707e+000  4.141095703125e+003
-2.247572183609e+000  4.435240722656e+003
-2.242453336716e+000  4.710307617188e+003
-2.237356901169e+000  4.962641601563e+003
-2.232315063477e+000  5.183625976563e+003
-2.227309703827e+000  5.366975585938e+003
-2.222334861755e+000  5.512337890625e+003
-2.217432737350e+000  5.621123046875e+003
-2.212562561035e+000  5.698858886719e+003
-2.207718849182e+000  5.753609375000e+003
-2.202937126160e+000  5.796099121094e+003
-2.198205471039e+000  5.841409179688e+003
-2.193507909775e+000  5.902901367188e+003
-2.188872098923e+000  5.993708984375e+003
-2.184262275696e+000  6.124993652344e+003
-2.179702281952e+000  6.308072753906e+003
-2.175155639648e+000  6.549852539063e+003
-2.170649290085e+000  6.848941406250e+003
-2.166151523590e+000  7.208812011719e+003
-2.161671400070e+000  7.624700683594e+003
-2.157220363617e+000  8.092459960938e+003
-2.152778863907e+000  8.599205078125e+003
-2.148316621780e+000  9.138618164063e+003
-2.143869161606e+000  9.691364257813e+003
-2.139406681061e+000  1.024663378906e+004
-2.134935617447e+000  1.078489160156e+004
-2.130481481552e+000  1.129075781250e+004
-2.125993490219e+000  1.175519824219e+004
-2.121536254883e+000  1.216175097656e+004
-2.117071151733e+000  1.250821484375e+004
-2.112607955933e+000  1.278763378906e+004
-2.108180761337e+000  1.299900781250e+004
-2.103782892227e+000  1.314887207031e+004
-2.099428176880e+000  1.324266210938e+004
-2.095117807388e+000  1.328772363281e+004
-2.090855598450e+000  1.329093164063e+004
-2.086664438248e+000  1.326453027344e+004
-2.082529306412e+000  1.321860156250e+004
-2.078479051590e+000  1.316146289063e+004
-2.074482202530e+000  1.309863867188e+004
-2.070537328720e+000  1.303409863281e+004
-2.066659688950e+000  1.296988281250e+004
-2.062846899033e+000  1.290660644531e+004
-2.059107065201e+000  1.284443945313e+004
-2.055429220200e+000  1.278381445313e+004
-2.051797389984e+000  1.272570312500e+004
-2.048215866089e+000  1.267172265625e+004
-2.044725179672e+000  1.262400781250e+004
-2.041266441345e+000  1.258308789063e+004
-2.037856340408e+000  1.255047167969e+004
-2.034528493881e+000  1.252758496094e+004
-2.031230688095e+000  1.251369726563e+004
-2.028007507324e+000  1.250824218750e+004
-2.024835348129e+000  1.251013085938e+004
-2.021702051163e+000  1.251803222656e+004
-2.018622636795e+000  1.253085839844e+004
-2.015620946884e+000  1.254762207031e+004
-2.012665271759e+000  1.256867968750e+004
-2.009753465652e+000  1.259503125000e+004
-2.006909132004e+000  1.262780175781e+004
-2.004112482071e+000  1.266919531250e+004
-2.001366376877e+000  1.272103027344e+004
-1.998695254326e+000  1.278334472656e+004
-1.996058344841e+000  1.285705078125e+004
-1.993474602699e+000  1.293950683594e+004
-1.990967631340e+000  1.302707519531e+004
-1.988497018814e+000  1.311550390625e+004
-1.986079454422e+000  1.319781835938e+004
-1.983716964722e+000  1.326711230469e+004
-1.981407999992e+000  1.331744628906e+004
-1.979159116745e+000  1.334177636719e+004
-1.976954460144e+000  1.333652734375e+004
-1.974804759026e+000  1.330007324219e+004
-1.972711563110e+000  1.323161523438e+004
-1.970674514771e+000  1.313141894531e+004
-1.968697071075e+000  1.299843261719e+004
-1.966769337654e+000  1.283045019531e+004
-1.964905261993e+000  1.263164257813e+004
-1.963085889816e+000  1.239869140625e+004
-1.961328983307e+000  1.213588476563e+004
-1.959637284279e+000  1.184648046875e+004
-1.957986354828e+000  1.153075390625e+004
-1.956398487091e+000  1.119876757813e+004
-1.954859018326e+000  1.084966113281e+004
-1.953373670578e+000  1.049311914063e+004
-1.951943874359e+000  1.012882519531e+004
-1.950554490089e+000  9.761869140625e+003
-1.949224233627e+000  9.403696289063e+003
-1.947925925255e+000  9.052873046875e+003
-1.946674942970e+000  8.718736328125e+003
-1.945476293564e+000  8.411829101563e+003
-1.944314122200e+000  8.131185058594e+003
-1.943192481995e+000  7.878024414063e+003
-1.942116141319e+000  7.655177246094e+003
-1.941080451012e+000  7.460534179688e+003
-1.940085768700e+000  7.294899414063e+003
-1.939131617546e+000  7.155414550781e+003
-1.938215494156e+000  7.041010742188e+003
-1.937331557274e+000  6.948907226563e+003
-1.936486721039e+000  6.875878417969e+003
-1.935678839684e+000  6.816973144531e+003
-1.934910893440e+000  6.764932128906e+003
-1.934181094170e+000  6.712767578125e+003
-1.933482050896e+000  6.653108886719e+003
-1.932819247246e+000  6.579330078125e+003
-1.932193517685e+000  6.483430175781e+003
-1.931598186493e+000  6.358170410156e+003
-1.931039333344e+000  6.200339843750e+003
-1.930508732796e+000  6.003058593750e+003
-1.930012226105e+000  5.766381347656e+003
-1.929548740387e+000  5.485450683594e+003
-1.929116725922e+000  5.164607910156e+003
-1.928711533546e+000  4.805796386719e+003
-1.928337931633e+000  4.421223632813e+003
-1.927991509438e+000  4.015481201172e+003
-1.927670717239e+000  3.596563964844e+003
-1.927378773689e+000  3.178900390625e+003
-1.927111148834e+000  2.772714355469e+003
-1.926868200302e+000  2.385446533203e+003
-1.926646232605e+000  2.018419799805e+003
-1.926449537277e+000  1.683270263672e+003
-1.926275372505e+000  1.379785278320e+003
-1.926122546196e+000  1.105712402344e+003
-1.925990104675e+000  8.571005859375e+002
-1.925876975060e+000  6.274743041992e+002
-1.925783038139e+000  4.085184936523e+002
-1.925707817078e+000  1.901759948730e+002
-1.925649404526e+000 -3.600171661377e+001
-1.925606608391e+000 -2.780280151367e+002
-1.925578951836e+000 -5.422625122070e+002
-1.925566434860e+000 -8.332184448242e+002
-1.925567746162e+000 -1.147500000000e+003
-1.925581097603e+000 -1.481077514648e+003
-1.925604820251e+000 -1.825302246094e+003
-1.925637125969e+000 -2.175559326172e+003
-1.925676107407e+000 -2.521349365234e+003
-1.925719261169e+000 -2.847948974609e+003
-1.925764918327e+000 -3.152518554688e+003
-1.925810813904e+000 -3.426569824219e+003
-1.925855994225e+000 -3.667836914063e+003
-1.925898432732e+000 -3.872327148438e+003
-1.925937294960e+000 -4.041962646484e+003
-1.925972223282e+000 -4.182737304688e+003
-1.926002383232e+000 -4.299056152344e+003
-1.926027894020e+000 -4.399663085938e+003
-1.926048755646e+000 -4.490513183594e+003
-1.926064729691e+000 -4.580544433594e+003
-1.926075339317e+000 -4.678915527344e+003
-1.926079511642e+000 -4.792510253906e+003
-1.926076412201e+000 -4.926168945313e+003
-1.926066398621e+000 -5.085826660156e+003
-1.926049828529e+000 -5.270926757813e+003
-1.926026821136e+000 -5.479361328125e+003
-1.925996422768e+000 -5.713195312500e+003
-1.925958275795e+000 -5.964750000000e+003
-1.925911307335e+000 -6.235474121094e+003
-1.925854802132e+000 -6.520950195313e+003
-1.925788402557e+000 -6.816908691406e+003
-1.925711154938e+000 -7.115670898438e+003
-1.925621628761e+000 -7.416897460938e+003
-1.925518512726e+000 -7.713615722656e+003
-1.925399780273e+000 -8.002495117188e+003
-1.925264000893e+000 -8.282770507813e+003
-1.925110697746e+000 -8.551656250000e+003
-1.924935817719e+000 -8.812958984375e+003
-1.924739599228e+000 -9.063987304688e+003
-1.924519419670e+000 -9.308531250000e+003
-1.924274563789e+000 -9.544921875000e+003
-1.924002408981e+000 -9.775235351563e+003
-1.923701643944e+000 -9.996614257813e+003
-1.923372387886e+000 -1.020603125000e+004
-1.923010349274e+000 -1.040436328125e+004
-1.922615051270e+000 -1.058970410156e+004
-1.922187566757e+000 -1.076205273438e+004
-1.921730399132e+000 -1.091832226563e+004
-1.921238183975e+000 -1.106056640625e+004
-1.920713186264e+000 -1.118901660156e+004
-1.920159816742e+000 -1.130375292969e+004
-1.919568061829e+000 -1.140859179688e+004
-1.918945550919e+000 -1.150151269531e+004
-1.918289184570e+000 -1.158444140625e+004
-1.917591452599e+000 -1.165845800781e+004
-1.916859626770e+000 -1.172624218750e+004
-1.916089773178e+000 -1.179015625000e+004
-1.915283441544e+000 -1.185273925781e+004
-1.914436340332e+000 -1.191670507813e+004
-1.913553595543e+000 -1.198432714844e+004
-1.912627816200e+000 -1.205677148438e+004
-1.911663532257e+000 -1.213439160156e+004
-1.910666465759e+000 -1.221667187500e+004
-1.909627437592e+000 -1.230449609375e+004
-1.908540606499e+000 -1.239841992188e+004
-1.907416105270e+000 -1.249612304688e+004
-1.906254410744e+000 -1.259707031250e+004
-1.905053615570e+000 -1.270055664063e+004
-1.903813481331e+000 -1.280712695313e+004
-1.902523159981e+000 -1.291945214844e+004
-1.901195764542e+000 -1.303715234375e+004
-1.899825096130e+000 -1.316371972656e+004
-1.898403286934e+000 -1.330016992188e+004
-1.896938204765e+000 -1.344617773438e+004
-1.895428180695e+000 -1.360032910156e+004
-1.893870353699e+000 -1.375905468750e+004
-1.892261505127e+000 -1.391860839844e+004
-1.890605568886e+000 -1.407320410156e+004
-1.888902187347e+000 -1.421944335938e+004
-1.887132883072e+000 -1.435438378906e+004
-1.885327935219e+000 -1.447521777344e+004
-1.883466839790e+000 -1.458285351563e+004
-1.881552457809e+000 -1.467630761719e+004
-1.879585623741e+000 -1.475658300781e+004
-1.877569317818e+000 -1.482384082031e+004
-1.875495791435e+000 -1.488071093750e+004
-1.873364448547e+000 -1.492924121094e+004
-1.871181964874e+000 -1.497160742188e+004
-1.868954420090e+000 -1.501129394531e+004
-1.866662025452e+000 -1.505197656250e+004
-1.864317178726e+000 -1.509516699219e+004
-1.861923456192e+000 -1.514217285156e+004
-1.859471678734e+000 -1.519307714844e+004
-1.856960654259e+000 -1.524618359375e+004
-1.854397058487e+000 -1.529716894531e+004
-1.851774811745e+000 -1.534262695313e+004
-1.849099040031e+000 -1.537766406250e+004
-1.846369147301e+000 -1.539828125000e+004
-1.843573927879e+000 -1.540072363281e+004
-1.840723514557e+000 -1.538117089844e+004
-1.837811946869e+000 -1.533949414063e+004
-1.834844112396e+000 -1.527624316406e+004
-1.831819772720e+000 -1.519287988281e+004
-1.828739643097e+000 -1.509199023438e+004
-1.825594902039e+000 -1.497736425781e+004
-1.822410583496e+000 -1.485578222656e+004
-1.819162249565e+000 -1.473230859375e+004
-1.815853714943e+000 -1.461207324219e+004
-1.812517404556e+000 -1.450228320313e+004
-1.809111356735e+000 -1.440795019531e+004
-1.805654764175e+000 -1.433339453125e+004
-1.802137255669e+000 -1.428238964844e+004
-1.798590064049e+000 -1.425779101563e+004
-1.794993281364e+000 -1.426095996094e+004
-1.791327476501e+000 -1.429358203125e+004
-1.787615060806e+000 -1.435190039063e+004
-1.783846020699e+000 -1.443212890625e+004
-1.780016660690e+000 -1.452964062500e+004
-1.776163339615e+000 -1.463698437500e+004
-1.772227048874e+000 -1.474920996094e+004
-1.768230915070e+000 -1.485974218750e+004
-1.764215230942e+000 -1.496349218750e+004
-1.760097384453e+000 -1.505787207031e+004
-1.755967020988e+000 -1.513759570313e+004
-1.751759409904e+000 -1.519925292969e+004
-1.747491002083e+000 -1.524061523438e+004
-1.743176937103e+000 -1.526004394531e+004
-1.738791584969e+000 -1.525604589844e+004
-1.734392642975e+000 -1.522839257813e+004
-1.729909777641e+000 -1.517617773438e+004
-1.725371122360e+000 -1.510322949219e+004
-1.720791101456e+000 -1.501259375000e+004
-1.716169357300e+000 -1.490769824219e+004
-1.711469650269e+000 -1.479133886719e+004
-1.706745505333e+000 -1.466871582031e+004
-1.701921105385e+000 -1.453850195313e+004
-1.697021603584e+000 -1.440349023438e+004
-1.692026376724e+000 -1.426250585938e+004
-1.686910510063e+000 -1.411495410156e+004
-1.681684494019e+000 -1.395858496094e+004
-1.676300883293e+000 -1.379265136719e+004
-1.670781493187e+000 -1.361825683594e+004
-1.665148735046e+000 -1.343759667969e+004
-1.659446477890e+000 -1.325565527344e+004
-1.653678059578e+000 -1.307420507813e+004
-1.648045659065e+000 -1.290445703125e+004
-1.642605781555e+000 -1.274783691406e+004
-1.637596130371e+000 -1.261105078125e+004
-1.633142590523e+000 -1.249618066406e+004
-1.629551291466e+000 -1.240867089844e+004
-1.626895546913e+000 -1.234677734375e+004
-1.625241279602e+000 -1.230975097656e+004
-1.624499559402e+000 -1.229382910156e+004
-1.624353766441e+000 -1.229079785156e+004
endcurve
