Curveplot
LS-DYNA keyword deck by LS-PrePost
Time
Yrot-displ
Rigid Body Ids
300001 #pts=1800
* Minval=    -1.5979653931e+02 at time=       105.3986968994
* Maxval=     3.6310945870e-04 at time=         6.0992331505
    0.0000000000e+00   -6.2248922461e-08
    9.9515393376e-02   -3.1208735152e-08
    1.9903080165e-01    1.0803194783e-08
    2.9860639572e-01    6.4897839991e-08
    3.9939481020e-01    1.3189023207e-07
    4.9855768681e-01    2.1216789037e-07
    5.9901922941e-01    3.0554187447e-07
    6.9853448868e-01    4.1108322080e-07
    7.9927992821e-01    5.2694866781e-07
    8.9932858944e-01    6.5020378770e-07
    9.9899882078e-01    7.7665401932e-07
    1.0999159813e+00    9.0069517000e-07
    1.1989239454e+00    1.0151898096e-06
    1.2987829447e+00    1.1113822893e-06
    1.3992270231e+00    1.1788713437e-06
    1.4988030195e+00    1.2056671039e-06
    1.5999100208e+00    1.1783494074e-06
    1.6992959976e+00    1.0823429193e-06
    1.7990609407e+00    9.0232606453e-07
    1.8999789953e+00    6.2280048496e-07
    1.9988750219e+00    2.2886182194e-07
    2.0997920036e+00   -2.9278911029e-07
    2.1989901066e+00   -9.5256990562e-07
    2.2993240356e+00   -1.7564849486e-06
    2.3988070488e+00   -2.7043877253e-06
    2.4984788895e+00   -3.7881234221e-06
    2.5993049145e+00   -4.9896752898e-06
    2.6987879276e+00   -6.2794547375e-06
    2.7998030186e+00   -7.6148844528e-06
    2.8990960121e+00   -8.9394088718e-06
    2.9995419979e+00   -1.0182038750e-05
    3.0991170406e+00   -1.1257477126e-05
    3.1997489929e+00   -1.2066861927e-05
    3.2997169495e+00   -1.2499080185e-05
    3.3990991116e+00   -1.2432621588e-05
    3.4996309280e+00   -1.1737875866e-05
    3.5987250805e+00   -1.0279799426e-05
    3.6997249126e+00   -7.9208557509e-06
    3.7993819714e+00   -4.5241267799e-06
    3.8989410400e+00    4.3456630294e-08
    3.9985930920e+00    5.9078192862e-06
    4.0994892120e+00    1.3184378076e-05
    4.1994352341e+00    2.1974630727e-05
    4.2986822128e+00    3.2362622733e-05
    4.3999462128e+00    4.4411204726e-05
    4.4995818138e+00    5.8158002503e-05
    4.5990238190e+00    7.3611074185e-05
    4.6998019218e+00    9.0744142653e-05
    4.7991399765e+00    1.0949141142e-04
    4.8986630440e+00    1.2974209676e-04
    4.9995207787e+00    1.5133457782e-04
    5.0999951363e+00    1.7405045219e-04
    5.1992177963e+00    1.9760862051e-04
    5.2994751930e+00    2.2165948758e-04
    5.3989710808e+00    2.4577914155e-04
    5.4998788834e+00    2.6946407161e-04
    5.5987811089e+00    2.9212620575e-04
    5.6992068291e+00    3.1308870530e-04
    5.7997241020e+00    3.3158223960e-04
    5.8992738724e+00    3.4674201743e-04
    5.9996891022e+00    3.5760528408e-04
    6.0992331505e+00    3.6310945870e-04
    6.1990580559e+00    3.6209056270e-04
    6.2991647720e+00    3.5328199738e-04
    6.3991751671e+00    3.3531320514e-04
    6.4996562004e+00    3.0670862179e-04
    6.5997571945e+00    2.6588598848e-04
    6.6991009712e+00    2.1115460549e-04
    6.7987279892e+00    1.4071338228e-04
    6.8985428810e+00    5.2649313147e-05
    6.9995098114e+00   -5.5064585467e-05
    7.0985507965e+00   -1.8457170518e-04
    7.1999888420e+00   -3.3813493792e-04
    7.2998027802e+00   -5.1814009203e-04
    7.3988451958e+00   -7.2709959932e-04
    7.4992280006e+00   -9.6765422495e-04
    7.5998950005e+00   -1.2425743043e-03
    7.6989412308e+00   -1.5547602670e-03
    7.7996129990e+00   -1.9072431605e-03
    7.8986649513e+00   -2.3031828459e-03
    7.9993448257e+00   -2.7458639815e-03
    8.0984048843e+00   -3.2386926468e-03
    8.1990928650e+00   -3.7851878442e-03
    8.2997865677e+00   -4.3889791705e-03
    8.3988618851e+00   -5.0538005307e-03
    8.4995660782e+00   -5.7834889740e-03
    8.5986518860e+00   -6.5819765441e-03
    8.6993675232e+00   -7.4532837607e-03
    8.7984638214e+00   -8.4015103057e-03
    8.8991909027e+00   -9.4308303669e-03
    8.9999227524e+00   -1.0545483790e-02
    9.0990362167e+00   -1.1749777943e-02
    9.1997804642e+00   -1.3048090972e-02
    9.2989034653e+00   -1.4444861561e-02
    9.3996572495e+00   -1.5944592655e-02
    9.4987916946e+00   -1.7551831901e-02
    9.5995569229e+00   -1.9271174446e-02
    9.6987037659e+00   -2.1107248962e-02
    9.7994823456e+00   -2.3064706475e-02
    9.8986415863e+00   -2.5148220360e-02
    9.9994325638e+00   -2.7362469584e-02
    1.0098600388e+01   -2.9712131247e-02
    1.0199410439e+01   -3.2201875001e-02
    1.0298589706e+01   -3.4836344421e-02
    1.0399399757e+01   -3.7620157003e-02
    1.0498600006e+01   -4.0557898581e-02
    1.0599419594e+01   -4.3654102832e-02
    1.0698619843e+01   -4.6913262457e-02
    1.0799449921e+01   -5.0339806825e-02
    1.0898659706e+01   -5.3938116878e-02
    1.0999500275e+01   -5.7712499052e-02
    1.1098710060e+01   -6.1667203903e-02
    1.1199549675e+01   -6.5806411207e-02
    1.1298769951e+01   -7.0134222507e-02
    1.1399609566e+01   -7.4654683471e-02
    1.1498829842e+01   -7.9371765256e-02
    1.1599670410e+01   -8.4289371967e-02
    1.1698889732e+01   -8.9411340654e-02
    1.1799730301e+01   -9.4741456211e-02
    1.1898949623e+01   -1.0028343648e-01
    1.1999790192e+01   -1.0604093969e-01
    1.2098999977e+01   -1.1201755702e-01
    1.2199830055e+01   -1.1821684241e-01
    1.2298950195e+01   -1.2464229017e-01
    1.2399399757e+01   -1.3129733503e-01
    1.2498600006e+01   -1.3818536699e-01
    1.2599419594e+01   -1.4530965686e-01
    1.2698610306e+01   -1.5267342329e-01
    1.2799409866e+01   -1.6027978063e-01
    1.2898590088e+01   -1.6813172400e-01
    1.2998909950e+01   -1.7623220384e-01
    1.3098939896e+01   -1.8458406627e-01
    1.3199720383e+01   -1.9319006801e-01
    1.3298870087e+01   -2.0205292106e-01
    1.3399629593e+01   -2.1117530763e-01
    1.3498760223e+01   -2.2055993974e-01
    1.3599510193e+01   -2.3020949960e-01
    1.3698630333e+01   -2.4012665451e-01
    1.3799360275e+01   -2.5031402707e-01
    1.3898460388e+01   -2.6077422500e-01
    1.3999179840e+01   -2.7150976658e-01
    1.4099419594e+01   -2.8252309561e-01
    1.4199839592e+01   -2.9381665587e-01
    1.4299960136e+01   -3.0539298058e-01
    1.4398650169e+01   -3.1725466251e-01
    1.4499329567e+01   -3.2940435410e-01
    1.4600000381e+01   -3.4184482694e-01
    1.4699029922e+01   -3.5457882285e-01
    1.4799690247e+01   -3.6760923266e-01
    1.4899860382e+01   -3.8093903661e-01
    1.4998490334e+01   -3.9457127452e-01
    1.5099120140e+01   -4.0850919485e-01
    1.5199740410e+01   -4.2275592685e-01
    1.5298729897e+01   -4.3731474876e-01
    1.5399339676e+01   -4.5218887925e-01
    1.5499939919e+01   -4.6738168597e-01
    1.5598919868e+01   -4.8289665580e-01
    1.5699500084e+01   -4.9873739481e-01
    1.5798469543e+01   -5.1490759850e-01
    1.5899049759e+01   -5.3141117096e-01
    1.5999620438e+01   -5.4825180769e-01
    1.6098569870e+01   -5.6543338299e-01
    1.6199129105e+01   -5.8295977116e-01
    1.6299690247e+01   -6.0083502531e-01
    1.6398620605e+01   -6.1906313896e-01
    1.6499170303e+01   -6.3764834404e-01
    1.6599710464e+01   -6.5659481287e-01
    1.6698629379e+01   -6.7590713501e-01
    1.6799169540e+01   -6.9558966160e-01
    1.6899700165e+01   -7.1564728022e-01
    1.6998609543e+01   -7.3608469963e-01
    1.7099140167e+01   -7.5690698624e-01
    1.7199670792e+01   -7.7811926603e-01
    1.7298570633e+01   -7.9972666502e-01
    1.7399089813e+01   -8.2173454762e-01
    1.7499610901e+01   -8.4414827824e-01
    1.7598510742e+01   -8.6697328091e-01
    1.7699039459e+01   -8.9021497965e-01
    1.7799560547e+01   -9.1387879848e-01
    1.7898460388e+01   -9.3797022104e-01
    1.7998979568e+01   -9.6249455214e-01
    1.8099500656e+01   -9.8745727539e-01
    1.8200029373e+01   -1.0128636360e+00
    1.8298929214e+01   -1.0387190580e+00
    1.8399450302e+01   -1.0650291443e+00
    1.8499969482e+01   -1.0917996168e+00
    1.8598869324e+01   -1.1190361977e+00
    1.8699399948e+01   -1.1467448473e+00
    1.8799919128e+01   -1.1749316454e+00
    1.8898820877e+01   -1.2036025524e+00
    1.8999340057e+01   -1.2327637672e+00
    1.9099859238e+01   -1.2624213696e+00
    1.9198759079e+01   -1.2925815582e+00
    1.9299280167e+01   -1.3232504129e+00
    1.9399789810e+01   -1.3544341326e+00
    1.9498689651e+01   -1.3861390352e+00
    1.9599199295e+01   -1.4183710814e+00
    1.9699720383e+01   -1.4511365891e+00
    1.9798599243e+01   -1.4844413996e+00
    1.9899110794e+01   -1.5182915926e+00
    1.9999620438e+01   -1.5526928902e+00
    2.0098499298e+01   -1.5876506567e+00
    2.0198999405e+01   -1.6231702566e+00
    2.0299489975e+01   -1.6592569351e+00
    2.0399980545e+01   -1.6959153414e+00
    2.0498849869e+01   -1.7331507206e+00
    2.0599330902e+01   -1.7709677219e+00
    2.0699800491e+01   -1.8093714714e+00
    2.0798650742e+01   -1.8483668566e+00
    2.0899110794e+01   -1.8879588842e+00
    2.0999559402e+01   -1.9281523228e+00
    2.1100000381e+01   -1.9689517021e+00
    2.1198820114e+01   -2.0103619099e+00
    2.1299249649e+01   -2.0523877144e+00
    2.1399679184e+01   -2.0950336456e+00
    2.1498470306e+01   -2.1383047104e+00
    2.1598880768e+01   -2.1822047234e+00
    2.1699270248e+01   -2.2267379761e+00
    2.1799659729e+01   -2.2719078064e+00
    2.1900039673e+01   -2.3177182674e+00
    2.1998790741e+01   -2.3641722202e+00
    2.2099149704e+01   -2.4112741947e+00
    2.2199499130e+01   -2.4590275288e+00
    2.2299840927e+01   -2.5074365139e+00
    2.2398550034e+01   -2.5565049648e+00
    2.2498870850e+01   -2.6062366962e+00
    2.2599180222e+01   -2.6566352844e+00
    2.2699480057e+01   -2.7077038288e+00
    2.2799760818e+01   -2.7594454288e+00
    2.2900039673e+01   -2.8118634224e+00
    2.2998689651e+01   -2.8649613857e+00
    2.3098939896e+01   -2.9187431335e+00
    2.3199180603e+01   -2.9732124805e+00
    2.3299409866e+01   -3.0283727646e+00
    2.3399629593e+01   -3.0842275620e+00
    2.3499839783e+01   -3.1407797337e+00
    2.3600030899e+01   -3.1980335712e+00
    2.3698600769e+01   -3.2559933662e+00
    2.3798770905e+01   -3.3146631718e+00
    2.3898929596e+01   -3.3740475178e+00
    2.3999080658e+01   -3.4341497421e+00
    2.4099220276e+01   -3.4949727058e+00
    2.4199340820e+01   -3.5565192699e+00
    2.4299459457e+01   -3.6187911034e+00
    2.4399560928e+01   -3.6817901134e+00
    2.4499649048e+01   -3.7455182076e+00
    2.4599729538e+01   -3.8099770546e+00
    2.4699800491e+01   -3.8751683235e+00
    2.4799860001e+01   -3.9410943985e+00
    2.4899900436e+01   -4.0077567101e+00
    2.4999940872e+01   -4.0751576424e+00
    2.5099960327e+01   -4.1433000565e+00
    2.5199970245e+01   -4.2121863365e+00
    2.5299980164e+01   -4.2818193436e+00
    2.5399969101e+01   -4.3522033691e+00
    2.5499950409e+01   -4.4233407974e+00
    2.5599920273e+01   -4.4952359200e+00
    2.5699880600e+01   -4.5678935051e+00
    2.5799829483e+01   -4.6413178444e+00
    2.5899770737e+01   -4.7155146599e+00
    2.5999700546e+01   -4.7904887199e+00
    2.6099620819e+01   -4.8662457466e+00
    2.6199539185e+01   -4.9427919388e+00
    2.6299440384e+01   -5.0201325417e+00
    2.6399330139e+01   -5.0982742310e+00
    2.6499210358e+01   -5.1772227287e+00
    2.6599079132e+01   -5.2569847107e+00
    2.6698949814e+01   -5.3375654221e+00
    2.6798799515e+01   -5.4189701080e+00
    2.6898649216e+01   -5.5012035370e+00
    2.6998479843e+01   -5.5842690468e+00
    2.7099910736e+01   -5.6681699753e+00
    2.7199720383e+01   -5.7529091835e+00
    2.7299449921e+01   -5.8384895325e+00
    2.7399070740e+01   -5.9249153137e+00
    2.7498580933e+01   -6.0121917725e+00
    2.7599599838e+01   -6.1003236771e+00
    2.7698909760e+01   -6.1893157959e+00
    2.7799709320e+01   -6.2791728973e+00
    2.7898799896e+01   -6.3698997498e+00
    2.7999380112e+01   -6.4615006447e+00
    2.8099849701e+01   -6.5539808273e+00
    2.8198610306e+01   -6.6473455429e+00
    2.8298860550e+01   -6.7416005135e+00
    2.8398990631e+01   -6.8367500305e+00
    2.8499010086e+01   -6.9327993393e+00
    2.8598920822e+01   -7.0297517776e+00
    2.8698709488e+01   -7.1276111603e+00
    2.8799970627e+01   -7.2263808250e+00
    2.8899539948e+01   -7.3260645866e+00
    2.8998989105e+01   -7.4266643524e+00
    2.9099910736e+01   -7.5281848907e+00
    2.9199129105e+01   -7.6306300163e+00
    2.9299829483e+01   -7.7340035439e+00
    2.9398830414e+01   -7.8383092880e+00
    2.9499300003e+01   -7.9435501099e+00
    2.9599660873e+01   -8.0497293472e+00
    2.9699909210e+01   -8.1568508148e+00
    2.9800050735e+01   -8.2649183273e+00
    2.9898529053e+01   -8.3739356995e+00
    3.0000019073e+01   -8.4839086533e+00
    3.0099840164e+01   -8.5948400497e+00
    3.0199560165e+01   -8.7067356110e+00
    3.0299179077e+01   -8.8196010590e+00
    3.0398700714e+01   -8.9334411621e+00
    3.0499670029e+01   -9.0482597351e+00
    3.0598989487e+01   -9.1640596390e+00
    3.0699760437e+01   -9.2808427811e+00
    3.0798889160e+01   -9.3986129761e+00
    3.0899480820e+01   -9.5173721313e+00
    3.0999980927e+01   -9.6371202469e+00
    3.1098840714e+01   -9.7578611374e+00
    3.1199159622e+01   -9.8795948029e+00
    3.1299390793e+01   -1.0002323151e+01
    3.1399539948e+01   -1.0126047134e+01
    3.1499610901e+01   -1.0250767708e+01
    3.1599599838e+01   -1.0376487732e+01
    3.1699510574e+01   -1.0503207207e+01
    3.1799339294e+01   -1.0630929947e+01
    3.1899099350e+01   -1.0759658813e+01
    3.1998779297e+01   -1.0889394760e+01
    3.2099918365e+01   -1.1020140648e+01
    3.2199459076e+01   -1.1151900291e+01
    3.2298919678e+01   -1.1284672737e+01
    3.2399639130e+01   -1.1418459892e+01
    3.2498970032e+01   -1.1553264618e+01
    3.2599708557e+01   -1.1689085960e+01
    3.2698909760e+01   -1.1825924873e+01
    3.2799449921e+01   -1.1963784218e+01
    3.2899929047e+01   -1.2102662086e+01
    3.2998790741e+01   -1.2242558479e+01
    3.3099079132e+01   -1.2383473396e+01
    3.3199390411e+01   -1.2525405884e+01
    3.3299598694e+01   -1.2668354034e+01
    3.3399810791e+01   -1.2812314987e+01
    3.3499858856e+01   -1.2957288742e+01
    3.3599838257e+01   -1.3103273392e+01
    3.3699760437e+01   -1.3250269890e+01
    3.3799800873e+01   -1.3398279190e+01
    3.3899658203e+01   -1.3547304153e+01
    3.3999439240e+01   -1.3697347641e+01
    3.4099220276e+01   -1.3848416328e+01
    3.4198928833e+01   -1.4000513077e+01
    3.4298568726e+01   -1.4153644562e+01
    3.4399559021e+01   -1.4307813644e+01
    3.4499088287e+01   -1.4463023186e+01
    3.4598590851e+01   -1.4619274139e+01
    3.4699569702e+01   -1.4776567459e+01
    3.4798999786e+01   -1.4934904099e+01
    3.4899871826e+01   -1.5094280243e+01
    3.4999191284e+01   -1.5254694939e+01
    3.5099918365e+01   -1.5416148186e+01
    3.5199108124e+01   -1.5578639030e+01
    3.5299739838e+01   -1.5742166519e+01
    3.5398830414e+01   -1.5906731606e+01
    3.5499370575e+01   -1.6072332382e+01
    3.5599849701e+01   -1.6238971710e+01
    3.5698760986e+01   -1.6406644821e+01
    3.5799121857e+01   -1.6575355530e+01
    3.5899421692e+01   -1.6745098114e+01
    3.5999649048e+01   -1.6915870667e+01
    3.6099830627e+01   -1.7087669373e+01
    3.6199939728e+01   -1.7260494232e+01
    3.6299980164e+01   -1.7434337616e+01
    3.6399971008e+01   -1.7609205246e+01
    3.6499900818e+01   -1.7785093307e+01
    3.6599758148e+01   -1.7962011337e+01
    3.6699558258e+01   -1.8139959335e+01
    3.6799301147e+01   -1.8318944931e+01
    3.6898990631e+01   -1.8498971939e+01
    3.6998611450e+01   -1.8680046082e+01
    3.7099658966e+01   -1.8862173080e+01
    3.7199169159e+01   -1.9045354843e+01
    3.7298629761e+01   -1.9229593277e+01
    3.7399509430e+01   -1.9414892197e+01
    3.7498851776e+01   -1.9601249695e+01
    3.7599620819e+01   -1.9788667679e+01
    3.7698848724e+01   -1.9977146149e+01
    3.7799510956e+01   -2.0166681290e+01
    3.7898639679e+01   -2.0357276917e+01
    3.7999198914e+01   -2.0548933029e+01
    3.8099700928e+01   -2.0741647720e+01
    3.8198680878e+01   -2.0935420990e+01
    3.8299091339e+01   -2.1130250931e+01
    3.8399459839e+01   -2.1326139450e+01
    3.8499778748e+01   -2.1523084641e+01
    3.8598590851e+01   -2.1721084595e+01
    3.8698841095e+01   -2.1920139313e+01
    3.8799049377e+01   -2.2120248795e+01
    3.8899230957e+01   -2.2321409225e+01
    3.8999389648e+01   -2.2523618698e+01
    3.9099510193e+01   -2.2726867676e+01
    3.9199619293e+01   -2.2931154251e+01
    3.9299701691e+01   -2.3136472702e+01
    3.9399761200e+01   -2.3342821121e+01
    3.9499809265e+01   -2.3550195694e+01
    3.9599819183e+01   -2.3758594513e+01
    3.9699760437e+01   -2.3968019485e+01
    3.9799610138e+01   -2.4178474426e+01
    3.9899379730e+01   -2.4389959335e+01
    3.9999061584e+01   -2.4602476120e+01
    4.0098670959e+01   -2.4816030502e+01
    4.0199649811e+01   -2.5030618668e+01
    4.0299079895e+01   -2.5246242523e+01
    4.0399879456e+01   -2.5462900162e+01
    4.0499130249e+01   -2.5680587769e+01
    4.0599750519e+01   -2.5899303436e+01
    4.0698818207e+01   -2.6119045258e+01
    4.0799240112e+01   -2.6339807510e+01
    4.0899570465e+01   -2.6561582565e+01
    4.0999790192e+01   -2.6784364700e+01
    4.1099899292e+01   -2.7008144379e+01
    4.1199909210e+01   -2.7232915878e+01
    4.1299819946e+01   -2.7458671570e+01
    4.1399608612e+01   -2.7685413361e+01
    4.1499290466e+01   -2.7913135529e+01
    4.1598869324e+01   -2.8141839981e+01
    4.1699771881e+01   -2.8371520996e+01
    4.1799110413e+01   -2.8602180481e+01
    4.1899791718e+01   -2.8833810806e+01
    4.1998908997e+01   -2.9066411972e+01
    4.2099349976e+01   -2.9299976349e+01
    4.2199668884e+01   -2.9534500122e+01
    4.2299869537e+01   -2.9769981384e+01
    4.2398529053e+01   -3.0006412506e+01
    4.2499919891e+01   -3.0243789673e+01
    4.2599758148e+01   -3.0482109070e+01
    4.2699489594e+01   -3.0721368790e+01
    4.2799091339e+01   -3.0961568832e+01
    4.2898590088e+01   -3.1202707291e+01
    4.2999378204e+01   -3.1444784164e+01
    4.3098640442e+01   -3.1687795639e+01
    4.3199211121e+01   -3.1931739807e+01
    4.3299671173e+01   -3.2176612854e+01
    4.3398609161e+01   -3.2422412872e+01
    4.3498859406e+01   -3.2669136047e+01
    4.3598999023e+01   -3.2916770935e+01
    4.3699050903e+01   -3.3165321350e+01
    4.3798999786e+01   -3.3414772034e+01
    4.3898860931e+01   -3.3665119171e+01
    4.3998630524e+01   -3.3916355133e+01
    4.4099708557e+01   -3.4168472290e+01
    4.4199298859e+01   -3.4421463013e+01
    4.4298820496e+01   -3.4675315857e+01
    4.4399650574e+01   -3.4930023193e+01
    4.4499008179e+01   -3.5185577393e+01
    4.4599700928e+01   -3.5441970825e+01
    4.4698921204e+01   -3.5699203491e+01
    4.4799480438e+01   -3.5957267761e+01
    4.4898578644e+01   -3.6216156006e+01
    4.4999031067e+01   -3.6475868225e+01
    4.5099430084e+01   -3.6736400604e+01
    4.5199790955e+01   -3.6997737885e+01
    4.5298709869e+01   -3.7259880066e+01
    4.5398990631e+01   -3.7522823334e+01
    4.5499240875e+01   -3.7786556244e+01
    4.5599468231e+01   -3.8051078796e+01
    4.5699668884e+01   -3.8316379547e+01
    4.5799858093e+01   -3.8582462311e+01
    4.5898639679e+01   -3.8849319458e+01
    4.5999389648e+01   -3.9116954803e+01
    4.6098640442e+01   -3.9385360718e+01
    4.6198749542e+01   -3.9654544830e+01
    4.6298919678e+01   -3.9924491882e+01
    4.6399341583e+01   -4.0195205688e+01
    4.6499069214e+01   -4.0466674805e+01
    4.6599151611e+01   -4.0738895416e+01
    4.6699581146e+01   -4.1011863708e+01
    4.6798561096e+01   -4.1285568237e+01
    4.6899021149e+01   -4.1560005188e+01
    4.6999519348e+01   -4.1835166931e+01
    4.7098560333e+01   -4.2111042023e+01
    4.7199108124e+01   -4.2387630463e+01
    4.7299690247e+01   -4.2664924622e+01
    4.7398841858e+01   -4.2942913055e+01
    4.7499488831e+01   -4.3221595764e+01
    4.7598640442e+01   -4.3500961304e+01
    4.7699249268e+01   -4.3781009674e+01
    4.7799839020e+01   -4.4061737061e+01
    4.7898918152e+01   -4.4343135834e+01
    4.7999469757e+01   -4.4625205994e+01
    4.8098510742e+01   -4.4907939911e+01
    4.8199008942e+01   -4.5191341400e+01
    4.8299480438e+01   -4.5475399017e+01
    4.8398460388e+01   -4.5760112762e+01
    4.8498889923e+01   -4.6045478821e+01
    4.8599300385e+01   -4.6331489563e+01
    4.8699680328e+01   -4.6618141174e+01
    4.8798561096e+01   -4.6905426025e+01
    4.8898899078e+01   -4.7193332672e+01
    4.8999210358e+01   -4.7481861115e+01
    4.9099498749e+01   -4.7770999908e+01
    4.9199760437e+01   -4.8060741425e+01
    4.9298530579e+01   -4.8351074219e+01
    4.9398738861e+01   -4.8642002106e+01
    4.9498920441e+01   -4.8933509827e+01
    4.9599090576e+01   -4.9225593567e+01
    4.9699218750e+01   -4.9518238068e+01
    4.9799320221e+01   -4.9811431885e+01
    4.9899410248e+01   -5.0105163574e+01
    4.9999458313e+01   -5.0399421692e+01
    5.0099479675e+01   -5.0694198608e+01
    5.0199470520e+01   -5.0989482880e+01
    5.0299438477e+01   -5.1285274506e+01
    5.0399379730e+01   -5.1581569672e+01
    5.0499279022e+01   -5.1878360748e+01
    5.0599159241e+01   -5.2175647736e+01
    5.0699001312e+01   -5.2473430634e+01
    5.0798809052e+01   -5.2771705627e+01
    5.0898590088e+01   -5.3070472717e+01
    5.0998340607e+01   -5.3369728088e+01
    5.1099529266e+01   -5.3669456482e+01
    5.1198799133e+01   -5.3969654083e+01
    5.1299259186e+01   -5.4270301819e+01
    5.1399711609e+01   -5.4571395874e+01
    5.1498859406e+01   -5.4872917175e+01
    5.1599330902e+01   -5.5174861908e+01
    5.1698379517e+01   -5.5477218628e+01
    5.1798839569e+01   -5.5779979706e+01
    5.1899299622e+01   -5.6083133698e+01
    5.1999759674e+01   -5.6386669159e+01
    5.2098800659e+01   -5.6690570831e+01
    5.2199249268e+01   -5.6994831085e+01
    5.2299701691e+01   -5.7299434662e+01
    5.2398731232e+01   -5.7604370117e+01
    5.2499179840e+01   -5.7909637451e+01
    5.2599628448e+01   -5.8215217590e+01
    5.2698890686e+01   -5.8521106720e+01
    5.2799129486e+01   -5.8827301025e+01
    5.2898818970e+01   -5.9133796692e+01
    5.2998699188e+01   -5.9440586090e+01
    5.3099159241e+01   -5.9747665405e+01
    5.3199581146e+01   -6.0055023193e+01
    5.3298500061e+01   -6.0362644196e+01
    5.3398849487e+01   -6.0670528412e+01
    5.3499149323e+01   -6.0978652954e+01
    5.3599411011e+01   -6.1286998749e+01
    5.3699638367e+01   -6.1595558167e+01
    5.3798381805e+01   -6.1904331207e+01
    5.3898529053e+01   -6.2213306427e+01
    5.3998638153e+01   -6.2522491455e+01
    5.4098720551e+01   -6.2831871033e+01
    5.4198749542e+01   -6.3141441345e+01
    5.4298751831e+01   -6.3451202393e+01
    5.4398708344e+01   -6.3761150360e+01
    5.4498630524e+01   -6.4071273804e+01
    5.4598510742e+01   -6.4381568909e+01
    5.4698348999e+01   -6.4692031860e+01
    5.4799598694e+01   -6.5002639771e+01
    5.4899368286e+01   -6.5313385010e+01
    5.4999099731e+01   -6.5624237061e+01
    5.5098789215e+01   -6.5935203552e+01
    5.5198429108e+01   -6.6246261597e+01
    5.5299491882e+01   -6.6557403564e+01
    5.5399059296e+01   -6.6868621826e+01
    5.5498600006e+01   -6.7179885864e+01
    5.5599540710e+01   -6.7491188049e+01
    5.5699008942e+01   -6.7802528381e+01
    5.5798431396e+01   -6.8113883972e+01
    5.5899269104e+01   -6.8425239563e+01
    5.5998619080e+01   -6.8736602783e+01
    5.6099369049e+01   -6.9047966003e+01
    5.6198650360e+01   -6.9359329224e+01
    5.6299339294e+01   -6.9670692444e+01
    5.6398540497e+01   -6.9982048035e+01
    5.6499149323e+01   -7.0293411255e+01
    5.6598289490e+01   -7.0604774475e+01
    5.6698818207e+01   -7.0916137695e+01
    5.6799320221e+01   -7.1227493286e+01
    5.6898349762e+01   -7.1538825989e+01
    5.6998779297e+01   -7.1850135803e+01
    5.7099170685e+01   -7.2161399841e+01
    5.7199520111e+01   -7.2472610474e+01
    5.7298408508e+01   -7.2783752441e+01
    5.7398700714e+01   -7.3094818115e+01
    5.7498950958e+01   -7.3405784607e+01
    5.7599170685e+01   -7.3716659546e+01
    5.7699359894e+01   -7.4027412415e+01
    5.7799510956e+01   -7.4338035583e+01
    5.7898651123e+01   -7.4648521423e+01
    5.7998741150e+01   -7.4958869934e+01
    5.8098800659e+01   -7.5269088745e+01
    5.8198829651e+01   -7.5579162598e+01
    5.8298828125e+01   -7.5889099121e+01
    5.8398799896e+01   -7.6198883057e+01
    5.8498729706e+01   -7.6508529663e+01
    5.8598640442e+01   -7.6818031311e+01
    5.8698520660e+01   -7.7127365112e+01
    5.8798370361e+01   -7.7436538696e+01
    5.8899608612e+01   -7.7745521545e+01
    5.8999401093e+01   -7.8054306030e+01
    5.9099159241e+01   -7.8362884521e+01
    5.9198890686e+01   -7.8671257019e+01
    5.9298599243e+01   -7.8979400635e+01
    5.9398979187e+01   -7.9287330627e+01
    5.9498630524e+01   -7.9595024109e+01
    5.9599399567e+01   -7.9902465820e+01
    5.9699531555e+01   -8.0209655762e+01
    5.9799110413e+01   -8.0516571045e+01
    5.9899108887e+01   -8.0823211670e+01
    5.9999168396e+01   -8.1129554749e+01
    6.0098678589e+01   -8.1435600281e+01
    6.0199588776e+01   -8.1741340637e+01
    6.0299148560e+01   -8.2046760559e+01
    6.0399139404e+01   -8.2351837158e+01
    6.0499279022e+01   -8.2656578064e+01
    6.0598499298e+01   -8.2960960388e+01
    6.0698429108e+01   -8.3264984131e+01
    6.0799510956e+01   -8.3568634033e+01
    6.0898780823e+01   -8.3871894836e+01
    6.0999019623e+01   -8.4174766541e+01
    6.1098381042e+01   -8.4477218628e+01
    6.1199211121e+01   -8.4779258728e+01
    6.1299591064e+01   -8.5080871582e+01
    6.1398990631e+01   -8.5382041931e+01
    6.1499370575e+01   -8.5682777405e+01
    6.1598308563e+01   -8.5983070374e+01
    6.1698478699e+01   -8.6282913208e+01
    6.1799278259e+01   -8.6582290649e+01
    6.1898200989e+01   -8.6881210327e+01
    6.1998809814e+01   -8.7179656982e+01
    6.2098548889e+01   -8.7477622986e+01
    6.2198890686e+01   -8.7775108337e+01
    6.2299468994e+01   -8.8072097778e+01
    6.2399341583e+01   -8.8368591309e+01
    6.2498699188e+01   -8.8664573669e+01
    6.2598430634e+01   -8.8960052490e+01
    6.2698299408e+01   -8.9255012512e+01
    6.2799041748e+01   -8.9549446106e+01
    6.2898250580e+01   -8.9843345642e+01
    6.2999179840e+01   -9.0136711121e+01
    6.3098670959e+01   -9.0429519653e+01
    6.3199340820e+01   -9.0721755981e+01
    6.3298919678e+01   -9.1013427734e+01
    6.3399269104e+01   -9.1304504395e+01
    6.3499340057e+01   -9.1595001221e+01
    6.3599548340e+01   -9.1884895325e+01
    6.3698249817e+01   -9.2174194336e+01
    6.3798500061e+01   -9.2462905884e+01
    6.3898521423e+01   -9.2751014709e+01
    6.3998600006e+01   -9.3038513184e+01
    6.4098243713e+01   -9.3325393677e+01
    6.4199272156e+01   -9.3611663818e+01
    6.4298896790e+01   -9.3897308350e+01
    6.4398597717e+01   -9.4182327271e+01
    6.4498283386e+01   -9.4466712952e+01
    6.4599197388e+01   -9.4750457764e+01
    6.4698692322e+01   -9.5033561707e+01
    6.4798309326e+01   -9.5316017151e+01
    6.4899307251e+01   -9.5597824097e+01
    6.4998863220e+01   -9.5878982544e+01
    6.5098327637e+01   -9.6159492493e+01
    6.5199028015e+01   -9.6439346313e+01
    6.5299537659e+01   -9.6718559265e+01
    6.5398460388e+01   -9.6997108459e+01
    6.5498619080e+01   -9.7275001526e+01
    6.5598587036e+01   -9.7552223206e+01
    6.5698387146e+01   -9.7828765869e+01
    6.5799423218e+01   -9.8104621887e+01
    6.5898880005e+01   -9.8379776001e+01
    6.5998176575e+01   -9.8654228210e+01
    6.6098686218e+01   -9.8927970886e+01
    6.6199050903e+01   -9.9200988770e+01
    6.6299240112e+01   -9.9473274231e+01
    6.6399276733e+01   -9.9744827271e+01
    6.6499153137e+01   -1.0001562500e+02
    6.6598861694e+01   -1.0028565979e+02
    6.6698432922e+01   -1.0055493927e+02
    6.6799232483e+01   -1.0082346344e+02
    6.6898498535e+01   -1.0109122467e+02
    6.6999000549e+01   -1.0135823059e+02
    6.7099357605e+01   -1.0162448120e+02
    6.7198196411e+01   -1.0188996887e+02
    6.7298278809e+01   -1.0215469360e+02
    6.7398216248e+01   -1.0241865540e+02
    6.7499389648e+01   -1.0268185425e+02
    6.7599067688e+01   -1.0294428253e+02
    6.7698623657e+01   -1.0320593262e+02
    6.7799400330e+01   -1.0346681976e+02
    6.7898696899e+01   -1.0372692871e+02
    6.7999237061e+01   -1.0398626709e+02
    6.8098312378e+01   -1.0424481964e+02
    6.8198623657e+01   -1.0450260162e+02
    6.8298812866e+01   -1.0475959778e+02
    6.8398902893e+01   -1.0501581573e+02
    6.8498863220e+01   -1.0527123260e+02
    6.8598731995e+01   -1.0552584076e+02
    6.8698486328e+01   -1.0577962494e+02
    6.8799476624e+01   -1.0603259277e+02
    6.8899032593e+01   -1.0628473663e+02
    6.8998466492e+01   -1.0653604126e+02
    6.9099151611e+01   -1.0678651428e+02
    6.9198387146e+01   -1.0703614807e+02
    6.9298866272e+01   -1.0728494263e+02
    6.9399238586e+01   -1.0753289032e+02
    6.9498176575e+01   -1.0777998352e+02
    6.9598350525e+01   -1.0802622986e+02
    6.9698432922e+01   -1.0827162170e+02
    6.9798400879e+01   -1.0851615143e+02
    6.9898277283e+01   -1.0875981903e+02
    6.9999389648e+01   -1.0900261688e+02
    7.0099082947e+01   -1.0924454498e+02
    7.0198661804e+01   -1.0948558807e+02
    7.0299476624e+01   -1.0972576904e+02
    7.0398880005e+01   -1.0996506500e+02
    7.0498176575e+01   -1.1020349884e+02
    7.0598716736e+01   -1.1044106293e+02
    7.0699172974e+01   -1.1067777252e+02
    7.0798187256e+01   -1.1091361237e+02
    7.0898460388e+01   -1.1114859772e+02
    7.0998626709e+01   -1.1138272095e+02
    7.1098716736e+01   -1.1161599731e+02
    7.1198722839e+01   -1.1184841919e+02
    7.1298629761e+01   -1.1207998657e+02
    7.1398460388e+01   -1.1231072235e+02
    7.1498207092e+01   -1.1254061127e+02
    7.1599197388e+01   -1.1276965332e+02
    7.1698791504e+01   -1.1299784851e+02
    7.1798309326e+01   -1.1322518921e+02
    7.1899063110e+01   -1.1345165253e+02
    7.1998443604e+01   -1.1367725372e+02
    7.2099037170e+01   -1.1390197754e+02
    7.2198280334e+01   -1.1412583160e+02
    7.2298751831e+01   -1.1434882355e+02
    7.2399162292e+01   -1.1457094574e+02
    7.2498199463e+01   -1.1479220581e+02
    7.2598472595e+01   -1.1501260376e+02
    7.2698677063e+01   -1.1523213959e+02
    7.2798843384e+01   -1.1545082092e+02
    7.2898933411e+01   -1.1566863251e+02
    7.2998962402e+01   -1.1588560486e+02
    7.3098953247e+01   -1.1610170746e+02
    7.3198883057e+01   -1.1631697083e+02
    7.3298767090e+01   -1.1653137970e+02
    7.3398612976e+01   -1.1674494934e+02
    7.3498397827e+01   -1.1695764923e+02
    7.3598152161e+01   -1.1716949463e+02
    7.3699172974e+01   -1.1738049316e+02
    7.3798851013e+01   -1.1759063721e+02
    7.3898513794e+01   -1.1779994202e+02
    7.3999427795e+01   -1.1800839233e+02
    7.4099037170e+01   -1.1821600342e+02
    7.4198623657e+01   -1.1842276001e+02
    7.4298187256e+01   -1.1862866974e+02
    7.4399032593e+01   -1.1883374786e+02
    7.4498580933e+01   -1.1903799438e+02
    7.4599411011e+01   -1.1924140167e+02
    7.4698936462e+01   -1.1944399261e+02
    7.4798469543e+01   -1.1964576721e+02
    7.4899299622e+01   -1.1984671783e+02
    7.4998832703e+01   -1.2004685974e+02
    7.5098381042e+01   -1.2024620056e+02
    7.5199226379e+01   -1.2044474030e+02
    7.5298797607e+01   -1.2064249420e+02
    7.5398376465e+01   -1.2083946991e+02
    7.5499290466e+01   -1.2103567505e+02
    7.5598922729e+01   -1.2123113251e+02
    7.5698593140e+01   -1.2142583466e+02
    7.5798271179e+01   -1.2161981964e+02
    7.5899291992e+01   -1.2181307220e+02
    7.5999046326e+01   -1.2200561523e+02
    7.6098831177e+01   -1.2219746399e+02
    7.6198661804e+01   -1.2238861847e+02
    7.6298538208e+01   -1.2257907104e+02
    7.6398452759e+01   -1.2276883698e+02
    7.6498413086e+01   -1.2295792389e+02
    7.6598426819e+01   -1.2314633179e+02
    7.6698486328e+01   -1.2333405304e+02
    7.6798591614e+01   -1.2352108765e+02
    7.6898757935e+01   -1.2370744324e+02
    7.6998970032e+01   -1.2389311218e+02
    7.7099243164e+01   -1.2407810211e+02
    7.7198272705e+01   -1.2426240540e+02
    7.7298660278e+01   -1.2444603729e+02
    7.7399101257e+01   -1.2462901306e+02
    7.7498306274e+01   -1.2481134796e+02
    7.7598876953e+01   -1.2499305725e+02
    7.7698196411e+01   -1.2517414856e+02
    7.7798896790e+01   -1.2535462952e+02
    7.7898368835e+01   -1.2553450012e+02
    7.7999206543e+01   -1.2571377563e+02
    7.8098800659e+01   -1.2589246368e+02
    7.8198463440e+01   -1.2607056427e+02
    7.8298187256e+01   -1.2624808502e+02
    7.8399291992e+01   -1.2642503357e+02
    7.8499153137e+01   -1.2660140991e+02
    7.8599082947e+01   -1.2677721405e+02
    7.8699073792e+01   -1.2695244598e+02
    7.8799110413e+01   -1.2712711334e+02
    7.8899223328e+01   -1.2730122375e+02
    7.8998069763e+01   -1.2747478485e+02
    7.9098289490e+01   -1.2764779663e+02
    7.9198570251e+01   -1.2782026672e+02
    7.9298896790e+01   -1.2799219513e+02
    7.9399299622e+01   -1.2816360474e+02
    7.9498420715e+01   -1.2833447266e+02
    7.9598922729e+01   -1.2850482178e+02
    7.9698143005e+01   -1.2867466736e+02
    7.9798751831e+01   -1.2884400940e+02
    7.9898086548e+01   -1.2901287842e+02
    7.9998786926e+01   -1.2918124390e+02
    8.0098243713e+01   -1.2934912109e+02
    8.0199058533e+01   -1.2951651001e+02
    8.0298606873e+01   -1.2968341064e+02
    8.0398208618e+01   -1.2984983826e+02
    8.0499191284e+01   -1.3001580811e+02
    8.0598922729e+01   -1.3018130493e+02
    8.0698692322e+01   -1.3034635925e+02
    8.0798530579e+01   -1.3051100159e+02
    8.0898437500e+01   -1.3067523193e+02
    8.0998413086e+01   -1.3083905029e+02
    8.1098457336e+01   -1.3100250244e+02
    8.1198593140e+01   -1.3116558838e+02
    8.1298797607e+01   -1.3132829285e+02
    8.1399093628e+01   -1.3149064636e+02
    8.1498123169e+01   -1.3165264893e+02
    8.1598579407e+01   -1.3181428528e+02
    8.1699142456e+01   -1.3197557068e+02
    8.1798446655e+01   -1.3213652039e+02
    8.1899208069e+01   -1.3229711914e+02
    8.1999046326e+01   -1.3245738220e+02
    8.2097976685e+01   -1.3261732483e+02
    8.2198440552e+01   -1.3277693176e+02
    8.2298767090e+01   -1.3293623352e+02
    8.2399192810e+01   -1.3309524536e+02
    8.2498306274e+01   -1.3325396729e+02
    8.2598983765e+01   -1.3341239929e+02
    8.2698348999e+01   -1.3357058716e+02
    8.2799293518e+01   -1.3372853088e+02
    8.2898941040e+01   -1.3388623047e+02
    8.2998733521e+01   -1.3404373169e+02
    8.3098663330e+01   -1.3420100403e+02
    8.3198730469e+01   -1.3435810852e+02
    8.3298957825e+01   -1.3451499939e+02
    8.3397880554e+01   -1.3467172241e+02
    8.3498413086e+01   -1.3482827759e+02
    8.3599082947e+01   -1.3498469543e+02
    8.3698463440e+01   -1.3514094543e+02
    8.3797973633e+01   -1.3529707336e+02
    8.3899101257e+01   -1.3545306396e+02
    8.3998916626e+01   -1.3560890198e+02
    8.4098876953e+01   -1.3576461792e+02
    8.4198989868e+01   -1.3592019653e+02
    8.4299247742e+01   -1.3607563782e+02
    8.4398162842e+01   -1.3623094177e+02
    8.4498680115e+01   -1.3638615417e+02
    8.4597846985e+01   -1.3654127502e+02
    8.4698631287e+01   -1.3669633484e+02
    8.4798049927e+01   -1.3685136414e+02
    8.4899063110e+01   -1.3700639343e+02
    8.4998710632e+01   -1.3716143799e+02
    8.5098457336e+01   -1.3731655884e+02
    8.5198303223e+01   -1.3747175598e+02
    8.5298248291e+01   -1.3762709045e+02
    8.5398277283e+01   -1.3778256226e+02
    8.5498413086e+01   -1.3793817139e+02
    8.5598609924e+01   -1.3809394836e+02
    8.5698898315e+01   -1.3824987793e+02
    8.5797767639e+01   -1.3840596008e+02
    8.5898216248e+01   -1.3856216431e+02
    8.5998741150e+01   -1.3871846008e+02
    8.6097839355e+01   -1.3887483215e+02
    8.6198486328e+01   -1.3903125000e+02
    8.6299156189e+01   -1.3918769836e+02
    8.6398338318e+01   -1.3934413147e+02
    8.6499069214e+01   -1.3950053406e+02
    8.6598297119e+01   -1.3965689087e+02
    8.6698966980e+01   -1.3981317139e+02
    8.6798057556e+01   -1.3996936035e+02
    8.6898590088e+01   -1.4012544250e+02
    8.6999076843e+01   -1.4028140259e+02
    8.7098030090e+01   -1.4043722534e+02
    8.7198463440e+01   -1.4059291077e+02
    8.7298889160e+01   -1.4074847412e+02
    8.7397811890e+01   -1.4090391541e+02
    8.7498222351e+01   -1.4105929565e+02
    8.7598632812e+01   -1.4121461487e+02
    8.7699050903e+01   -1.4136994934e+02
    8.7797973633e+01   -1.4152534485e+02
    8.7898399353e+01   -1.4168086243e+02
    8.7998832703e+01   -1.4183659363e+02
    8.8097793579e+01   -1.4199258423e+02
    8.8198287964e+01   -1.4214892578e+02
    8.8298812866e+01   -1.4230567932e+02
    8.8399208069e+01   -1.4246290588e+02
    8.8497993469e+01   -1.4262065125e+02
    8.8598129272e+01   -1.4277896118e+02
    8.8697982788e+01   -1.4293786621e+02
    8.8799003601e+01   -1.4309735107e+02
    8.8898406982e+01   -1.4325740051e+02
    8.8998931885e+01   -1.4341801453e+02
    8.9099151611e+01   -1.4357910156e+02
    8.9199028015e+01   -1.4374063110e+02
    8.9298553467e+01   -1.4390248108e+02
    8.9399093628e+01   -1.4406459045e+02
    8.9497886658e+01   -1.4422686768e+02
    8.9599037170e+01   -1.4438920593e+02
    8.9698448181e+01   -1.4455152893e+02
    8.9798812866e+01   -1.4471376038e+02
    8.9898742676e+01   -1.4487582397e+02
    8.9998252869e+01   -1.4503762817e+02
    9.0098640442e+01   -1.4519912720e+02
    9.0198570251e+01   -1.4536029053e+02
    9.0298072815e+01   -1.4552107239e+02
    9.0398452759e+01   -1.4568142700e+02
    9.0498413086e+01   -1.4584130859e+02
    9.0597953796e+01   -1.4600068665e+02
    9.0698432922e+01   -1.4615957642e+02
    9.0798492432e+01   -1.4631793213e+02
    9.0898178101e+01   -1.4647578430e+02
    9.0998802185e+01   -1.4663308716e+02
    9.1099082947e+01   -1.4678988647e+02
    9.1199081421e+01   -1.4694616699e+02
    9.1298858643e+01   -1.4710194397e+02
    9.1398460388e+01   -1.4725723267e+02
    9.1497947693e+01   -1.4741204834e+02
    9.1598663330e+01   -1.4756637573e+02
    9.1698211670e+01   -1.4772023010e+02
    9.1798377991e+01   -1.4787361145e+02
    9.1898513794e+01   -1.4802650452e+02
    9.1998672485e+01   -1.4817890930e+02
    9.2098876953e+01   -1.4833082581e+02
    9.2199157715e+01   -1.4848222351e+02
    9.2298187256e+01   -1.4863313293e+02
    9.2398750305e+01   -1.4878350830e+02
    9.2498123169e+01   -1.4893336487e+02
    9.2599021912e+01   -1.4908270264e+02
    9.2698738098e+01   -1.4923147583e+02
    9.2798576355e+01   -1.4937969971e+02
    9.2898536682e+01   -1.4952734375e+02
    9.2998542786e+01   -1.4967436218e+02
    9.3098587036e+01   -1.4982078552e+02
    9.3198669434e+01   -1.4996658325e+02
    9.3298812866e+01   -1.5011170959e+02
    9.3398979187e+01   -1.5025617981e+02
    9.3497802734e+01   -1.5039994812e+02
    9.3597923279e+01   -1.5054302979e+02
    9.3698516846e+01   -1.5068539429e+02
    9.3798988342e+01   -1.5082701111e+02
    9.3897911072e+01   -1.5096786499e+02
    9.3999061584e+01   -1.5110794067e+02
    9.4098533630e+01   -1.5124722290e+02
    9.4198829651e+01   -1.5138572693e+02
    9.4298652649e+01   -1.5152340698e+02
    9.4397956848e+01   -1.5166027832e+02
    9.4497993469e+01   -1.5179634094e+02
    9.4598663330e+01   -1.5193157959e+02
    9.4698707581e+01   -1.5206597900e+02
    9.4798080444e+01   -1.5219953918e+02
    9.4897956848e+01   -1.5233224487e+02
    9.4998283386e+01   -1.5246409607e+02
    9.5098983765e+01   -1.5259509277e+02
    9.5198822021e+01   -1.5272521973e+02
    9.5299003601e+01   -1.5285446167e+02
    9.5398330688e+01   -1.5298284912e+02
    9.5498008728e+01   -1.5311033630e+02
    9.5598007202e+01   -1.5323692322e+02
    9.5698356628e+01   -1.5336259460e+02
    9.5799057007e+01   -1.5348733521e+02
    9.5898956299e+01   -1.5361112976e+02
    9.5998123169e+01   -1.5373396301e+02
    9.6098800659e+01   -1.5385583496e+02
    9.6198837280e+01   -1.5397668457e+02
    9.6298316956e+01   -1.5409654236e+02
    9.6398406982e+01   -1.5421536255e+02
    9.6498062134e+01   -1.5433316040e+02
    9.6598449707e+01   -1.5444992065e+02
    9.6698562622e+01   -1.5456562805e+02
    9.6798881531e+01   -1.5468026733e+02
    9.6899017334e+01   -1.5479382324e+02
    9.6999046326e+01   -1.5490629578e+02
    9.7098999023e+01   -1.5501765442e+02
    9.7198928833e+01   -1.5512789917e+02
    9.7298881531e+01   -1.5523699951e+02
    9.7398880005e+01   -1.5534497070e+02
    9.7498916626e+01   -1.5545179749e+02
    9.7599021912e+01   -1.5555746460e+02
    9.7698066711e+01   -1.5566194153e+02
    9.7798362732e+01   -1.5576524353e+02
    9.7898757935e+01   -1.5586735535e+02
    9.7998100281e+01   -1.5596826172e+02
    9.8098663330e+01   -1.5606794739e+02
    9.8198127747e+01   -1.5616641235e+02
    9.8298812866e+01   -1.5626362610e+02
    9.8398422241e+01   -1.5635958862e+02
    9.8498100281e+01   -1.5645431519e+02
    9.8598533630e+01   -1.5654776001e+02
    9.8698959351e+01   -1.5663990784e+02
    9.8798263550e+01   -1.5673077393e+02
    9.8898582458e+01   -1.5682032776e+02
    9.8998786926e+01   -1.5690859985e+02
    9.9098899841e+01   -1.5699554443e+02
    9.9198890686e+01   -1.5708119202e+02
    9.9298736572e+01   -1.5716551208e+02
    9.9398468018e+01   -1.5724853516e+02
    9.9498046875e+01   -1.5733023071e+02
    9.9598556519e+01   -1.5741062927e+02
    9.9698913574e+01   -1.5748970032e+02
    9.9798011780e+01   -1.5756748962e+02
    9.9897987366e+01   -1.5764396667e+02
    9.9998840332e+01   -1.5771914673e+02
    1.0009839630e+02   -1.5779302979e+02
    1.0019889832e+02   -1.5786563110e+02
    1.0029820251e+02   -1.5793692017e+02
    1.0039830017e+02   -1.5800689697e+02
    1.0049819946e+02   -1.5807560730e+02
    1.0059899902e+02   -1.5814302063e+02
    1.0069850159e+02   -1.5820913696e+02
    1.0079900360e+02   -1.5827395630e+02
    1.0089820099e+02   -1.5833749390e+02
    1.0099819946e+02   -1.5839971924e+02
    1.0109809875e+02   -1.5846064758e+02
    1.0119889832e+02   -1.5852027893e+02
    1.0129850006e+02   -1.5857859802e+02
    1.0139900208e+02   -1.5863560486e+02
    1.0149880219e+02   -1.5869129944e+02
    1.0159880066e+02   -1.5874568176e+02
    1.0169869995e+02   -1.5879875183e+02
    1.0179869843e+02   -1.5885050964e+02
    1.0189859772e+02   -1.5890095520e+02
    1.0199859619e+02   -1.5895007324e+02
    1.0209870148e+02   -1.5899786377e+02
    1.0219889832e+02   -1.5904432678e+02
    1.0229810333e+02   -1.5908947754e+02
    1.0239849854e+02   -1.5913328552e+02
    1.0249800110e+02   -1.5917575073e+02
    1.0259860229e+02   -1.5921687317e+02
    1.0269830322e+02   -1.5925663757e+02
    1.0279810333e+02   -1.5929505920e+02
    1.0289790344e+02   -1.5933212280e+02
    1.0299890137e+02   -1.5936784363e+02
    1.0309889984e+02   -1.5940219116e+02
    1.0319899750e+02   -1.5943515015e+02
    1.0329799652e+02   -1.5946672058e+02
    1.0339810181e+02   -1.5949688721e+02
    1.0349829865e+02   -1.5952563477e+02
    1.0359850311e+02   -1.5955297852e+02
    1.0369879913e+02   -1.5957888794e+02
    1.0379789734e+02   -1.5960337830e+02
    1.0389800262e+02   -1.5962643433e+02
    1.0399800110e+02   -1.5964805603e+02
    1.0409790039e+02   -1.5966822815e+02
    1.0419809723e+02   -1.5968695068e+02
    1.0429789734e+02   -1.5970422363e+02
    1.0439859772e+02   -1.5972001648e+02
    1.0449900055e+02   -1.5973435974e+02
    1.0459799957e+02   -1.5974722290e+02
    1.0469879913e+02   -1.5975860596e+02
    1.0479820251e+02   -1.5976850891e+02
    1.0489839935e+02   -1.5977693176e+02
    1.0499819946e+02   -1.5978385925e+02
    1.0509870148e+02   -1.5978927612e+02
    1.0519879913e+02   -1.5979321289e+02
    1.0529850006e+02   -1.5979562378e+02
    1.0539869690e+02   -1.5979653931e+02
    1.0549839783e+02   -1.5979595947e+02
    1.0559870148e+02   -1.5979386902e+02
    1.0569860077e+02   -1.5979026794e+02
    1.0579900360e+02   -1.5978517151e+02
    1.0589890289e+02   -1.5977856445e+02
    1.0599829865e+02   -1.5977046204e+02
    1.0609839630e+02   -1.5976084900e+02
    1.0619809723e+02   -1.5974974060e+02
    1.0629850006e+02   -1.5973713684e+02
    1.0639859772e+02   -1.5972302246e+02
    1.0649849701e+02   -1.5970744324e+02
    1.0659819794e+02   -1.5969038391e+02
    1.0669840240e+02   -1.5967187500e+02
    1.0679799652e+02   -1.5965188599e+02
    1.0689880371e+02   -1.5963044739e+02
    1.0699859619e+02   -1.5960752869e+02
    1.0709870148e+02   -1.5958314514e+02
    1.0719789886e+02   -1.5955728149e+02
    1.0729850006e+02   -1.5952995300e+02
    1.0739839935e+02   -1.5950112915e+02
    1.0749880219e+02   -1.5947085571e+02
    1.0759860229e+02   -1.5943907166e+02
    1.0769889832e+02   -1.5940579224e+02
    1.0779869843e+02   -1.5937100220e+02
    1.0789810181e+02   -1.5933471680e+02
    1.0799810028e+02   -1.5929693604e+02
    1.0809860229e+02   -1.5925764465e+02
    1.0819869995e+02   -1.5921682739e+02
    1.0829840088e+02   -1.5917449951e+02
    1.0839859772e+02   -1.5913066101e+02
    1.0849819946e+02   -1.5908529663e+02
    1.0859839630e+02   -1.5903842163e+02
    1.0869799805e+02   -1.5899003601e+02
    1.0879810333e+02   -1.5894015503e+02
    1.0889849854e+02   -1.5888877869e+02
    1.0899829865e+02   -1.5883590698e+02
    1.0909839630e+02   -1.5878157043e+02
    1.0919879913e+02   -1.5872576904e+02
    1.0929840088e+02   -1.5866850281e+02
    1.0939820099e+02   -1.5860981750e+02
    1.0949870300e+02   -1.5854969788e+02
    1.0959839630e+02   -1.5848815918e+02
    1.0969819641e+02   -1.5842518616e+02
    1.0979810333e+02   -1.5836082458e+02
    1.0989800262e+02   -1.5829504395e+02
    1.0999780273e+02   -1.5822790527e+02
    1.1009870148e+02   -1.5815939331e+02
    1.1019850159e+02   -1.5808953857e+02
    1.1029810333e+02   -1.5801837158e+02
    1.1039880371e+02   -1.5794590759e+02
    1.1049829865e+02   -1.5787216187e+02
    1.1059889984e+02   -1.5779714966e+02
    1.1069819641e+02   -1.5772088623e+02
    1.1079869843e+02   -1.5764338684e+02
    1.1089790344e+02   -1.5756463623e+02
    1.1099829865e+02   -1.5748469543e+02
    1.1109870148e+02   -1.5740351868e+02
    1.1119809723e+02   -1.5732115173e+02
    1.1129810333e+02   -1.5723756409e+02
    1.1139830017e+02   -1.5715280151e+02
    1.1149880219e+02   -1.5706684875e+02
    1.1159839630e+02   -1.5697972107e+02
    1.1169819641e+02   -1.5689141846e+02
    1.1179840088e+02   -1.5680194092e+02
    1.1189779663e+02   -1.5671128845e+02
    1.1199880219e+02   -1.5661946106e+02
    1.1209780121e+02   -1.5652647400e+02
    1.1219809723e+02   -1.5643231201e+02
    1.1229769897e+02   -1.5633695984e+02
    1.1239810181e+02   -1.5624044800e+02
    1.1249790192e+02   -1.5614274597e+02
    1.1259809875e+02   -1.5604386902e+02
    1.1269879913e+02   -1.5594380188e+02
    1.1279769897e+02   -1.5584252930e+02
    1.1289810181e+02   -1.5574008179e+02
    1.1299780273e+02   -1.5563642883e+02
    1.1309790039e+02   -1.5553157043e+02
    1.1319840240e+02   -1.5542553711e+02
    1.1329789734e+02   -1.5531829834e+02
    1.1339769745e+02   -1.5520986938e+02
    1.1349780273e+02   -1.5510028076e+02
    1.1359809875e+02   -1.5498950195e+02
    1.1369850159e+02   -1.5487754822e+02
    1.1379779816e+02   -1.5476443481e+02
    1.1389830017e+02   -1.5465013123e+02
    1.1399780273e+02   -1.5453465271e+02
    1.1409850311e+02   -1.5441799927e+02
    1.1419809723e+02   -1.5430018616e+02
    1.1429879761e+02   -1.5418118286e+02
    1.1439869690e+02   -1.5406101990e+02
    1.1449819946e+02   -1.5393969727e+02
    1.1459760284e+02   -1.5381721497e+02
    1.1469830322e+02   -1.5369360352e+02
    1.1479879761e+02   -1.5356884766e+02
    1.1489800262e+02   -1.5344299316e+02
    1.1499839783e+02   -1.5331602478e+02
    1.1509870148e+02   -1.5318795776e+02
    1.1519770050e+02   -1.5305882263e+02
    1.1529789734e+02   -1.5292858887e+02
    1.1539800262e+02   -1.5279730225e+02
    1.1549800110e+02   -1.5266496277e+02
    1.1559799957e+02   -1.5253157043e+02
    1.1569799805e+02   -1.5239715576e+02
    1.1579799652e+02   -1.5226173401e+02
    1.1589810181e+02   -1.5212528992e+02
    1.1599790192e+02   -1.5198785400e+02
    1.1609770203e+02   -1.5184942627e+02
    1.1619809723e+02   -1.5171003723e+02
    1.1629869843e+02   -1.5156970215e+02
    1.1639830017e+02   -1.5142843628e+02
    1.1649819946e+02   -1.5128625488e+02
    1.1659850311e+02   -1.5114318848e+02
    1.1669789886e+02   -1.5099922180e+02
    1.1679769897e+02   -1.5085438538e+02
    1.1689800262e+02   -1.5070867920e+02
    1.1699880219e+02   -1.5056210327e+02
    1.1709750366e+02   -1.5041465759e+02
    1.1719809723e+02   -1.5026635742e+02
    1.1729810333e+02   -1.5011720276e+02
    1.1739869690e+02   -1.4996720886e+02
    1.1749859619e+02   -1.4981637573e+02
    1.1759790039e+02   -1.4966471863e+02
    1.1769789886e+02   -1.4951226807e+02
    1.1779869843e+02   -1.4935900879e+02
    1.1789749908e+02   -1.4920498657e+02
    1.1799790192e+02   -1.4905018616e+02
    1.1809799957e+02   -1.4889462280e+02
    1.1819789886e+02   -1.4873832703e+02
    1.1829750061e+02   -1.4858128357e+02
    1.1839810181e+02   -1.4842352295e+02
    1.1849849701e+02   -1.4826504517e+02
    1.1859870148e+02   -1.4810583496e+02
    1.1869860077e+02   -1.4794593811e+02
    1.1879820251e+02   -1.4778532410e+02
    1.1889820099e+02   -1.4762402344e+02
    1.1899800110e+02   -1.4746203613e+02
    1.1909790039e+02   -1.4729937744e+02
    1.1919760132e+02   -1.4713603210e+02
    1.1929840088e+02   -1.4697203064e+02
    1.1939769745e+02   -1.4680735779e+02
    1.1949810028e+02   -1.4664204407e+02
    1.1959829712e+02   -1.4647608948e+02
    1.1969819641e+02   -1.4630949402e+02
    1.1979799652e+02   -1.4614228821e+02
    1.1989749908e+02   -1.4597447205e+02
    1.1999819946e+02   -1.4580609131e+02
    1.2009860229e+02   -1.4563717651e+02
    1.2019760132e+02   -1.4546772766e+02
    1.2029759979e+02   -1.4529779053e+02
    1.2039749908e+02   -1.4512736511e+02
    1.2049870300e+02   -1.4495649719e+02
    1.2059839630e+02   -1.4478520203e+02
    1.2069819641e+02   -1.4461351013e+02
    1.2079859924e+02   -1.4444145203e+02
    1.2089800262e+02   -1.4426901245e+02
    1.2099780273e+02   -1.4409623718e+02
    1.2109790039e+02   -1.4392311096e+02
    1.2119799805e+02   -1.4374966431e+02
    1.2129859924e+02   -1.4357589722e+02
    1.2139820099e+02   -1.4340180969e+02
    1.2149849701e+02   -1.4322743225e+02
    1.2159799957e+02   -1.4305274963e+02
    1.2169819641e+02   -1.4287777710e+02
    1.2179769897e+02   -1.4270252991e+02
    1.2189749908e+02   -1.4252697754e+02
    1.2199770355e+02   -1.4235116577e+02
    1.2209790039e+02   -1.4217509460e+02
    1.2219830322e+02   -1.4199874878e+02
    1.2229750061e+02   -1.4182217407e+02
    1.2239830017e+02   -1.4164533997e+02
    1.2249800110e+02   -1.4146829224e+02
    1.2259780121e+02   -1.4129100037e+02
    1.2269770050e+02   -1.4111351013e+02
    1.2279779816e+02   -1.4093580627e+02
    1.2289800262e+02   -1.4075791931e+02
    1.2299829865e+02   -1.4057983398e+02
    1.2309739685e+02   -1.4040156555e+02
    1.2319809723e+02   -1.4022312927e+02
    1.2329750061e+02   -1.4004452515e+02
    1.2339839935e+02   -1.3986576843e+02
    1.2349810028e+02   -1.3968685913e+02
    1.2359790039e+02   -1.3950781250e+02
    1.2369789886e+02   -1.3932861328e+02
    1.2379799652e+02   -1.3914929199e+02
    1.2389769745e+02   -1.3896981812e+02
    1.2399729919e+02   -1.3879022217e+02
    1.2409809875e+02   -1.3861047363e+02
    1.2419799805e+02   -1.3843061829e+02
    1.2429769897e+02   -1.3825062561e+02
    1.2439739990e+02   -1.3807054138e+02
    1.2449849701e+02   -1.3789035034e+02
    1.2459829712e+02   -1.3771006775e+02
    1.2469819641e+02   -1.3752970886e+02
    1.2479820251e+02   -1.3734930420e+02
    1.2489830017e+02   -1.3716885376e+02
    1.2499839783e+02   -1.3698837280e+02
    1.2509860229e+02   -1.3680789185e+02
    1.2519740295e+02   -1.3662739563e+02
    1.2529759979e+02   -1.3644692993e+02
    1.2539720154e+02   -1.3626651001e+02
    1.2549790192e+02   -1.3608613586e+02
    1.2559850311e+02   -1.3590585327e+02
    1.2569799805e+02   -1.3572566223e+02
    1.2579810333e+02   -1.3554559326e+02
    1.2589820099e+02   -1.3536567688e+02
    1.2599819946e+02   -1.3518592834e+02
    1.2609799957e+02   -1.3500636292e+02
    1.2619760132e+02   -1.3482698059e+02
    1.2629850006e+02   -1.3464784241e+02
    1.2639769745e+02   -1.3446891785e+02
    1.2649810028e+02   -1.3429023743e+02
    1.2659839630e+02   -1.3411183167e+02
    1.2669840240e+02   -1.3393368530e+02
    1.2679830170e+02   -1.3375584412e+02
    1.2689800262e+02   -1.3357829285e+02
    1.2699749756e+02   -1.3340103149e+02
    1.2709809875e+02   -1.3322409058e+02
    1.2719730377e+02   -1.3304747009e+02
    1.2729759979e+02   -1.3287120056e+02
    1.2739810181e+02   -1.3269526672e+02
    1.2749729919e+02   -1.3251971436e+02
    1.2759839630e+02   -1.3234454346e+02
    1.2769770050e+02   -1.3216975403e+02
    1.2779759979e+02   -1.3199539185e+02
    1.2789810181e+02   -1.3182145691e+02
    1.2799849701e+02   -1.3164794922e+02
    1.2809739685e+02   -1.3147488403e+02
    1.2819760132e+02   -1.3130229187e+02
    1.2829789734e+02   -1.3113018799e+02
    1.2839819336e+02   -1.3095855713e+02
    1.2849859619e+02   -1.3078742981e+02
    1.2859860229e+02   -1.3061680603e+02
    1.2869839478e+02   -1.3044673157e+02
    1.2879849243e+02   -1.3027720642e+02
    1.2889739990e+02   -1.3010824585e+02
    1.2899809265e+02   -1.2993984985e+02
    1.2909770203e+02   -1.2977204895e+02
    1.2919760132e+02   -1.2960487366e+02
    1.2929780579e+02   -1.2943830872e+02
    1.2939819336e+02   -1.2927238464e+02
    1.2949769592e+02   -1.2910710144e+02
    1.2959759521e+02   -1.2894248962e+02
    1.2969799805e+02   -1.2877853394e+02
    1.2979859924e+02   -1.2861526489e+02
    1.2989759827e+02   -1.2845269775e+02
    1.2999789429e+02   -1.2829083252e+02
    1.3009809875e+02   -1.2812968445e+02
    1.3019819641e+02   -1.2796927643e+02
    1.3029820251e+02   -1.2780960083e+02
    1.3039819336e+02   -1.2765068054e+02
    1.3049800110e+02   -1.2749252319e+02
    1.3059759521e+02   -1.2733514404e+02
    1.3069859314e+02   -1.2717855835e+02
    1.3079800415e+02   -1.2702277374e+02
    1.3089869690e+02   -1.2686780548e+02
    1.3099769592e+02   -1.2671363831e+02
    1.3109790039e+02   -1.2656028748e+02
    1.3119799805e+02   -1.2640776062e+02
    1.3129780579e+02   -1.2625604248e+02
    1.3139739990e+02   -1.2610512543e+02
    1.3149830627e+02   -1.2595500183e+02
    1.3159750366e+02   -1.2580566406e+02
    1.3169799805e+02   -1.2565708160e+02
    1.3179820251e+02   -1.2550924683e+02
    1.3189830017e+02   -1.2536212921e+02
    1.3199819946e+02   -1.2521569824e+02
    1.3209790039e+02   -1.2506990814e+02
    1.3219880676e+02   -1.2492472076e+02
    1.3229809570e+02   -1.2478010559e+02
    1.3239849854e+02   -1.2463601685e+02
    1.3249859619e+02   -1.2449239349e+02
    1.3259849548e+02   -1.2434922028e+02
    1.3269799805e+02   -1.2420642090e+02
    1.3279879761e+02   -1.2406395721e+02
    1.3289779663e+02   -1.2392174530e+02
    1.3299809265e+02   -1.2377975464e+02
    1.3309809875e+02   -1.2363791656e+02
    1.3319790649e+02   -1.2349618530e+02
    1.3329890442e+02   -1.2335451508e+02
    1.3339840698e+02   -1.2321285248e+02
    1.3349760437e+02   -1.2307115936e+02
    1.3359809875e+02   -1.2292940521e+02
    1.3369889832e+02   -1.2278755188e+02
    1.3379809570e+02   -1.2264559174e+02
    1.3389869690e+02   -1.2250351715e+02
    1.3399769592e+02   -1.2236133575e+02
    1.3409820557e+02   -1.2221904755e+02
    1.3419869995e+02   -1.2207667542e+02
    1.3429769897e+02   -1.2193424988e+02
    1.3439830017e+02   -1.2179180908e+02
    1.3449879456e+02   -1.2164940643e+02
    1.3459800720e+02   -1.2150711823e+02
    1.3469869995e+02   -1.2136500549e+02
    1.3479780579e+02   -1.2122313690e+02
    1.3489830017e+02   -1.2108159637e+02
    1.3499879456e+02   -1.2094046783e+02
    1.3509800720e+02   -1.2079984283e+02
    1.3519859314e+02   -1.2065981293e+02
    1.3529789734e+02   -1.2052046204e+02
    1.3539860535e+02   -1.2038187408e+02
    1.3549780273e+02   -1.2024411774e+02
    1.3559840393e+02   -1.2010726929e+02
    1.3569889832e+02   -1.1997138977e+02
    1.3579789734e+02   -1.1983653259e+02
    1.3589810181e+02   -1.1970274353e+02
    1.3599819946e+02   -1.1957004547e+02
    1.3609809875e+02   -1.1943847656e+02
    1.3619790649e+02   -1.1930802917e+02
    1.3629890442e+02   -1.1917875671e+02
    1.3639840698e+02   -1.1905063629e+02
    1.3649909973e+02   -1.1892368317e+02
    1.3659820557e+02   -1.1879788971e+02
    1.3669869995e+02   -1.1867324066e+02
    1.3679899597e+02   -1.1854972839e+02
    1.3689790344e+02   -1.1842733765e+02
    1.3699800110e+02   -1.1830605316e+02
    1.3709820557e+02   -1.1818586731e+02
    1.3719839478e+02   -1.1806675720e+02
    1.3729870605e+02   -1.1794870758e+02
    1.3739900208e+02   -1.1783173370e+02
    1.3749819946e+02   -1.1771580505e+02
    1.3759880066e+02   -1.1760091400e+02
    1.3769830322e+02   -1.1748705292e+02
    1.3779789734e+02   -1.1737421417e+02
    1.3789909363e+02   -1.1726239014e+02
    1.3799909973e+02   -1.1715158081e+02
    1.3809919739e+02   -1.1704177094e+02
    1.3819799805e+02   -1.1693296814e+02
    1.3829829407e+02   -1.1682516479e+02
    1.3839869690e+02   -1.1671833801e+02
    1.3849909973e+02   -1.1661249542e+02
    1.3859820557e+02   -1.1650762939e+02
    1.3869850159e+02   -1.1640373230e+02
    1.3879879761e+02   -1.1630080414e+02
    1.3889900208e+02   -1.1619882965e+02
    1.3899920654e+02   -1.1609783173e+02
    1.3909930420e+02   -1.1599777985e+02
    1.3919869995e+02   -1.1589869690e+02
    1.3929919434e+02   -1.1580056763e+02
    1.3939790344e+02   -1.1570339203e+02
    1.3949789429e+02   -1.1560717010e+02
    1.3959930420e+02   -1.1551192474e+02
    1.3969889832e+02   -1.1541764832e+02
    1.3979930115e+02   -1.1532434082e+02
    1.3989880371e+02   -1.1523201752e+02
    1.3999830627e+02   -1.1514067841e+02
    1.4009910583e+02   -1.1505032349e+02
    1.4019830322e+02   -1.1496095276e+02
    1.4029890442e+02   -1.1487256622e+02
    1.4039790344e+02   -1.1478516388e+02
    1.4049839783e+02   -1.1469873047e+02
    1.4059880066e+02   -1.1461326599e+02
    1.4069929504e+02   -1.1452875519e+02
    1.4079840088e+02   -1.1444519806e+02
    1.4089889526e+02   -1.1436258698e+02
    1.4099800110e+02   -1.1428091431e+02
    1.4109860229e+02   -1.1420018005e+02
    1.4119920349e+02   -1.1412039185e+02
    1.4129849243e+02   -1.1404154968e+02
    1.4139920044e+02   -1.1396364594e+02
    1.4149850464e+02   -1.1388668060e+02
    1.4159919739e+02   -1.1381066895e+02
    1.4169859314e+02   -1.1373561096e+02
    1.4179949951e+02   -1.1366149902e+02
    1.4189889526e+02   -1.1358834839e+02
    1.4199839783e+02   -1.1351615143e+02
    1.4209939575e+02   -1.1344490814e+02
    1.4219900513e+02   -1.1337462616e+02
    1.4229870605e+02   -1.1330529785e+02
    1.4239849854e+02   -1.1323693085e+02
    1.4249839783e+02   -1.1316953278e+02
    1.4259829712e+02   -1.1310309601e+02
    1.4269830322e+02   -1.1303762054e+02
    1.4279829407e+02   -1.1297312164e+02
    1.4289889526e+02   -1.1290959167e+02
    1.4299859619e+02   -1.1284705353e+02
    1.4309820557e+02   -1.1278549194e+02
    1.4319839478e+02   -1.1272492218e+02
    1.4329870605e+02   -1.1266533661e+02
    1.4339900208e+02   -1.1260675049e+02
    1.4349809265e+02   -1.1254915619e+02
    1.4359880066e+02   -1.1249255371e+02
    1.4369830322e+02   -1.1243695831e+02
    1.4379939270e+02   -1.1238234711e+02
    1.4389930725e+02   -1.1232873535e+02
    1.4399940491e+02   -1.1227610016e+02
    1.4409820557e+02   -1.1222444153e+02
    1.4419859314e+02   -1.1217373657e+02
    1.4429919434e+02   -1.1212399292e+02
    1.4439840698e+02   -1.1207518768e+02
    1.4449920654e+02   -1.1202730560e+02
    1.4459860229e+02   -1.1198034668e+02
    1.4469949341e+02   -1.1193428040e+02
    1.4479910278e+02   -1.1188909912e+02
    1.4489869690e+02   -1.1184477234e+02
    1.4499839783e+02   -1.1180130005e+02
    1.4509959412e+02   -1.1175865173e+02
    1.4519940186e+02   -1.1171681213e+02
    1.4529879761e+02   -1.1167578125e+02
    1.4539849854e+02   -1.1163552856e+02
    1.4549830627e+02   -1.1159604645e+02
    1.4559939575e+02   -1.1155734253e+02
    1.4569920349e+02   -1.1151940155e+02
    1.4579910278e+02   -1.1148223114e+02
    1.4589889526e+02   -1.1144580841e+02
    1.4599839783e+02   -1.1141015625e+02
    1.4609840393e+02   -1.1137524414e+02
    1.4619839478e+02   -1.1134107971e+02
    1.4629840088e+02   -1.1130764008e+02
    1.4639840698e+02   -1.1127492523e+02
    1.4649839783e+02   -1.1124290466e+02
    1.4659849548e+02   -1.1121157837e+02
    1.4669869995e+02   -1.1118093109e+02
    1.4679890442e+02   -1.1115095520e+02
    1.4689920044e+02   -1.1112163544e+02
    1.4699969482e+02   -1.1109297943e+02
    1.4709880066e+02   -1.1106499481e+02
    1.4719960022e+02   -1.1103766632e+02
    1.4729910278e+02   -1.1101100159e+02
    1.4739880371e+02   -1.1098500824e+02
    1.4749870300e+02   -1.1095967102e+02
    1.4759869385e+02   -1.1093500519e+02
    1.4769889832e+02   -1.1091098785e+02
    1.4779919434e+02   -1.1088762665e+02
    1.4789959717e+02   -1.1086489868e+02
    1.4799859619e+02   -1.1084279633e+02
    1.4809930420e+02   -1.1082131958e+02
    1.4819850159e+02   -1.1080045319e+02
    1.4829949951e+02   -1.1078018951e+02
    1.4839900208e+02   -1.1076052856e+02
    1.4849859619e+02   -1.1074144745e+02
    1.4859840393e+02   -1.1072295380e+02
    1.4869830322e+02   -1.1070503998e+02
    1.4879989624e+02   -1.1068770599e+02
    1.4889840698e+02   -1.1067094421e+02
    1.4899850464e+02   -1.1065474701e+02
    1.4909860229e+02   -1.1063912201e+02
    1.4919880676e+02   -1.1062405396e+02
    1.4929910278e+02   -1.1060953522e+02
    1.4939939880e+02   -1.1059556580e+02
    1.4949969482e+02   -1.1058213806e+02
    1.4959860229e+02   -1.1056924438e+02
    1.4969909668e+02   -1.1055686951e+02
    1.4979960632e+02   -1.1054500580e+02
    1.4989869690e+02   -1.1053363800e+02
    1.4999960327e+02   -1.1052276611e+02
    1.5009899902e+02   -1.1051237488e+02
    1.5019859314e+02   -1.1050245667e+02
    1.5030000305e+02   -1.1049299622e+02
    1.5039840698e+02   -1.1048398590e+02
    1.5049870300e+02   -1.1047541809e+02
    1.5059910583e+02   -1.1046727753e+02
    1.5069960022e+02   -1.1045956421e+02
    1.5079989624e+02   -1.1045226288e+02
    1.5089860535e+02   -1.1044538116e+02
    1.5099890137e+02   -1.1043889618e+02
    1.5109899902e+02   -1.1043282318e+02
    1.5119909668e+02   -1.1042714691e+02
    1.5129919434e+02   -1.1042185974e+02
    1.5139920044e+02   -1.1041695404e+02
    1.5149920654e+02   -1.1041241455e+02
    1.5159919739e+02   -1.1040823364e+02
    1.5169909668e+02   -1.1040441132e+02
    1.5179899597e+02   -1.1040092468e+02
    1.5189889526e+02   -1.1039777374e+02
    1.5199879456e+02   -1.1039495087e+02
    1.5209869385e+02   -1.1039244843e+02
    1.5219869995e+02   -1.1039025879e+02
    1.5229859924e+02   -1.1038835907e+02
    1.5240010071e+02   -1.1038674927e+02
    1.5250000000e+02   -1.1038541412e+02
    1.5259989929e+02   -1.1038435364e+02
    1.5269970703e+02   -1.1038356018e+02
    1.5279960632e+02   -1.1038303375e+02
    1.5289939880e+02   -1.1038275909e+02
    1.5299920654e+02   -1.1038272858e+02
    1.5309899902e+02   -1.1038291931e+02
    1.5319889832e+02   -1.1038332367e+02
    1.5329870605e+02   -1.1038392639e+02
    1.5340010071e+02   -1.1038470459e+02
    1.5349989319e+02   -1.1038563538e+02
    1.5359970093e+02   -1.1038671112e+02
    1.5369949341e+02   -1.1038790131e+02
    1.5379919434e+02   -1.1038918304e+02
    1.5389880371e+02   -1.1039054871e+02
    1.5400000000e+02   -1.1039196014e+02
    1.5409950256e+02   -1.1039340973e+02
    1.5419900513e+02   -1.1039487457e+02
    1.5430000305e+02   -1.1039634705e+02
    1.5439939880e+02   -1.1039780426e+02
    1.5449879456e+02   -1.1039922333e+02
    1.5459979248e+02   -1.1040060425e+02
    1.5469909668e+02   -1.1040193176e+02
    1.5480009460e+02   -1.1040319061e+02
    1.5489950562e+02   -1.1040438843e+02
    1.5499890137e+02   -1.1040550995e+02
    1.5509930420e+02   -1.1040654755e+02
    1.5519990540e+02   -1.1040750885e+02
    1.5529969788e+02   -1.1040837097e+02
    1.5539909363e+02   -1.1040915680e+02
    1.5550010681e+02   -1.1040986633e+02
    1.5559939575e+02   -1.1041048431e+02
    1.5569880676e+02   -1.1041102600e+02
    1.5579960632e+02   -1.1041147614e+02
    1.5589889526e+02   -1.1041183472e+02
    1.5599969482e+02   -1.1041207886e+02
    1.5609890747e+02   -1.1041220093e+02
    1.5620010376e+02   -1.1041219330e+02
    1.5629969788e+02   -1.1041205597e+02
    1.5640010071e+02   -1.1041179657e+02
    1.5649870300e+02   -1.1041142273e+02
    1.5659910583e+02   -1.1041093445e+02
    1.5669929504e+02   -1.1041033173e+02
    1.5679980469e+02   -1.1040961456e+02
    1.5690029907e+02   -1.1040877533e+02
    1.5699909973e+02   -1.1040780640e+02
    1.5709939575e+02   -1.1040669250e+02
    1.5719960022e+02   -1.1040542603e+02
    1.5729960632e+02   -1.1040401459e+02
    1.5739959717e+02   -1.1040244293e+02
    1.5749940491e+02   -1.1040070343e+02
    1.5759979248e+02   -1.1039880371e+02
    1.5769949341e+02   -1.1039671326e+02
    1.5779939270e+02   -1.1039443970e+02
    1.5790010071e+02   -1.1039196777e+02
    1.5799899292e+02   -1.1038928223e+02
    1.5809939575e+02   -1.1038636780e+02
    1.5819960022e+02   -1.1038321686e+02
    1.5829930115e+02   -1.1037981415e+02
    1.5840029907e+02   -1.1037613678e+02
    1.5849920654e+02   -1.1037217712e+02
    1.5859910583e+02   -1.1036791229e+02
    1.5869920349e+02   -1.1036332703e+02
    1.5880039978e+02   -1.1035839844e+02
    1.5889930725e+02   -1.1035311890e+02
    1.5899949646e+02   -1.1034745789e+02
    1.5909959412e+02   -1.1034140778e+02
    1.5919979858e+02   -1.1033496094e+02
    1.5930000305e+02   -1.1032810211e+02
    1.5940010071e+02   -1.1032080841e+02
    1.5950030518e+02   -1.1031307220e+02
    1.5960049438e+02   -1.1030487061e+02
    1.5970039368e+02   -1.1029619598e+02
    1.5979919434e+02   -1.1028701782e+02
    1.5989939880e+02   -1.1027732849e+02
    1.5999949646e+02   -1.1026710510e+02
    1.6009989929e+02   -1.1025633240e+02
    1.6020010376e+02   -1.1024500275e+02
    1.6030020142e+02   -1.1023310089e+02
    1.6039990234e+02   -1.1022063446e+02
    1.6049969482e+02   -1.1020759583e+02
    1.6059950256e+02   -1.1019398499e+02
    1.6069909668e+02   -1.1017979431e+02
    1.6080000305e+02   -1.1016503143e+02
    1.6089920044e+02   -1.1014969635e+02
    1.6099949646e+02   -1.1013378906e+02
    1.6109950256e+02   -1.1011731720e+02
    1.6119929504e+02   -1.1010026550e+02
    1.6130009460e+02   -1.1008264160e+02
    1.6140060425e+02   -1.1006443787e+02
    1.6149920654e+02   -1.1004564667e+02
    1.6160040283e+02   -1.1002625275e+02
    1.6169970703e+02   -1.1000624847e+02
    1.6180009460e+02   -1.0998562622e+02
    1.6190029907e+02   -1.0996436310e+02
    1.6200010681e+02   -1.0994245911e+02
    1.6209970093e+02   -1.0991990662e+02
    1.6220050049e+02   -1.0989669037e+02
    1.6229960632e+02   -1.0987281036e+02
    1.6239990234e+02   -1.0984827423e+02
    1.6250010681e+02   -1.0982307434e+02
    1.6260009766e+02   -1.0979720306e+02
    1.6269999695e+02   -1.0977065277e+02
    1.6279969788e+02   -1.0974341583e+02
    1.6290069580e+02   -1.0971549988e+02
    1.6300010681e+02   -1.0968689728e+02
    1.6309950256e+02   -1.0965760040e+02
    1.6320019531e+02   -1.0962761688e+02
    1.6329939270e+02   -1.0959693909e+02
    1.6339990234e+02   -1.0956556702e+02
    1.6350030518e+02   -1.0953349304e+02
    1.6360060120e+02   -1.0950072479e+02
    1.6370069885e+02   -1.0946725464e+02
    1.6380079651e+02   -1.0943307495e+02
    1.6389970398e+02   -1.0939817810e+02
    1.6399969482e+02   -1.0936255646e+02
    1.6409970093e+02   -1.0932622528e+02
    1.6419949341e+02   -1.0928916931e+02
    1.6430059814e+02   -1.0925140381e+02
    1.6440010071e+02   -1.0921291351e+02
    1.6450079346e+02   -1.0917371368e+02
    1.6460069275e+02   -1.0913378906e+02
    1.6470030212e+02   -1.0909313965e+02
    1.6480000305e+02   -1.0905175781e+02
    1.6489950562e+02   -1.0900962067e+02
    1.6500070190e+02   -1.0896671295e+02
    1.6510009766e+02   -1.0892301178e+02
    1.6520069885e+02   -1.0887850189e+02
    1.6529969788e+02   -1.0883317566e+02
    1.6539979553e+02   -1.0878701782e+02
    1.6549960327e+02   -1.0874001312e+02
    1.6560060120e+02   -1.0869216156e+02
    1.6569990540e+02   -1.0864346313e+02
    1.6580039978e+02   -1.0859392548e+02
    1.6590049744e+02   -1.0854353333e+02
    1.6600039673e+02   -1.0849228668e+02
    1.6610049438e+02   -1.0844017792e+02
    1.6620060730e+02   -1.0838720703e+02
    1.6630020142e+02   -1.0833335876e+02
    1.6640089417e+02   -1.0827861786e+02
    1.6649989319e+02   -1.0822298431e+02
    1.6659979248e+02   -1.0816645050e+02
    1.6670069885e+02   -1.0810900879e+02
    1.6680000305e+02   -1.0805064392e+02
    1.6690029907e+02   -1.0799137115e+02
    1.6700030518e+02   -1.0793117523e+02
    1.6710000610e+02   -1.0787004852e+02
    1.6720080566e+02   -1.0780798340e+02
    1.6730000305e+02   -1.0774497986e+02
    1.6740040588e+02   -1.0768102264e+02
    1.6750050354e+02   -1.0761611938e+02
    1.6760060120e+02   -1.0755026245e+02
    1.6770050049e+02   -1.0748345184e+02
    1.6780029297e+02   -1.0741569519e+02
    1.6790010071e+02   -1.0734699249e+02
    1.6799989319e+02   -1.0727733612e+02
    1.6810090637e+02   -1.0720672607e+02
    1.6820060730e+02   -1.0713515472e+02
    1.6830110168e+02   -1.0706262970e+02
    1.6840029907e+02   -1.0698915100e+02
    1.6849980164e+02   -1.0691471100e+02
    1.6860090637e+02   -1.0683931732e+02
    1.6870069885e+02   -1.0676295471e+02
    1.6880079651e+02   -1.0668563080e+02
    1.6890089417e+02   -1.0660734558e+02
    1.6899989319e+02   -1.0652809143e+02
    1.6910040283e+02   -1.0644785309e+02
    1.6919979858e+02   -1.0636664581e+02
    1.6930059814e+02   -1.0628444672e+02
    1.6940029907e+02   -1.0620125580e+02
    1.6950019836e+02   -1.0611705780e+02
    1.6960020447e+02   -1.0603184509e+02
    1.6970039368e+02   -1.0594559479e+02
    1.6980070496e+02   -1.0585830688e+02
    1.6989979553e+02   -1.0576997375e+02
    1.7000039673e+02   -1.0568060303e+02
    1.7010110474e+02   -1.0559017944e+02
    1.7020050049e+02   -1.0549871063e+02
    1.7030009460e+02   -1.0540620422e+02
    1.7040109253e+02   -1.0531268311e+02
    1.7050100708e+02   -1.0521814728e+02
    1.7060029602e+02   -1.0512260437e+02
    1.7070089722e+02   -1.0502606964e+02
    1.7080020142e+02   -1.0492855072e+02
    1.7090080261e+02   -1.0483003998e+02
    1.7100010681e+02   -1.0473056030e+02
    1.7110049438e+02   -1.0463010406e+02
    1.7120080566e+02   -1.0452867889e+02
    1.7130090332e+02   -1.0442629242e+02
    1.7140080261e+02   -1.0432294464e+02
    1.7150059509e+02   -1.0421865082e+02
    1.7160009766e+02   -1.0411341095e+02
    1.7170060730e+02   -1.0400724030e+02
    1.7180099487e+02   -1.0390015411e+02
    1.7190100098e+02   -1.0379215240e+02
    1.7200090027e+02   -1.0368325043e+02
    1.7210049438e+02   -1.0357344818e+02
    1.7220109558e+02   -1.0346274567e+02
    1.7230020142e+02   -1.0335113525e+02
    1.7240029907e+02   -1.0323862457e+02
    1.7250059509e+02   -1.0312521362e+02
    1.7260110474e+02   -1.0301089478e+02
    1.7270120239e+02   -1.0289566803e+02
    1.7280119324e+02   -1.0277952576e+02
    1.7290089417e+02   -1.0266246033e+02
    1.7300050354e+02   -1.0254447174e+02
    1.7310130310e+02   -1.0242554474e+02
    1.7320060730e+02   -1.0230567169e+02
    1.7330110168e+02   -1.0218484497e+02
    1.7340020752e+02   -1.0206306458e+02
    1.7350070190e+02   -1.0194032288e+02
    1.7360119629e+02   -1.0181662750e+02
    1.7370039368e+02   -1.0169196320e+02
    1.7380099487e+02   -1.0156633759e+02
    1.7390049744e+02   -1.0143972778e+02
    1.7400019836e+02   -1.0131214905e+02
    1.7410130310e+02   -1.0118357849e+02
    1.7420140076e+02   -1.0105402374e+02
    1.7430020142e+02   -1.0092348480e+02
    1.7440060425e+02   -1.0079196167e+02
    1.7450109863e+02   -1.0065944672e+02
    1.7460040283e+02   -1.0052592468e+02
    1.7470129395e+02   -1.0039141846e+02
    1.7480099487e+02   -1.0025592804e+02
    1.7490080261e+02   -1.0011946106e+02
    1.7500090027e+02   -9.9982025146e+01
    1.7510119629e+02   -9.9843627930e+01
    1.7520039368e+02   -9.9704284668e+01
    1.7530050659e+02   -9.9564002991e+01
    1.7540139771e+02   -9.9422798157e+01
    1.7550059509e+02   -9.9280677795e+01
    1.7560130310e+02   -9.9137657166e+01
    1.7570089722e+02   -9.8993736267e+01
    1.7580059814e+02   -9.8848907471e+01
    1.7590060425e+02   -9.8703178406e+01
    1.7600070190e+02   -9.8556533813e+01
    1.7610090637e+02   -9.8408950806e+01
    1.7620120239e+02   -9.8260383606e+01
    1.7630039978e+02   -9.8110794067e+01
    1.7640089417e+02   -9.7960121155e+01
    1.7650149536e+02   -9.7808288574e+01
    1.7660099792e+02   -9.7655197144e+01
    1.7670129395e+02   -9.7500740051e+01
    1.7680119324e+02   -9.7344802856e+01
    1.7690119934e+02   -9.7187225342e+01
    1.7700140381e+02   -9.7027847290e+01
    1.7710029602e+02   -9.6866516113e+01
    1.7720080566e+02   -9.6703079224e+01
    1.7730149841e+02   -9.6537376404e+01
    1.7740119934e+02   -9.6369285583e+01
    1.7750100708e+02   -9.6198738098e+01
    1.7760099792e+02   -9.6025680542e+01
    1.7770080566e+02   -9.5850173950e+01
    1.7780079651e+02   -9.5672355652e+01
    1.7790080261e+02   -9.5492485046e+01
    1.7800120544e+02   -9.5310958862e+01
    1.7810150146e+02   -9.5128341675e+01
    1.7820150757e+02   -9.4945373535e+01
    1.7830039978e+02   -9.4762977600e+01
    1.7840089417e+02   -9.4582290649e+01
    1.7850129700e+02   -9.4404655457e+01
    1.7860029602e+02   -9.4231628418e+01
    1.7870080566e+02   -9.4064941406e+01
    1.7880119324e+02   -9.3906471252e+01
    1.7890040588e+02   -9.3758209229e+01
    1.7900030518e+02   -9.3622146606e+01
    1.7910110474e+02   -9.3500190735e+01
    1.7920100403e+02   -9.3394073486e+01
    1.7930149841e+02   -9.3305152893e+01
    1.7940069580e+02   -9.3234268188e+01
    1.7950030518e+02   -9.3181533813e+01
    1.7960139465e+02   -9.3146110535e+01
    1.7970140076e+02   -9.3125953674e+01
    1.7980169678e+02   -9.3117591858e+01
    1.7990080261e+02   -9.3115821838e+01
endcurve
