Curveplot
LS-DYNA keyword deck by LS-PrePost
Yrot-displ
phi moment-stiffness
Joint Stiff
300001 #pts=1000
* Minval= -1.474446289063e+004 at time=       0.202866107225
* Maxval=  9.417485351563e+003 at time=       2.373897314072
 1.158521278910e-009  3.944490104914e-002
-3.832512085467e-010  3.676725551486e-002
-2.756525452341e-009  2.565504610538e-002
-6.057052637232e-009  3.018120303750e-003
-1.019430051485e-008 -3.358344733715e-002
-1.495539514451e-008 -8.604742586613e-002
-1.978294328353e-008 -1.541027277708e-001
-2.377870700343e-008 -2.320098727942e-001
-2.575600888122e-008 -3.118731081486e-001
-2.413026578552e-008 -3.817363381386e-001
-1.705388541495e-008 -4.247361123562e-001
-1.896339973939e-009 -4.126551151276e-001
 2.290783740477e-008 -3.143964707851e-001
 5.866431962431e-008 -9.136271476746e-002
 1.047823303679e-007  2.873876392841e-001
 1.596235534862e-007  8.379405736923e-001
 2.177004034820e-007  1.525133371353e+000
 2.705296822114e-007  2.240400552750e+000
 3.059143693918e-007  2.808343887329e+000
 3.092317797382e-007  3.001927852631e+000
 2.643085963427e-007  2.559452295303e+000
 1.474897715070e-007  1.104370832443e+000
-5.700751160020e-008 -1.642770767212e+000
-3.630550793332e-007 -5.953269958496e+000
-7.868854936532e-007 -1.218393135071e+001
-1.335155843663e-006 -2.064018630981e+001
-2.015819745793e-006 -3.182701110840e+001
-2.821979251166e-006 -4.615314865112e+001
-3.739272870007e-006 -6.411346435547e+001
-4.729601187137e-006 -8.597908782959e+001
-5.754695393989e-006 -1.122707138062e+002
-6.751929049642e-006 -1.437799377441e+002
-7.633807399543e-006 -1.806720428467e+002
-8.296462510771e-006 -2.232333221436e+002
-8.613154932391e-006 -2.715587463379e+002
-8.440741112281e-006 -3.258815002441e+002
-7.561108304799e-006 -3.870200500488e+002
-5.789341230411e-006 -4.548314819336e+002
-2.902565256591e-006 -5.296255493164e+002
 1.348871137452e-006 -6.115560913086e+002
 7.219999133667e-006 -7.005612182617e+002
 1.517442706245e-005 -7.978397827148e+002
 2.539177330618e-005 -9.019348144531e+002
 3.838402335532e-005 -1.014459838867e+003
 5.430396413431e-005 -1.133175659180e+003
 7.389177335426e-005 -1.260031494141e+003
 9.749580931384e-005 -1.392735717773e+003
 1.258009142475e-004 -1.532166625977e+003
 1.590584724909e-004 -1.676495483398e+003
 1.978243089980e-004 -1.825300659180e+003
 2.424811973469e-004 -1.977476196289e+003
 2.945514861494e-004 -2.134436279297e+003
 3.535667492542e-004 -2.292716552734e+003
 4.204161814414e-004 -2.452911376953e+003
 4.962153616361e-004 -2.615401855469e+003
 5.807587876916e-004 -2.777717041016e+003
 6.753441994078e-004 -2.939736572266e+003
 7.807327201590e-004 -3.101387939453e+003
 8.969987393357e-004 -3.261468994141e+003
 1.024865196086e-003 -3.419779296875e+003
 1.164436107501e-003 -3.575363281250e+003
 1.317344256677e-003 -3.728264892578e+003
 1.484279870056e-003 -3.878729003906e+003
 1.665159361437e-003 -4.025972412109e+003
 1.859213341959e-003 -4.168886230469e+003
 2.068985253572e-003 -4.308731445313e+003
 2.294354373589e-003 -4.444143554688e+003
 2.536805346608e-003 -4.575806152344e+003
 2.794466214254e-003 -4.702388671875e+003
 3.070228500292e-003 -4.825175292969e+003
 3.362347139046e-003 -4.943188964844e+003
 3.672200720757e-003 -5.056667968750e+003
 3.999239299446e-003 -5.165959472656e+003
 4.347129724920e-003 -5.272777832031e+003
 4.711219575256e-003 -5.376233886719e+003
 5.094821099192e-003 -5.477710449219e+003
 5.498281214386e-003 -5.577648925781e+003
 5.922534037381e-003 -5.676898925781e+003
 6.364598404616e-003 -5.775474121094e+003
 6.828481331468e-003 -5.874866210938e+003
 7.309918757528e-003 -5.974723632813e+003
 7.816043682396e-003 -6.076864257813e+003
 8.342501707375e-003 -6.181136230469e+003
 8.890517055988e-003 -6.288199218750e+003
 9.457021020353e-003 -6.397858886719e+003
 1.005073729903e-002 -6.512139648438e+003
 1.066036894917e-002 -6.629033203125e+003
 1.129964832217e-002 -6.751317382813e+003
 1.196037512273e-002 -6.877541992188e+003
 1.264391094446e-002 -7.007937011719e+003
 1.335075404495e-002 -7.142615722656e+003
 1.408179290593e-002 -7.281582519531e+003
 1.483917515725e-002 -7.425064941406e+003
 1.562341861427e-002 -7.573172851563e+003
 1.643125526607e-002 -7.724974121094e+003
 1.726621761918e-002 -7.880912109375e+003
 1.813154481351e-002 -8.041142578125e+003
 1.902144588530e-002 -8.204187500000e+003
 1.994216814637e-002 -8.370826171875e+003
 2.089093066752e-002 -8.540009765625e+003
 2.187142707407e-002 -8.711860351563e+003
 2.287873998284e-002 -8.884791992188e+003
 2.391743287444e-002 -9.058848632813e+003
 2.499211952090e-002 -9.234265625000e+003
 2.609602548182e-002 -9.409131835938e+003
 2.723166719079e-002 -9.583303710938e+003
 2.840275876224e-002 -9.756145507813e+003
 2.960979379714e-002 -9.927207031250e+003
 3.085137717426e-002 -1.009554296875e+004
 3.212768957019e-002 -1.026054589844e+004
 3.344136849046e-002 -1.042180957031e+004
 3.479458019137e-002 -1.057846777344e+004
 3.618595376611e-002 -1.072983300781e+004
 3.761469572783e-002 -1.087537402344e+004
 3.908286616206e-002 -1.101480566406e+004
 4.059250652790e-002 -1.114789160156e+004
 4.213467985392e-002 -1.127341992188e+004
 4.372628405690e-002 -1.139254589844e+004
 4.535695910454e-002 -1.150481250000e+004
 4.702644422650e-002 -1.161048046875e+004
 4.873711243272e-002 -1.170996386719e+004
 5.049290880561e-002 -1.180365625000e+004
 5.228970572352e-002 -1.189171777344e+004
 5.413594841957e-002 -1.197526367188e+004
 5.602405220270e-002 -1.205432324219e+004
 5.794851854444e-002 -1.212909375000e+004
 5.991590395570e-002 -1.220009179688e+004
 6.194561719894e-002 -1.226832714844e+004
 6.400421261787e-002 -1.233324316406e+004
 6.610600650311e-002 -1.239566796875e+004
 6.827061623335e-002 -1.245651171875e+004
 7.046131789684e-002 -1.251505175781e+004
 7.269886136055e-002 -1.257229101563e+004
 7.498953491449e-002 -1.262879296875e+004
 7.732875645161e-002 -1.268478027344e+004
 7.970648258924e-002 -1.274033203125e+004
 8.213610202074e-002 -1.279603710938e+004
 8.461219072342e-002 -1.285207128906e+004
 8.713185042143e-002 -1.290866308594e+004
 8.970553427935e-002 -1.296626660156e+004
 9.230254590511e-002 -1.302443457031e+004
 9.496827423573e-002 -1.308433691406e+004
 9.768327325583e-002 -1.314583496094e+004
 1.004429087043e-001 -1.320886230469e+004
 1.032552421093e-001 -1.327376855469e+004
 1.061134636402e-001 -1.334046191406e+004
 1.090184375644e-001 -1.340892285156e+004
 1.119711995125e-001 -1.347909570313e+004
 1.149673983455e-001 -1.355073046875e+004
 1.180187910795e-001 -1.362383984375e+004
 1.211355254054e-001 -1.369833496094e+004
 1.242808029056e-001 -1.377302636719e+004
 1.274769008160e-001 -1.384792480469e+004
 1.307403445244e-001 -1.392299707031e+004
 1.340490430593e-001 -1.399731640625e+004
 1.374000310898e-001 -1.407028222656e+004
 1.408320367336e-001 -1.414212792969e+004
 1.442949920893e-001 -1.421120800781e+004
 1.478149294853e-001 -1.427771289063e+004
 1.513748317957e-001 -1.434083105469e+004
 1.550080329180e-001 -1.440064746094e+004
 1.586918830872e-001 -1.445630859375e+004
 1.624304205179e-001 -1.450737695313e+004
 1.662171185017e-001 -1.455367089844e+004
 1.700705736876e-001 -1.459523828125e+004
 1.739605665207e-001 -1.463160742188e+004
 1.779311746359e-001 -1.466301074219e+004
 1.819391101599e-001 -1.468892871094e+004
 1.860239654779e-001 -1.470991992188e+004
 1.901318430901e-001 -1.472579785156e+004
 1.943158358335e-001 -1.473689160156e+004
 1.985627859831e-001 -1.474312695313e+004
 2.028661072254e-001 -1.474446289063e+004
 2.072198092937e-001 -1.474117968750e+004
 2.116120606661e-001 -1.473337597656e+004
 2.160878479481e-001 -1.472100390625e+004
 2.206216007471e-001 -1.470408886719e+004
 2.251969426870e-001 -1.468273632813e+004
 2.298267483711e-001 -1.465729687500e+004
 2.345326244831e-001 -1.462786718750e+004
 2.392771691084e-001 -1.459499414063e+004
 2.440891265869e-001 -1.455877636719e+004
 2.489422410727e-001 -1.451975000000e+004
 2.538487911224e-001 -1.447829882813e+004
 2.588320970535e-001 -1.443453417969e+004
 2.638576626778e-001 -1.438904199219e+004
 2.689419388771e-001 -1.434190722656e+004
 2.740913331509e-001 -1.429328515625e+004
 2.792788445950e-001 -1.424374902344e+004
 2.845340967178e-001 -1.419316406250e+004
 2.898299694061e-001 -1.414202148438e+004
 2.951826155186e-001 -1.409036132813e+004
 3.005978465080e-001 -1.403834472656e+004
 3.060804009438e-001 -1.398603808594e+004
 3.115958273411e-001 -1.393387988281e+004
 3.171479701996e-001 -1.388192675781e+004
 3.227834105492e-001 -1.382977636719e+004
 3.284717798233e-001 -1.377771777344e+004
 3.342033624649e-001 -1.372582910156e+004
 3.399779796600e-001 -1.367408105469e+004
 3.458066582680e-001 -1.362231152344e+004
 3.516938090324e-001 -1.357050195313e+004
 3.576329648495e-001 -1.351862597656e+004
 3.636288046837e-001 -1.346656640625e+004
 3.696914911270e-001 -1.341413085938e+004
 3.757605254650e-001 -1.336168359375e+004
 3.819050788879e-001 -1.330846972656e+004
 3.880969583988e-001 -1.325447363281e+004
 3.943603336811e-001 -1.319935839844e+004
 4.006473124027e-001 -1.314340234375e+004
 4.069889783859e-001 -1.308622265625e+004
 4.133657515049e-001 -1.302800781250e+004
 4.198193252087e-001 -1.296825488281e+004
 4.263040423393e-001 -1.290748437500e+004
 4.328543245792e-001 -1.284534472656e+004
 4.394344091415e-001 -1.278212500000e+004
 4.460805654526e-001 -1.271736425781e+004
 4.527656435966e-001 -1.265110644531e+004
 4.594947099686e-001 -1.258323730469e+004
 4.662793874741e-001 -1.251344824219e+004
 4.730916619301e-001 -1.244191308594e+004
 4.799667298794e-001 -1.236806152344e+004
 4.868787527084e-001 -1.229211425781e+004
 4.938519299030e-001 -1.221386230469e+004
 5.008502006531e-001 -1.213371484375e+004
 5.079092383385e-001 -1.205138964844e+004
 5.149931311607e-001 -1.196732714844e+004
 5.221488475800e-001 -1.188105175781e+004
 5.293287634850e-001 -1.179324023438e+004
 5.365559458733e-001 -1.170369042969e+004
 5.438295006752e-001 -1.161249121094e+004
 5.511274337769e-001 -1.151987207031e+004
 5.584901571274e-001 -1.142532519531e+004
 5.658768415451e-001 -1.132943457031e+004
 5.733092427254e-001 -1.123199218750e+004
 5.807797908783e-001 -1.113308398438e+004
 5.882871150970e-001 -1.103284179688e+004
 5.958201885223e-001 -1.093131835938e+004
 6.034125089645e-001 -1.082834667969e+004
 6.110255718231e-001 -1.072447070313e+004
 6.186898350716e-001 -1.061942773438e+004
 6.263900399208e-001 -1.051364062500e+004
 6.341134905815e-001 -1.040733300781e+004
 6.418713331223e-001 -1.030060839844e+004
 6.496624946594e-001 -1.019349511719e+004
 6.574938893318e-001 -1.008605078125e+004
 6.653408408165e-001 -9.978726562500e+003
 6.732127070427e-001 -9.871448242188e+003
 6.811360120773e-001 -9.763973632813e+003
 6.891100406647e-001 -9.656419921875e+003
 6.970552802086e-001 -9.549916015625e+003
 7.050868868828e-001 -9.443114257813e+003
 7.130980491638e-001 -9.337606445313e+003
 7.211534380913e-001 -9.232657226563e+003
 7.292522192001e-001 -9.128375000000e+003
 7.373453974724e-001 -9.025621093750e+003
 7.454950809479e-001 -8.923678710938e+003
 7.536463737488e-001 -8.823534179688e+003
 7.618315219879e-001 -8.724746093750e+003
 7.700143456459e-001 -8.627813476563e+003
 7.782307863235e-001 -8.532246093750e+003
 7.864750027657e-001 -8.438073242188e+003
 7.947357892990e-001 -8.345400390625e+003
 8.030429482460e-001 -8.253666015625e+003
 8.113200664520e-001 -8.163592285156e+003
 8.196485638618e-001 -8.074135742188e+003
 8.279692530632e-001 -7.985802246094e+003
 8.363362550735e-001 -7.897944824219e+003
 8.447024226189e-001 -7.810893554688e+003
 8.531061410904e-001 -7.724170898438e+003
 8.614989519119e-001 -7.638193359375e+003
 8.698900341988e-001 -7.552782226563e+003
 8.783237934113e-001 -7.467459472656e+003
 8.867512941360e-001 -7.382642089844e+003
 8.952177762985e-001 -7.297781738281e+003
 9.036960601807e-001 -7.213106933594e+003
 9.121355414391e-001 -7.129003906250e+003
 9.206554293633e-001 -7.044180175781e+003
 9.291394352913e-001 -6.959714843750e+003
 9.376298189163e-001 -6.875076660156e+003
 9.461255669594e-001 -6.790105468750e+003
 9.546675682068e-001 -6.704266113281e+003
 9.631893634796e-001 -6.618130371094e+003
 9.717174172401e-001 -6.531236328125e+003
 9.802479147911e-001 -6.443555175781e+003
 9.888065457344e-001 -6.354725097656e+003
 9.973402023315e-001 -6.265111328125e+003
 1.005891442299e+000 -6.174222656250e+003
 1.014427661896e+000 -6.082230468750e+003
 1.022998571396e+000 -5.988622558594e+003
 1.031561255455e+000 -5.893774902344e+003
 1.040116906166e+000 -5.797635253906e+003
 1.048654794693e+000 -5.700214843750e+003
 1.057230234146e+000 -5.600895996094e+003
 1.065790295601e+000 -5.500335937500e+003
 1.074337720871e+000 -5.398374023438e+003
 1.082876801491e+000 -5.295094238281e+003
 1.091423869133e+000 -5.190155273438e+003
 1.099974155426e+000 -5.083835449219e+003
 1.108513236046e+000 -4.976374023438e+003
 1.117027878761e+000 -4.868055175781e+003
 1.125542998314e+000 -4.758735839844e+003
 1.134071826935e+000 -4.648317871094e+003
 1.142573833466e+000 -4.537562988281e+003
 1.151081562042e+000 -4.426272949219e+003
 1.159574031830e+000 -4.314999511719e+003
 1.168045878410e+000 -4.204029296875e+003
 1.176502585411e+000 -4.093495605469e+003
 1.184976816177e+000 -3.983226562500e+003
 1.193429112434e+000 -3.873835205078e+003
 1.201869249344e+000 -3.765399414063e+003
 1.210267424583e+000 -3.658410400391e+003
 1.218672394753e+000 -3.552268066406e+003
 1.227071881294e+000 -3.447271728516e+003
 1.235435366631e+000 -3.343873535156e+003
 1.243799448013e+000 -3.241652099609e+003
 1.252142310143e+000 -3.140925292969e+003
 1.260477304459e+000 -3.041757568359e+003
 1.268758773804e+000 -2.944697021484e+003
 1.277047395706e+000 -2.849083984375e+003
 1.285306811333e+000 -2.755347412109e+003
 1.293544054031e+000 -2.663528320313e+003
 1.301788091660e+000 -2.573328857422e+003
 1.309992313385e+000 -2.485234863281e+003
 1.318171739578e+000 -2.398870849609e+003
 1.326349020004e+000 -2.313973388672e+003
 1.334473967552e+000 -2.230903076172e+003
 1.342592358589e+000 -2.149108642578e+003
 1.350713133812e+000 -2.068299072266e+003
 1.358774065971e+000 -1.988898315430e+003
 1.366849303246e+000 -1.910010864258e+003
 1.374846458435e+000 -1.832342529297e+003
 1.382875204086e+000 -1.754625732422e+003
 1.390851140022e+000 -1.677369873047e+003
 1.398789405823e+000 -1.600208496094e+003
 1.406725525856e+000 -1.522507080078e+003
 1.414618611336e+000 -1.444404785156e+003
 1.422466754913e+000 -1.365601562500e+003
 1.430337309837e+000 -1.285242919922e+003
 1.438129305840e+000 -1.204134277344e+003
 1.445918560028e+000 -1.121357055664e+003
 1.453669190407e+000 -1.037156982422e+003
 1.461409449577e+000 -9.510059814453e+002
 1.469111442566e+000 -8.631071777344e+002
 1.476791620255e+000 -7.733168945313e+002
 1.484444141388e+000 -6.816541748047e+002
 1.492056965828e+000 -5.882609252930e+002
 1.499628663063e+000 -4.931480712891e+002
 1.507186889648e+000 -3.960814819336e+002
 1.514711022377e+000 -2.975587158203e+002
 1.522197127342e+000 -1.977801666260e+002
 1.529645442963e+000 -9.692340850830e+001
 1.537065029144e+000  4.941738128662e+000
 1.544474959373e+000  1.078173675537e+002
 1.551810026169e+000  2.106502990723e+002
 1.559143900871e+000  3.144228515625e+002
 1.566439390182e+000  4.186998901367e+002
 1.573693156242e+000  5.236017456055e+002
 1.580904245377e+000  6.288712158203e+002
 1.588072657585e+000  7.339986572266e+002
 1.595198392868e+000  8.384733886719e+002
 1.602317452431e+000  9.424771728516e+002
 1.609360337257e+000  1.044509399414e+003
 1.616371154785e+000  1.144522338867e+003
 1.623335838318e+000  1.241647216797e+003
 1.630250573158e+000  1.335652465820e+003
 1.637147188187e+000  1.426695556641e+003
 1.643961429596e+000  1.513359008789e+003
 1.650754332542e+000  1.595753662109e+003
 1.657529234886e+000  1.673614135742e+003
 1.664225101471e+000  1.746247192383e+003
 1.670882940292e+000  1.813937255859e+003
 1.677519083023e+000  1.876254394531e+003
 1.684095025063e+000  1.932601318359e+003
 1.690646171570e+000  1.983589477539e+003
 1.697146415710e+000  2.029068115234e+003
 1.703600049019e+000  2.069105224609e+003
 1.709986686707e+000  2.103909179688e+003
 1.716363072395e+000  2.134689697266e+003
 1.722672700882e+000  2.162054199219e+003
 1.728922486305e+000  2.186347412109e+003
 1.735151171684e+000  2.207819091797e+003
 1.741304397583e+000  2.226365478516e+003
 1.747439622879e+000  2.242207031250e+003
 1.753504037857e+000  2.255160156250e+003
 1.759505510330e+000  2.265197021484e+003
 1.765482187271e+000  2.272701660156e+003
 1.771382927895e+000  2.278280761719e+003
 1.777262568474e+000  2.282799560547e+003
 1.783054351807e+000  2.286849609375e+003
 1.788802862167e+000  2.290863037109e+003
 1.794498682022e+000  2.295125000000e+003
 1.800141215324e+000  2.299832519531e+003
 1.805708169937e+000  2.304942871094e+003
 1.811252951622e+000  2.310139648438e+003
 1.816704630852e+000  2.315006591797e+003
 1.822118878365e+000  2.319568115234e+003
 1.827464222908e+000  2.324118652344e+003
 1.832771897316e+000  2.329068847656e+003
 1.838014483452e+000  2.334849365234e+003
 1.843202352524e+000  2.342150634766e+003
 1.848329782486e+000  2.351344238281e+003
 1.853405237198e+000  2.361969726563e+003
 1.858427047729e+000  2.372898193359e+003
 1.863406181335e+000  2.383284179688e+003
 1.868341922760e+000  2.392322753906e+003
 1.873239994049e+000  2.398758056641e+003
 1.878094553947e+000  2.401351074219e+003
 1.882897377014e+000  2.400088378906e+003
 1.887660264969e+000  2.396092529297e+003
 1.892383217812e+000  2.389781005859e+003
 1.897080063820e+000  2.380905273438e+003
 1.901719212532e+000  2.369318603516e+003
 1.906354188919e+000  2.354535400391e+003
 1.910937070847e+000  2.335512451172e+003
 1.915487408638e+000  2.310729248047e+003
 1.920010328293e+000  2.280208740234e+003
 1.924511790276e+000  2.245810058594e+003
 1.929002285004e+000  2.210733398438e+003
 1.933473110199e+000  2.179319580078e+003
 1.937938094139e+000  2.156729003906e+003
 1.942404270172e+000  2.148108154297e+003
 1.946886062622e+000  2.157042480469e+003
 1.951396584511e+000  2.185547363281e+003
 1.955967187881e+000  2.232988525391e+003
 1.960623860359e+000  2.297216308594e+003
 1.965382099152e+000  2.372004638672e+003
 1.970267295837e+000  2.448272705078e+003
 1.975295901299e+000  2.516152832031e+003
 1.980486750603e+000  2.568882812500e+003
 1.985835552216e+000  2.600550537109e+003
 1.991362214088e+000  2.607099121094e+003
 1.997020959854e+000  2.587803955078e+003
 2.002776384354e+000  2.545901367188e+003
 2.008648395538e+000  2.488399414063e+003
 2.014576673508e+000  2.423282958984e+003
 2.020523786545e+000  2.360911865234e+003
 2.026468992233e+000  2.312342041016e+003
 2.032376527786e+000  2.286035156250e+003
 2.038228273392e+000  2.281989501953e+003
 2.044013261795e+000  2.297610107422e+003
 2.049763917923e+000  2.328397949219e+003
 2.055447578430e+000  2.368010498047e+003
 2.061076164246e+000  2.410267333984e+003
 2.066662549973e+000  2.451316650391e+003
 2.072233200073e+000  2.490052978516e+003
 2.077763080597e+000  2.526361572266e+003
 2.083302974701e+000  2.561672851563e+003
 2.088795900345e+000  2.598146240234e+003
 2.094285964966e+000  2.638959228516e+003
 2.099759340286e+000  2.686602294922e+003
 2.105223894119e+000  2.743896484375e+003
 2.110681772232e+000  2.814811523438e+003
 2.116113662720e+000  2.903913818359e+003
 2.121525526047e+000  3.012664550781e+003
 2.126903533936e+000  3.141445800781e+003
 2.132273197174e+000  3.291405273438e+003
 2.137594223022e+000  3.461990234375e+003
 2.142918825150e+000  3.655497558594e+003
 2.148191928864e+000  3.867770996094e+003
 2.153433561325e+000  4.098517089844e+003
 2.158658027649e+000  4.346905273438e+003
 2.163831472397e+000  4.608155761719e+003
 2.168999671936e+000  4.880090332031e+003
 2.174125432968e+000  5.154638671875e+003
 2.179215908051e+000  5.426535644531e+003
 2.184261083603e+000  5.688660644531e+003
 2.189279794693e+000  5.935342285156e+003
 2.194255590439e+000  6.157845703125e+003
 2.199192523956e+000  6.352229980469e+003
 2.204070329666e+000  6.513724609375e+003
 2.208911180496e+000  6.640755371094e+003
 2.213728427887e+000  6.733158691406e+003
 2.218464136124e+000  6.790750000000e+003
 2.223171949387e+000  6.820644531250e+003
 2.227810859680e+000  6.826717285156e+003
 2.232417106628e+000  6.813053710938e+003
 2.236968040466e+000  6.783161132813e+003
 2.241473197937e+000  6.738553222656e+003
 2.245903968811e+000  6.681175781250e+003
 2.250292778015e+000  6.610979492188e+003
 2.254638195038e+000  6.528437988281e+003
 2.258930444717e+000  6.434697753906e+003
 2.263161182404e+000  6.330313964844e+003
 2.267353296280e+000  6.216528320313e+003
 2.271481513977e+000  6.095482421875e+003
 2.275572061539e+000  5.968313476563e+003
 2.279604911804e+000  5.837458007813e+003
 2.283585786819e+000  5.705615234375e+003
 2.287512779236e+000  5.577188476563e+003
 2.291380405426e+000  5.456929687500e+003
 2.295211076736e+000  5.348743164063e+003
 2.298961639404e+000  5.258156250000e+003
 2.302669048309e+000  5.190074218750e+003
 2.306318044662e+000  5.148617187500e+003
 2.309899091721e+000  5.138074218750e+003
 2.313428878784e+000  5.162489746094e+003
 2.316900014877e+000  5.225609863281e+003
 2.320311069489e+000  5.332591308594e+003
 2.323662281036e+000  5.481549804688e+003
 2.326960086823e+000  5.670667480469e+003
 2.330196619034e+000  5.895931640625e+003
 2.333376884460e+000  6.152710449219e+003
 2.336500644684e+000  6.435753417969e+003
 2.339570283890e+000  6.736369628906e+003
 2.342570304871e+000  7.045639648438e+003
 2.345518350601e+000  7.358747558594e+003
 2.348392486572e+000  7.666856445313e+003
 2.351222276688e+000  7.966791992188e+003
 2.353986024857e+000  8.249506835938e+003
 2.356684207916e+000  8.510218750000e+003
 2.359330177307e+000  8.745484375000e+003
 2.361903429031e+000  8.949218750000e+003
 2.364426374435e+000  9.118144531250e+003
 2.366885900497e+000  9.250252929688e+003
 2.369283914566e+000  9.344671875000e+003
 2.371623992920e+000  9.400525390625e+003
 2.373897314072e+000  9.417485351563e+003
 2.376113891602e+000  9.394377929688e+003
 2.378263711929e+000  9.334282226563e+003
 2.380351543427e+000  9.239433593750e+003
 2.382378578186e+000  9.111918945313e+003
 2.384349346161e+000  8.953751953125e+003
 2.386248588562e+000  8.766996093750e+003
 2.388082742691e+000  8.554891601563e+003
 2.389861106873e+000  8.319002929688e+003
 2.391572713852e+000  8.064767089844e+003
 2.393221378326e+000  7.797071777344e+003
 2.394806385040e+000  7.522542968750e+003
 2.396326065063e+000  7.251294921875e+003
 2.397786378860e+000  6.992291992188e+003
 2.399182558060e+000  6.755817382813e+003
 2.400521993637e+000  6.549428710938e+003
 2.401791810989e+000  6.383962890625e+003
 2.403004407883e+000  6.262539550781e+003
 2.404156923294e+000  6.188274902344e+003
 2.405243873596e+000  6.161546875000e+003
 2.406274795532e+000  6.179790039063e+003
 2.407242059708e+000  6.239979980469e+003
 2.408144235611e+000  6.333226562500e+003
 2.408985853195e+000  6.450787109375e+003
 2.409766674042e+000  6.584577148438e+003
 2.410482883453e+000  6.726472167969e+003
 2.411133766174e+000  6.870236816406e+003
 2.411720991135e+000  7.010283203125e+003
 2.412243127823e+000  7.142216308594e+003
 2.412700891495e+000  7.264056152344e+003
 2.413094997406e+000  7.375422851563e+003
 2.413421154022e+000  7.475918457031e+003
 2.413680791855e+000  7.567296875000e+003
 2.413876295090e+000  7.651763671875e+003
 2.414007902145e+000  7.731750488281e+003
 2.414074420929e+000  7.807550292969e+003
 2.414072990417e+000  7.878914550781e+003
 2.414005517960e+000  7.945153808594e+003
 2.413872957230e+000  8.004624511719e+003
 2.413676261902e+000  8.055976562500e+003
 2.413414478302e+000  8.098061035156e+003
 2.413085699081e+000  8.128801757813e+003
 2.412690401077e+000  8.146965820313e+003
 2.412234306335e+000  8.150711425781e+003
 2.411718368530e+000  8.138005371094e+003
 2.411142349243e+000  8.107182617188e+003
 2.410511016846e+000  8.058088867188e+003
 2.409829139709e+000  7.993290527344e+003
 2.409099578857e+000  7.915713867188e+003
 2.408326148987e+000  7.829447265625e+003
 2.407518863678e+000  7.740495117188e+003
 2.406677961349e+000  7.651953613281e+003
 2.405812740326e+000  7.567910156250e+003
 2.404926061630e+000  7.487666992188e+003
 2.404025077820e+000  7.412395019531e+003
 2.403099536896e+000  7.339870605469e+003
 2.402155160904e+000  7.269998535156e+003
 2.401181221008e+000  7.200941894531e+003
 2.400171041489e+000  7.132140136719e+003
 2.399109363556e+000  7.064505859375e+003
 2.397985696793e+000  6.999327636719e+003
 2.396788358688e+000  6.939864257813e+003
 2.395504713058e+000  6.888071289063e+003
 2.394125461578e+000  6.845967285156e+003
 2.392656564713e+000  6.813645019531e+003
 2.391093730927e+000  6.788871093750e+003
 2.389442920685e+000  6.767505371094e+003
 2.387706995010e+000  6.744013671875e+003
 2.385905504227e+000  6.714208984375e+003
 2.384038448334e+000  6.675595214844e+003
 2.382107019424e+000  6.627924804688e+003
 2.380125999451e+000  6.573854980469e+003
 2.378088951111e+000  6.518049316406e+003
 2.375992774963e+000  6.464709472656e+003
 2.373844146729e+000  6.418638671875e+003
 2.371649503708e+000  6.382931640625e+003
 2.369392395020e+000  6.358815429688e+003
 2.367085456848e+000  6.345947753906e+003
 2.364723205566e+000  6.341498535156e+003
 2.362294197083e+000  6.342453125000e+003
 2.359816074371e+000  6.345115722656e+003
 2.357276439667e+000  6.345357421875e+003
 2.354673624039e+000  6.339118164063e+003
 2.352020978928e+000  6.323888671875e+003
 2.349309682846e+000  6.298020019531e+003
 2.346537113190e+000  6.261261718750e+003
 2.343703269958e+000  6.214307128906e+003
 2.340831995010e+000  6.160633789063e+003
 2.337894201279e+000  6.102877929688e+003
 2.334918260574e+000  6.045999023438e+003
 2.331887483597e+000  5.992618164063e+003
 2.328799962997e+000  5.946448242188e+003
 2.325670957565e+000  5.911172363281e+003
 2.322508573532e+000  5.888843261719e+003
 2.319286108017e+000  5.881955078125e+003
 2.316029310226e+000  5.893050292969e+003
 2.312720537186e+000  5.924911621094e+003
 2.309372186661e+000  5.978598144531e+003
 2.305994510651e+000  6.052699707031e+003
 2.302559375763e+000  6.146397949219e+003
 2.299085140228e+000  6.256346191406e+003
 2.295565843582e+000  6.378842773438e+003
 2.292006254196e+000  6.507000000000e+003
 2.288400888443e+000  6.634782714844e+003
 2.284752130508e+000  6.754677734375e+003
 2.281050920486e+000  6.861217773438e+003
 2.277314186096e+000  6.944563476563e+003
 2.273515224457e+000  6.999212402344e+003
 2.269677877426e+000  7.020549804688e+003
 2.265808582306e+000  7.006985351563e+003
 2.261880397797e+000  6.958426269531e+003
 2.257901906967e+000  6.875917480469e+003
 2.253880739212e+000  6.764518554688e+003
 2.249803543091e+000  6.628797851563e+003
 2.245692968369e+000  6.475564941406e+003
 2.241527795792e+000  6.309559570313e+003
 2.237318038940e+000  6.135115234375e+003
 2.233067274094e+000  5.955224121094e+003
 2.228771686554e+000  5.772189941406e+003
 2.224408864975e+000  5.582415039063e+003
 2.220018863678e+000  5.386673828125e+003
 2.215564012527e+000  5.179039550781e+003
 2.211073160172e+000  4.959346191406e+003
 2.206516504288e+000  4.724927246094e+003
 2.201939821243e+000  4.478581054688e+003
 2.197292804718e+000  4.217839355469e+003
 2.192596912384e+000  3.950640136719e+003
 2.187873601913e+000  3.681531982422e+003
 2.183092594147e+000  3.416899902344e+003
 2.178282737732e+000  3.164418212891e+003
 2.173420667648e+000  2.932558349609e+003
 2.168517589569e+000  2.730956298828e+003
 2.163567304611e+000  2.569931884766e+003
 2.158592224121e+000  2.458617187500e+003
 2.153590440750e+000  2.403417968750e+003
 2.148556709290e+000  2.409235595703e+003
 2.143476724625e+000  2.480824462891e+003
 2.138417243958e+000  2.619002685547e+003
 2.133319854736e+000  2.817790283203e+003
 2.128232955933e+000  3.068364990234e+003
 2.123130321503e+000  3.365980224609e+003
 2.118018627167e+000  3.693758056641e+003
 2.112949132919e+000  4.036377197266e+003
 2.107868194580e+000  4.379355468750e+003
 2.102796792984e+000  4.705448242188e+003
 2.097734928131e+000  4.998265136719e+003
 2.092708110809e+000  5.245822265625e+003
 2.087677478790e+000  5.435639648438e+003
 2.082645893097e+000  5.563898437500e+003
 2.077634334564e+000  5.628041503906e+003
 2.072602272034e+000  5.629329589844e+003
 2.067557811737e+000  5.570683105469e+003
 2.062499284744e+000  5.457203613281e+003
 2.057408809662e+000  5.299857421875e+003
 2.052285909653e+000  5.107894531250e+003
 2.047131538391e+000  4.889916015625e+003
 2.041910886765e+000  4.650665039063e+003
 2.036676168442e+000  4.399287597656e+003
 2.031397581100e+000  4.138152343750e+003
 2.026086807251e+000  3.869592285156e+003
 2.020759105682e+000  3.592449951172e+003
 2.015415430069e+000  3.304006347656e+003
 2.010077476501e+000  3.001483642578e+003
 2.004707813263e+000  2.679166992188e+003
 1.999363899231e+000  2.340867675781e+003
 1.994041681290e+000  1.985898071289e+003
 1.988702416420e+000  1.615242309570e+003
 1.983394622803e+000  1.240699951172e+003
 1.978112936020e+000  8.722996215820e+002
 1.972823858261e+000  5.199765625000e+002
 1.967541933060e+000  1.971009521484e+002
 1.962301492691e+000 -8.185831451416e+001
 1.957050800323e+000 -3.019815673828e+002
 1.951798915863e+000 -4.602442932129e+002
 1.946541428566e+000 -5.502577514648e+002
 1.941318869591e+000 -5.689967041016e+002
 1.936078548431e+000 -5.155975341797e+002
 1.930843710899e+000 -3.882005920410e+002
 1.925594806671e+000 -1.944372558594e+002
 1.920371055603e+000  6.046173858643e+001
 1.915160179138e+000  3.675899353027e+002
 1.909927248955e+000  7.220509643555e+002
 1.904688119888e+000  1.109199340820e+003
 1.899479389191e+000  1.516372070313e+003
 1.894262313843e+000  1.930968017578e+003
 1.889027833939e+000  2.346654785156e+003
 1.883805751801e+000  2.747589843750e+003
 1.878553390503e+000  3.131823486328e+003
 1.873307347298e+000  3.486351074219e+003
 1.868056178093e+000  3.806861816406e+003
 1.862811446190e+000  4.087431152344e+003
 1.857547283173e+000  4.322696289063e+003
 1.852286577225e+000  4.503737304688e+003
 1.847009778023e+000  4.627070800781e+003
 1.841729879379e+000  4.686339843750e+003
 1.836451530457e+000  4.675697753906e+003
 1.831165432930e+000  4.590648437500e+003
 1.825868964195e+000  4.424488281250e+003
 1.820574879646e+000  4.182202636719e+003
 1.815282940865e+000  3.869369628906e+003
 1.809980034828e+000  3.493620605469e+003
 1.804672360420e+000  3.064951171875e+003
 1.799355864525e+000  2.591172851563e+003
 1.794077038765e+000  2.096384765625e+003
 1.788778901100e+000  1.583191528320e+003
 1.783448457718e+000  1.065608032227e+003
 1.778161883354e+000  5.570408325195e+002
 1.772851943970e+000  6.550389099121e+001
 1.767583370209e+000 -4.014184570313e+002
 1.762270092964e+000 -8.435276489258e+002
 1.756984233856e+000 -1.251655517578e+003
 1.751724481583e+000 -1.620288940430e+003
 1.746443748474e+000 -1.945287841797e+003
 1.741165161133e+000 -2.214797363281e+003
 1.735919475555e+000 -2.422782958984e+003
 1.730668544769e+000 -2.563599121094e+003
 1.725411176682e+000 -2.632508544922e+003
 1.720163226128e+000 -2.621822021484e+003
 1.714949011803e+000 -2.535234375000e+003
 1.709704875946e+000 -2.372935791016e+003
 1.704501628876e+000 -2.139002441406e+003
 1.699281334877e+000 -1.831880737305e+003
 1.694056630135e+000 -1.456445068359e+003
 1.688850522041e+000 -1.020565002441e+003
 1.683673739433e+000 -5.366140747070e+002
 1.678484201431e+000 -1.330146026611e+001
 1.673273801804e+000  5.407548828125e+002
 1.668100714684e+000  1.103255004883e+003
 1.662907958031e+000  1.661091796875e+003
 1.657723307610e+000  2.196724121094e+003
 1.652541399002e+000  2.695085693359e+003
 1.647353887558e+000  3.141662841797e+003
 1.642157554626e+000  3.520076904297e+003
 1.636951565742e+000  3.823349609375e+003
 1.631767034531e+000  4.046950439453e+003
 1.626546502113e+000  4.193506347656e+003
 1.621335625648e+000  4.262786132813e+003
 1.616133213043e+000  4.257606445313e+003
 1.610899329185e+000  4.186434570313e+003
 1.605655074120e+000  4.054339111328e+003
 1.600404024124e+000  3.863086914063e+003
 1.595144629478e+000  3.614343994141e+003
 1.589893102646e+000  3.303577880859e+003
 1.584610342979e+000  2.930153808594e+003
 1.579334616661e+000  2.495887695313e+003
 1.574037551880e+000  1.996764160156e+003
 1.568753838539e+000  1.444051635742e+003
 1.563456654549e+000  8.352145996094e+002
 1.558150053024e+000  1.851708679199e+002
 1.552862167358e+000 -4.851725158691e+002
 1.547560334206e+000 -1.164294433594e+003
 1.542295813560e+000 -1.825284301758e+003
 1.537004590034e+000 -2.459087890625e+003
 1.531761169434e+000 -3.034452148438e+003
 1.526510596275e+000 -3.543393554688e+003
 1.521292448044e+000 -3.960768554688e+003
 1.516070365906e+000 -4.276134277344e+003
 1.510913848877e+000 -4.464083984375e+003
 1.505757927895e+000 -4.520674316406e+003
 1.500610709190e+000 -4.442805664063e+003
 1.495503664017e+000 -4.233166015625e+003
 1.490411639214e+000 -3.900621093750e+003
 1.485360145569e+000 -3.454954589844e+003
 1.480309367180e+000 -2.917014648438e+003
 1.475260853767e+000 -2.306641601563e+003
 1.470264554024e+000 -1.649173095703e+003
 1.465264678001e+000 -9.483480834961e+002
 1.460276842117e+000 -2.303014526367e+002
 1.455297708511e+000  4.923203125000e+002
 1.450338721275e+000  1.210899536133e+003
 1.445348620415e+000  1.918845703125e+003
 1.440376400948e+000  2.596471435547e+003
 1.435403585434e+000  3.239050292969e+003
 1.430417656898e+000  3.831242187500e+003
 1.425432562828e+000  4.355347656250e+003
 1.420407533646e+000  4.800268554688e+003
 1.415395736694e+000  5.147052734375e+003
 1.410404682159e+000  5.378771484375e+003
 1.405358195305e+000  5.490836914063e+003
 1.400305867195e+000  5.479845703125e+003
 1.395255327225e+000  5.345621582031e+003
 1.390209794044e+000  5.092320800781e+003
 1.385144233704e+000  4.723705566406e+003
 1.380074381828e+000  4.255975097656e+003
 1.374987840652e+000  3.708820312500e+003
 1.369909048080e+000  3.103548339844e+003
 1.364858150482e+000  2.460252685547e+003
 1.359782457352e+000  1.790256103516e+003
 1.354719996452e+000  1.126318725586e+003
 1.349655389786e+000  4.790973510742e+002
 1.344594359398e+000 -1.349473724365e+002
 1.339575171471e+000 -6.972607421875e+002
 1.334559679031e+000 -1.202013549805e+003
 1.329553246498e+000 -1.639471313477e+003
 1.324562788010e+000 -2.007223510742e+003
 1.319589376450e+000 -2.297273437500e+003
 1.314643144608e+000 -2.509285156250e+003
 1.309710621834e+000 -2.643581787109e+003
 1.304782509804e+000 -2.704374023438e+003
 1.299871921539e+000 -2.699777832031e+003
 1.294981718063e+000 -2.637261718750e+003
 1.290073633194e+000 -2.521979003906e+003
 1.285224080086e+000 -2.356980468750e+003
 1.280361533165e+000 -2.143371093750e+003
 1.275466918945e+000 -1.880348510742e+003
 1.270626068115e+000 -1.575170898438e+003
 1.265792846680e+000 -1.227281250000e+003
 1.260967850685e+000 -8.383878173828e+002
 1.256194949150e+000 -4.166176757813e+002
 1.251371622086e+000  4.689866638184e+001
 1.246567368507e+000  5.432096557617e+002
 1.241771817207e+000  1.070865478516e+003
 1.237000942230e+000  1.632957031250e+003
 1.232216119766e+000  2.223484130859e+003
 1.227415204048e+000  2.833655761719e+003
 1.222657322884e+000  3.449457519531e+003
 1.217834830284e+000  4.068577636719e+003
 1.213040113449e+000  4.668870117188e+003
 1.208269000053e+000  5.226263671875e+003
 1.203431487083e+000  5.746591796875e+003
 1.198632240295e+000  6.198340332031e+003
 1.193778753281e+000  6.579933105469e+003
 1.188960671425e+000  6.868123535156e+003
 1.184095859528e+000  7.054771484375e+003
 1.179218769073e+000  7.131833984375e+003
 1.174328565598e+000  7.092663574219e+003
 1.169405817986e+000  6.932806152344e+003
 1.164490342140e+000  6.653476074219e+003
 1.159510731697e+000  6.254759277344e+003
 1.154550671577e+000  5.755178222656e+003
 1.149561882019e+000  5.167163085938e+003
 1.144574880600e+000  4.512605468750e+003
 1.139532566071e+000  3.800681640625e+003
 1.134526729584e+000  3.067718994141e+003
 1.129488945007e+000  2.333039550781e+003
 1.124430537224e+000  1.614594238281e+003
 1.119401454926e+000  9.394039306641e+002
 1.114336371422e+000  3.145895996094e+002
 1.109312415123e+000 -2.325134429932e+002
 1.104258298874e+000 -7.020192260742e+002
 1.099233984947e+000 -1.082075561523e+003
 1.094225168228e+000 -1.370564819336e+003
 1.089215874672e+000 -1.561331298828e+003
 1.084210872650e+000 -1.654668457031e+003
 1.079202413559e+000 -1.657755615234e+003
 1.074230194092e+000 -1.577110961914e+003
 1.069244623184e+000 -1.419956298828e+003
 1.064305663109e+000 -1.195059326172e+003
 1.059317708015e+000 -9.048972778320e+002
 1.054358124733e+000 -5.589489746094e+002
 1.049414396286e+000 -1.617054138184e+002
 1.044440627098e+000  2.901029357910e+002
 1.039517998695e+000  7.890375976563e+002
 1.034526228905e+000  1.341298095703e+003
 1.029562592506e+000  1.927375122070e+003
 1.024587631226e+000  2.539129150391e+003
 1.019576311111e+000  3.166019287109e+003
 1.014581799507e+000  3.779623291016e+003
 1.009530305862e+000  4.373198242188e+003
 1.004499435425e+000  4.920449218750e+003
 9.994280934334e-001  5.413957031250e+003
 9.943383932114e-001  5.842895996094e+003
 9.891839027405e-001  6.202969726563e+003
 9.840461611748e-001  6.486614257813e+003
 9.788735508919e-001  6.701314941406e+003
 9.736616015434e-001  6.850895996094e+003
 9.684215188026e-001  6.939142578125e+003
 9.631780982018e-001  6.967553710938e+003
 9.579005241394e-001  6.938345703125e+003
 9.525868892670e-001  6.856291992188e+003
 9.472350478172e-001  6.723911621094e+003
 9.418900012970e-001  6.544412109375e+003
 9.364912509918e-001  6.315900878906e+003
 9.310488700867e-001  6.042478515625e+003
 9.256423115730e-001  5.732353515625e+003
 9.201692938805e-001  5.384979980469e+003
 9.147067666054e-001  5.006885742188e+003
 9.092053174973e-001  4.598481445313e+003
 9.036467671394e-001  4.160142089844e+003
 8.981116414070e-001  3.702811523438e+003
 8.925483226776e-001  3.222160644531e+003
 8.869625329971e-001  2.723773925781e+003
 8.813351392746e-001  2.219392578125e+003
 8.757008314133e-001  1.721311401367e+003
 8.700780868530e-001  1.246832763672e+003
 8.644246459007e-001  8.039155273438e+002
 8.587127327919e-001  3.969819030762e+002
 8.530393838882e-001  4.215867614746e+001
 8.473547101021e-001 -2.651259765625e+002
 8.416519761086e-001 -5.241403808594e+002
 8.359267115593e-001 -7.359650878906e+002
 8.302195072174e-001 -8.961363525391e+002
 8.245130777359e-001 -1.002463745117e+003
 8.187552094460e-001 -1.051758056641e+003
 8.130328059196e-001 -1.043300292969e+003
 8.073047995567e-001 -9.786196289063e+002
 8.015700578690e-001 -8.605842285156e+002
 7.958375215530e-001 -6.943048706055e+002
 7.900771498680e-001 -4.814150390625e+002
 7.843292355537e-001 -2.316121520996e+002
 7.785646915436e-001  5.077896881104e+001
 7.728069424629e-001  3.634466857910e+002
 7.670560479164e-001  7.045787353516e+002
 7.612616419792e-001  1.078097412109e+003
 7.554695606232e-001  1.474510986328e+003
 7.496279478073e-001  1.894908935547e+003
 7.438325285912e-001  2.322556396484e+003
 7.379546165466e-001  2.760537597656e+003
 7.320701479912e-001  3.190938232422e+003
 7.261601686478e-001  3.607312255859e+003
 7.202301621437e-001  4.001536621094e+003
 7.142804265022e-001  4.364011718750e+003
 7.082998752594e-001  4.682433593750e+003
 7.022503018379e-001  4.944632324219e+003
 6.961709260941e-001  5.138095214844e+003
 6.900560259819e-001  5.253289550781e+003
 6.839053630829e-001  5.283250000000e+003
 6.776921749115e-001  5.223077148438e+003
 6.715019345284e-001  5.069908203125e+003
 6.652418971062e-001  4.831384765625e+003
 6.589092612267e-001  4.511357421875e+003
 6.525870561600e-001  4.122206054688e+003
 6.462682485580e-001  3.675395996094e+003
 6.398400664330e-001  3.175863525391e+003
 6.334326863289e-001  2.647604248047e+003
 6.269913315773e-001  2.107530029297e+003
 6.205660104752e-001  1.569777832031e+003
 6.140767335892e-001  1.047055175781e+003
 6.075727343559e-001  5.495045776367e+002
 6.010585427284e-001  9.023159790039e+001
 5.945774912834e-001 -3.247910156250e+002
 5.880180001259e-001 -6.977800903320e+002
 5.815188884735e-001 -1.019644531250e+003
 5.749408006668e-001 -1.299595703125e+003
 5.683942437172e-001 -1.542918457031e+003
 5.618615150452e-001 -1.758537353516e+003
 5.553102493286e-001 -1.956437133789e+003
 5.487211942673e-001 -2.140353759766e+003
 5.421555042267e-001 -2.314303222656e+003
 5.355717539787e-001 -2.480476806641e+003
 5.289809107780e-001 -2.638519775391e+003
 5.223870277405e-001 -2.784913574219e+003
 5.157720446587e-001 -2.917568115234e+003
 5.091775059700e-001 -3.034860351563e+003
 5.025876164436e-001 -3.138052246094e+003
 4.960018694401e-001 -3.224826416016e+003
 4.894091486931e-001 -3.290524414063e+003
 4.827800691128e-001 -3.327912353516e+003
 4.761659204960e-001 -3.327099121094e+003
 4.695385396481e-001 -3.281379394531e+003
 4.629557132721e-001 -3.183499755859e+003
 4.563209116459e-001 -3.024455810547e+003
 4.496968090534e-001 -2.801801025391e+003
 4.431043565273e-001 -2.513291503906e+003
 4.364831447601e-001 -2.161726806641e+003
 4.298791885376e-001 -1.763184936523e+003
 4.232704639435e-001 -1.324373291016e+003
 4.166583716869e-001 -8.646247558594e+002
 4.100041389465e-001 -4.037399291992e+002
 4.033933281898e-001  3.000610351563e+001
 3.967571854591e-001  4.241623535156e+002
 3.901404142380e-001  7.619885864258e+002
 3.834442198277e-001  1.033568237305e+003
 3.767774999142e-001  1.222041381836e+003
 3.700292408466e-001  1.329004638672e+003
 3.632209599018e-001  1.349043823242e+003
 3.563540875912e-001  1.280418945313e+003
 3.494034111500e-001  1.123760375977e+003
 3.422528803349e-001  8.785493164063e+002
 3.350260555744e-001  5.655604858398e+002
 3.276720046997e-001  2.028557434082e+002
 3.201916217804e-001 -1.904988098145e+002
 3.126479983330e-001 -5.968784179688e+002
 3.050953149796e-001 -1.003640991211e+003
 2.977372407913e-001 -1.392644653320e+003
 2.907148301601e-001 -1.758933105469e+003
 2.842318713665e-001 -2.090159423828e+003
 2.785148024559e-001 -2.376899414063e+003
 2.739048302174e-001 -2.605708496094e+003
 2.705113291740e-001 -2.771914550781e+003
 2.684137821198e-001 -2.874080322266e+003
 2.674660980701e-001 -2.920021972656e+003
 2.672814428806e-001 -2.928967529297e+003
endcurve
