Curveplot
LS-DYNA keyword deck by LS-PrePost
Abscissa
Ordinate
XY data
NBDLHeadxCoo-1 #pts=2000
* Minval=     3.8422401428e+01 at time=         0.0000000000
* Maxval=     2.3267001343e+02 at time=       141.5987854004
    0.0000000000e+00    3.8422401428e+01
    9.9515393376e-02    3.8422401428e+01
    1.9903078675e-01    3.8422401428e+01
    2.9854616523e-01    3.8422401428e+01
    3.9919695258e-01    3.8422401428e+01
    4.9998536706e-01    3.8422401428e+01
    5.9916532040e-01    3.8422401428e+01
    6.9868075848e-01    3.8422401428e+01
    7.9972714186e-01    3.8422401428e+01
    8.9924252033e-01    3.8422401428e+01
    9.9875795841e-01    3.8422401428e+01
    1.0998042822e+00    3.8422500610e+01
    1.1993197203e+00    3.8422500610e+01
    1.2988351583e+00    3.8422500610e+01
    1.3998814821e+00    3.8422500610e+01
    1.4993969202e+00    3.8422599792e+01
    1.5989123583e+00    3.8422599792e+01
    1.6999586821e+00    3.8422599792e+01
    1.7994741201e+00    3.8422698975e+01
    1.8989895582e+00    3.8422698975e+01
    1.9987715483e+00    3.8422798157e+01
    2.0997836590e+00    3.8422798157e+01
    2.1987915039e+00    3.8422798157e+01
    2.2992186546e+00    3.8422897339e+01
    2.3984160423e+00    3.8423000336e+01
    2.4986541271e+00    3.8423000336e+01
    2.5992875099e+00    3.8423099518e+01
    2.6992416382e+00    3.8423099518e+01
    2.7999699116e+00    3.8423202515e+01
    2.8991670609e+00    3.8423301697e+01
    2.9999897480e+00    3.8423400879e+01
    3.0990922451e+00    3.8423400879e+01
    3.1985731125e+00    3.8423500061e+01
    3.2984328270e+00    3.8423599243e+01
    3.3992559910e+00    3.8423698425e+01
    3.4990212917e+00    3.8423797607e+01
    3.5985026360e+00    3.8423900604e+01
    3.6992311478e+00    3.8423999786e+01
    3.7998652458e+00    3.8424098969e+01
    3.8988740444e+00    3.8424201965e+01
    3.9990353584e+00    3.8424301147e+01
    4.0985174179e+00    3.8424400330e+01
    4.1999258995e+00    3.8424499512e+01
    4.2999753952e+00    3.8424697876e+01
    4.3995518684e+00    3.8424797058e+01
    4.4986557961e+00    3.8424900055e+01
    4.5997633934e+00    3.8424999237e+01
    4.6992454529e+00    3.8425201416e+01
    4.7986330986e+00    3.8425300598e+01
    4.8989844322e+00    3.8425399780e+01
    4.9990515709e+00    3.8425598145e+01
    5.0992908478e+00    3.8425697327e+01
    5.1989626884e+00    3.8425899506e+01
    5.2987284660e+00    3.8426002502e+01
    5.3996472359e+00    3.8426200867e+01
    5.4989404678e+00    3.8426399231e+01
    5.5998592377e+00    3.8426498413e+01
    5.6996421814e+00    3.8426700592e+01
    5.7985396385e+00    3.8426898956e+01
    5.8993639946e+00    3.8427001953e+01
    5.9997148514e+00    3.8427200317e+01
    6.0993862152e+00    3.8427398682e+01
    6.1994366646e+00    3.8427597046e+01
    6.2985405922e+00    3.8427799225e+01
    6.3990807533e+00    3.8428001404e+01
    6.4991307259e+00    3.8428199768e+01
    6.5986304283e+00    3.8428398132e+01
    6.6988697052e+00    3.8428600311e+01
    6.7985410690e+00    3.8428802490e+01
    6.8990817070e+00    3.8429000854e+01
    6.9992432594e+00    3.8429199219e+01
    7.0990095139e+00    3.8429500580e+01
    7.1990590096e+00    3.8429698944e+01
    7.2999773026e+00    3.8429901123e+01
    7.3987021446e+00    3.8430198669e+01
    7.4998097420e+00    3.8430397034e+01
    7.5993862152e+00    3.8430599213e+01
    7.6986780167e+00    3.8430900574e+01
    7.7997856140e+00    3.8431098938e+01
    7.8989834785e+00    3.8431400299e+01
    7.9985599518e+00    3.8431602478e+01
    8.0992889404e+00    3.8431900024e+01
    8.1986761093e+00    3.8432197571e+01
    8.2988376617e+00    3.8432399750e+01
    8.3997554779e+00    3.8432701111e+01
    8.4995212555e+00    3.8432998657e+01
    8.5999670029e+00    3.8433300018e+01
    8.6998271942e+00    3.8433601379e+01
    8.7996873856e+00    3.8433898926e+01
    8.8994703293e+00    3.8434200287e+01
    8.9987630844e+00    3.8434501648e+01
    9.0990009308e+00    3.8434799194e+01
    9.1986722946e+00    3.8435100555e+01
    9.2994966507e+00    3.8435401917e+01
    9.3985052109e+00    3.8435699463e+01
    9.4999904633e+00    3.8436000824e+01
    9.5994729996e+00    3.8436401367e+01
    9.6989545822e+00    3.8436698914e+01
    9.7997779846e+00    3.8437000275e+01
    9.8986930847e+00    3.8437400818e+01
    9.9994220734e+00    3.8437698364e+01
    1.0099582672e+01    3.8437999725e+01
    1.0198969841e+01    3.8438400269e+01
    1.0299414635e+01    3.8438800812e+01
    1.0398991585e+01    3.8439102173e+01
    1.0499041557e+01    3.8439399719e+01
    1.0599014282e+01    3.8439701080e+01
    1.0698495865e+01    3.8440101624e+01
    1.0799792290e+01    3.8440498352e+01
    1.0899180412e+01    3.8440898895e+01
    1.0999530792e+01    3.8441299438e+01
    1.1099390984e+01    3.8441699982e+01
    1.1199252129e+01    3.8442100525e+01
    1.1298733711e+01    3.8442501068e+01
    1.1399935722e+01    3.8442901611e+01
    1.1498945236e+01    3.8443298340e+01
    1.1598805428e+01    3.8443698883e+01
    1.1698571205e+01    3.8444099426e+01
    1.1799016953e+01    3.8444499969e+01
    1.1898688316e+01    3.8444900513e+01
    1.1998643875e+01    3.8445297241e+01
    1.2098995209e+01    3.8445701599e+01
    1.2199251175e+01    3.8446197510e+01
    1.2299867630e+01    3.8446601868e+01
    1.2399635315e+01    3.8447097778e+01
    1.2498832703e+01    3.8447502136e+01
    1.2599088669e+01    3.8447998047e+01
    1.2699611664e+01    3.8448501587e+01
    1.2798906326e+01    3.8448799133e+01
    1.2899145126e+01    3.8449302673e+01
    1.2998533249e+01    3.8449798584e+01
    1.3099167824e+01    3.8450302124e+01
    1.3198857307e+01    3.8450798035e+01
    1.3299491882e+01    3.8451301575e+01
    1.3398673058e+01    3.8451801300e+01
    1.3499291420e+01    3.8452201843e+01
    1.3598773003e+01    3.8452701569e+01
    1.3698634148e+01    3.8453201294e+01
    1.3799268723e+01    3.8453701019e+01
    1.3899998665e+01    3.8454200745e+01
    1.3999101639e+01    3.8454799652e+01
    1.4099246979e+01    3.8455200195e+01
    1.4199881554e+01    3.8455802917e+01
    1.4298986435e+01    3.8456298828e+01
    1.4399998665e+01    3.8456802368e+01
    1.4499386787e+01    3.8457397461e+01
    1.4599926949e+01    3.8458000183e+01
    1.4698746681e+01    3.8458400726e+01
    1.4798418999e+01    3.8458999634e+01
    1.4899717331e+01    3.8459598541e+01
    1.4999690056e+01    3.8460201263e+01
    1.5098698616e+01    3.8460601807e+01
    1.5199808121e+01    3.8461200714e+01
    1.5298722267e+01    3.8461799622e+01
    1.5399736404e+01    3.8462402344e+01
    1.5499786377e+01    3.8462997437e+01
    1.5598494530e+01    3.8463500977e+01
    1.5699130058e+01    3.8464199066e+01
    1.5799481392e+01    3.8464797974e+01
    1.5899341583e+01    3.8465400696e+01
    1.5999202728e+01    3.8465999603e+01
    1.6098873138e+01    3.8466598511e+01
    1.6199869156e+01    3.8467201233e+01
    1.6298784256e+01    3.8467800140e+01
    1.6399703979e+01    3.8468399048e+01
    1.6498901367e+01    3.8469100952e+01
    1.6599630356e+01    3.8469802856e+01
    1.6699113846e+01    3.8470298767e+01
    1.6798973083e+01    3.8471000671e+01
    1.6898473740e+01    3.8471698761e+01
    1.6999675751e+01    3.8472297668e+01
    1.7099836349e+01    3.8472999573e+01
    1.7199035645e+01    3.8473701477e+01
    1.7298894882e+01    3.8474300385e+01
    1.7399719238e+01    3.8474998474e+01
    1.7498538971e+01    3.8475700378e+01
    1.7599552155e+01    3.8476299286e+01
    1.7698938370e+01    3.8476997375e+01
    1.7799478531e+01    3.8477699280e+01
    1.7898771286e+01    3.8478401184e+01
    1.7998743057e+01    3.8479198456e+01
    1.8098791122e+01    3.8479797363e+01
    1.8199710846e+01    3.8480598450e+01
    1.8299190521e+01    3.8481201172e+01
    1.8399919510e+01    3.8482002258e+01
    1.8499591827e+01    3.8482700348e+01
    1.8599260330e+01    3.8483398438e+01
    1.8698553085e+01    3.8484199524e+01
    1.8799566269e+01    3.8484901428e+01
    1.8898859024e+01    3.8485702515e+01
    1.8999588013e+01    3.8486400604e+01
    1.9099353790e+01    3.8487201691e+01
    1.9199970245e+01    3.8487899780e+01
    1.9299640656e+01    3.8488700867e+01
    1.9399122238e+01    3.8489498138e+01
    1.9498510361e+01    3.8490299225e+01
    1.9598955154e+01    3.8490997314e+01
    1.9698722839e+01    3.8491798401e+01
    1.9798582077e+01    3.8492599487e+01
    1.9899501801e+01    3.8493400574e+01
    1.9999662399e+01    3.8494201660e+01
    2.0099050522e+01    3.8495002747e+01
    2.0199874878e+01    3.8495800018e+01
    2.0299072266e+01    3.8496601105e+01
    2.0398460388e+01    3.8497398376e+01
    2.0499473572e+01    3.8498298645e+01
    2.0599523544e+01    3.8499099731e+01
    2.0698909760e+01    3.8499900818e+01
    2.0799734116e+01    3.8500801086e+01
    2.0898649216e+01    3.8501602173e+01
    2.0999851227e+01    3.8502498627e+01
    2.1099428177e+01    3.8503398895e+01
    2.1199968338e+01    3.8504199982e+01
    2.1299072266e+01    3.8505001068e+01
    2.1399801254e+01    3.8505897522e+01
    2.1498809814e+01    3.8506797791e+01
    2.1599916458e+01    3.8507698059e+01
    2.1699588776e+01    3.8508598328e+01
    2.1798879623e+01    3.8509399414e+01
    2.1898551941e+01    3.8510398865e+01
    2.1998712540e+01    3.8511299133e+01
    2.2099534988e+01    3.8512199402e+01
    2.2199394226e+01    3.8513099670e+01
    2.2298591614e+01    3.8513999939e+01
    2.2399604797e+01    3.8514900208e+01
    2.2499671936e+01    3.8515899658e+01
    2.2598567963e+01    3.8516799927e+01
    2.2698917389e+01    3.8517700195e+01
    2.2799835205e+01    3.8518699646e+01
    2.2898939133e+01    3.8519599915e+01
    2.2999288559e+01    3.8520500183e+01
    2.3098676682e+01    3.8521499634e+01
    2.3199403763e+01    3.8522399902e+01
    2.3298980713e+01    3.8523399353e+01
    2.3399803162e+01    3.8524398804e+01
    2.3498905182e+01    3.8525402069e+01
    2.3599067688e+01    3.8526298523e+01
    2.3698453903e+01    3.8527301788e+01
    2.3799560547e+01    3.8528297424e+01
    2.3899797440e+01    3.8529300690e+01
    2.3998994827e+01    3.8530300140e+01
    2.4099439621e+01    3.8531402588e+01
    2.4198825836e+01    3.8532402039e+01
    2.4299837112e+01    3.8533401489e+01
    2.4399713516e+01    3.8534400940e+01
    2.4499780655e+01    3.8535499573e+01
    2.4599828720e+01    3.8536399841e+01
    2.4699403763e+01    3.8537498474e+01
    2.4799470901e+01    3.8538600922e+01
    2.4899913788e+01    3.8539600372e+01
    2.4998714447e+01    3.8540699005e+01
    2.5099727631e+01    3.8541698456e+01
    2.5199869156e+01    3.8542800903e+01
    2.5298593521e+01    3.8543899536e+01
    2.5398847580e+01    3.8545001984e+01
    2.5499101639e+01    3.8546001434e+01
    2.5598770142e+01    3.8547100067e+01
    2.5699592590e+01    3.8548198700e+01
    2.5799072266e+01    3.8549201965e+01
    2.5899423599e+01    3.8550399780e+01
    2.5999961853e+01    3.8551498413e+01
    2.6099536896e+01    3.8552600861e+01
    2.6199489594e+01    3.8553699493e+01
    2.6298969269e+01    3.8554901123e+01
    2.6398544312e+01    3.8555999756e+01
    2.6499082565e+01    3.8557197571e+01
    2.6598941803e+01    3.8558200836e+01
    2.6699100494e+01    3.8559398651e+01
    2.6799337387e+01    3.8560501099e+01
    2.6898817062e+01    3.8561698914e+01
    2.6999450684e+01    3.8562900543e+01
    2.7098741531e+01    3.8564102173e+01
    2.7199373245e+01    3.8565200806e+01
    2.7298759460e+01    3.8566299438e+01
    2.7399581909e+01    3.8567600250e+01
    2.7499628067e+01    3.8568702698e+01
    2.7598823547e+01    3.8569900513e+01
    2.7698587418e+01    3.8571098328e+01
    2.7799692154e+01    3.8572299957e+01
    2.7899946213e+01    3.8573501587e+01
    2.7999805450e+01    3.8574798584e+01
    2.8099189758e+01    3.8576000214e+01
    2.8198669434e+01    3.8577201843e+01
    2.8298830032e+01    3.8578399658e+01
    2.8398799896e+01    3.8579700470e+01
    2.8499620438e+01    3.8580898285e+01
    2.8599384308e+01    3.8582099915e+01
    2.8699241638e+01    3.8583400726e+01
    2.8800064087e+01    3.8584602356e+01
    2.8898485184e+01    3.8585899353e+01
    2.8999307632e+01    3.8587100983e+01
    2.9099559784e+01    3.8588397980e+01
    2.9198755264e+01    3.8589698792e+01
    2.9298612595e+01    3.8590900421e+01
    2.9399623871e+01    3.8592201233e+01
    2.9498723984e+01    3.8593498230e+01
    2.9599639893e+01    3.8594799042e+01
    2.9698928833e+01    3.8596199036e+01
    2.9799938202e+01    3.8597499847e+01
    2.9898851395e+01    3.8598800659e+01
    2.9999860764e+01    3.8600097656e+01
    3.0099245071e+01    3.8601398468e+01
    3.0198818207e+01    3.8602699280e+01
    3.0299165726e+01    3.8604099274e+01
    3.0399419785e+01    3.8605499268e+01
    3.0498897552e+01    3.8606800079e+01
    3.0599813461e+01    3.8608100891e+01
    3.0699970245e+01    3.8609500885e+01
    3.0799070358e+01    3.8610900879e+01
    3.0899986267e+01    3.8612300873e+01
    3.0999954224e+01    3.8613700867e+01
    3.1098566055e+01    3.8614997864e+01
    3.1199972153e+01    3.8616500854e+01
    3.1300018311e+01    3.8617900848e+01
    3.1398740768e+01    3.8619300842e+01
    3.1499656677e+01    3.8620800018e+01
    3.1598850250e+01    3.8622100830e+01
    3.1699180603e+01    3.8623500824e+01
    3.1798566818e+01    3.8625000000e+01
    3.1899387360e+01    3.8626499176e+01
    3.1999338150e+01    3.8628002167e+01
    3.2099006653e+01    3.8629501343e+01
    3.2198581696e+01    3.8630901337e+01
    3.2299400330e+01    3.8632499695e+01
    3.2399749756e+01    3.8633998871e+01
    3.2498928070e+01    3.8635501862e+01
    3.2599273682e+01    3.8637001038e+01
    3.2698657990e+01    3.8638599396e+01
    3.2799385071e+01    3.8640098572e+01
    3.2900016785e+01    3.8641700745e+01
    3.2998546600e+01    3.8643199921e+01
    3.3099838257e+01    3.8644798279e+01
    3.3198562622e+01    3.8646400452e+01
    3.3299758911e+01    3.8647998810e+01
    3.3398670197e+01    3.8649597168e+01
    3.3498638153e+01    3.8651199341e+01
    3.3599079132e+01    3.8652900696e+01
    3.3698951721e+01    3.8654499054e+01
    3.3798431396e+01    3.8656200409e+01
    3.3899627686e+01    3.8657897949e+01
    3.3998821259e+01    3.8659599304e+01
    3.4099548340e+01    3.8661201477e+01
    3.4198932648e+01    3.8662899017e+01
    3.4299560547e+01    3.8664699554e+01
    3.4398563385e+01    3.8666400909e+01
    3.4499668121e+01    3.8668098450e+01
    3.4599334717e+01    3.8669898987e+01
    3.4699398041e+01    3.8671699524e+01
    3.4798496246e+01    3.8673500061e+01
    3.4898841858e+01    3.8675300598e+01
    3.4999565125e+01    3.8677200317e+01
    3.5099231720e+01    3.8679000854e+01
    3.5198425293e+01    3.8680801392e+01
    3.5299053192e+01    3.8682701111e+01
    3.5398719788e+01    3.8684600830e+01
    3.5499538422e+01    3.8686500549e+01
    3.5599014282e+01    3.8688301086e+01
    3.5699077606e+01    3.8690299988e+01
    3.5799800873e+01    3.8692199707e+01
    3.5898616791e+01    3.8694099426e+01
    3.5999435425e+01    3.8696098328e+01
    3.6099006653e+01    3.8698200226e+01
    3.6199161530e+01    3.8700099945e+01
    3.6299301147e+01    3.8702098846e+01
    3.6399154663e+01    3.8704200745e+01
    3.6499691010e+01    3.8706199646e+01
    3.6599826813e+01    3.8708301544e+01
    3.6698833466e+01    3.8710300446e+01
    3.6799461365e+01    3.8712501526e+01
    3.6899993896e+01    3.8714599609e+01
    3.6999942780e+01    3.8716701508e+01
    3.7099327087e+01    3.8718902588e+01
    3.7199275970e+01    3.8721099854e+01
    3.7298751831e+01    3.8723300934e+01
    3.7399192810e+01    3.8725502014e+01
    3.7499252319e+01    3.8727798462e+01
    3.7599407196e+01    3.8729999542e+01
    3.7699451447e+01    3.8732299805e+01
    3.7799777985e+01    3.8734600067e+01
    3.7898876190e+01    3.8736801147e+01
    3.7999885559e+01    3.8739200592e+01
    3.8099170685e+01    3.8741500854e+01
    3.8199310303e+01    3.8743900299e+01
    3.8299068451e+01    3.8746299744e+01
    3.8399036407e+01    3.8748802185e+01
    3.8499191284e+01    3.8751197815e+01
    3.8598476410e+01    3.8753700256e+01
    3.8699672699e+01    3.8756099701e+01
    3.8798580170e+01    3.8758598328e+01
    3.8898906708e+01    3.8761199951e+01
    3.8999046326e+01    3.8763702393e+01
    3.9098823547e+01    3.8766300201e+01
    3.9199245453e+01    3.8768898010e+01
    3.9299682617e+01    3.8771499634e+01
    3.9398479462e+01    3.8774101257e+01
    3.9499393463e+01    3.8776802063e+01
    3.9599830627e+01    3.8779499054e+01
    3.9699115753e+01    3.8782199860e+01
    3.9799934387e+01    3.8784900665e+01
    3.9898559570e+01    3.8787700653e+01
    3.9999374390e+01    3.8790500641e+01
    4.0098472595e+01    3.8793300629e+01
    4.0198894501e+01    3.8796100616e+01
    4.0299522400e+01    3.8798999786e+01
    4.0399772644e+01    3.8801898956e+01
    4.0498867035e+01    3.8804801941e+01
    4.0599777222e+01    3.8807800293e+01
    4.0698593140e+01    3.8810699463e+01
    4.0799407959e+01    3.8813697815e+01
    4.0899356842e+01    3.8816699982e+01
    4.0998737335e+01    3.8819801331e+01
    4.1099365234e+01    3.8822799683e+01
    4.1198650360e+01    3.8826000214e+01
    4.1299182892e+01    3.8829101562e+01
    4.1399623871e+01    3.8832298279e+01
    4.1498718262e+01    3.8835399628e+01
    4.1599914551e+01    3.8838600159e+01
    4.1699768066e+01    3.8841999054e+01
    4.1799335480e+01    3.8845199585e+01
    4.1898998260e+01    3.8848499298e+01
    4.1999061584e+01    3.8851799011e+01
    4.2098346710e+01    3.8855201721e+01
    4.2198879242e+01    3.8858497620e+01
    4.2299804688e+01    3.8861999512e+01
    4.2398601532e+01    3.8865402222e+01
    4.2499416351e+01    3.8868900299e+01
    4.2599082947e+01    3.8872398376e+01
    4.2698951721e+01    3.8875900269e+01
    4.2799392700e+01    3.8879501343e+01
    4.2898960114e+01    3.8883102417e+01
    4.2999210358e+01    3.8886798859e+01
    4.3098777771e+01    3.8890399933e+01
    4.3199687958e+01    3.8894199371e+01
    4.3298877716e+01    3.8897800446e+01
    4.3399696350e+01    3.8901599884e+01
    4.3499641418e+01    3.8905399323e+01
    4.3599212646e+01    3.8909198761e+01
    4.3699554443e+01    3.8913101196e+01
    4.3798934937e+01    3.8916900635e+01
    4.3899654388e+01    3.8920898438e+01
    4.3999221802e+01    3.8924800873e+01
    4.4098506927e+01    3.8928798676e+01
    4.4199607849e+01    3.8932800293e+01
    4.4298606873e+01    3.8936901093e+01
    4.4398460388e+01    3.8941001892e+01
    4.4499748230e+01    3.8945098877e+01
    4.4599220276e+01    3.8949302673e+01
    4.4699848175e+01    3.8953399658e+01
    4.4799129486e+01    3.8957698822e+01
    4.4898319244e+01    3.8961898804e+01
    4.4999607086e+01    3.8966300964e+01
    4.5098796844e+01    3.8970500946e+01
    4.5199234009e+01    3.8974998474e+01
    4.5298706055e+01    3.8979400635e+01
    4.5399803162e+01    3.8983898163e+01
    4.5498710632e+01    3.8988300323e+01
    4.5599807739e+01    3.8992900848e+01
    4.5699848175e+01    3.8997501373e+01
    4.5799320221e+01    3.9002098083e+01
    4.5899379730e+01    3.9006698608e+01
    4.5999511719e+01    3.9011497498e+01
    4.6099174500e+01    3.9016201019e+01
    4.6199310303e+01    3.9021099091e+01
    4.6298686981e+01    3.9025798798e+01
    4.6399215698e+01    3.9030799866e+01
    4.6498405457e+01    3.9035598755e+01
    4.6598541260e+01    3.9040699005e+01
    4.6699733734e+01    3.9045700073e+01
    4.6798824310e+01    3.9050697327e+01
    4.6899829865e+01    3.9055999756e+01
    4.6998733521e+01    3.9061100006e+01
    4.7098583221e+01    3.9066299438e+01
    4.7199489594e+01    3.9071701050e+01
    4.7298679352e+01    3.9076900482e+01
    4.7399112701e+01    3.9082401276e+01
    4.7498397827e+01    3.9087799072e+01
    4.7599681854e+01    3.9093399048e+01
    4.7699344635e+01    3.9098899841e+01
    4.7799003601e+01    3.9104499817e+01
    4.7899059296e+01    3.9110198975e+01
    4.7998832703e+01    3.9115898132e+01
    4.8098682404e+01    3.9121597290e+01
    4.8198436737e+01    3.9127502441e+01
    4.8298870087e+01    3.9133399963e+01
    4.8399776459e+01    3.9139400482e+01
    4.8499343872e+01    3.9145401001e+01
    4.8598529816e+01    3.9151397705e+01
    4.8699340820e+01    3.9157600403e+01
    4.8799381256e+01    3.9163799286e+01
    4.8899814606e+01    3.9170200348e+01
    4.8999095917e+01    3.9176498413e+01
    4.9099243164e+01    3.9182899475e+01
    4.9198432922e+01    3.9189300537e+01
    4.9299133301e+01    3.9195999146e+01
    4.9399658203e+01    3.9202697754e+01
    4.9499221802e+01    3.9209297180e+01
    4.9598976135e+01    3.9216201782e+01
    4.9699218750e+01    3.9222999573e+01
    4.9798217773e+01    3.9229900360e+01
    4.9899501801e+01    3.9236999512e+01
    4.9998592377e+01    3.9244102478e+01
    5.0099121094e+01    3.9251296997e+01
    5.0199550629e+01    3.9258598328e+01
    5.0299209595e+01    3.9265899658e+01
    5.0399738312e+01    3.9273498535e+01
    5.0499015808e+01    3.9280899048e+01
    5.0598392487e+01    3.9288600922e+01
    5.0699485779e+01    3.9296398163e+01
    5.0798198700e+01    3.9304000854e+01
    5.0899196625e+01    3.9312000275e+01
    5.0998287201e+01    3.9319999695e+01
    5.1099380493e+01    3.9328201294e+01
    5.1198562622e+01    3.9336402893e+01
    5.1299263000e+01    3.9344799042e+01
    5.1398841858e+01    3.9353199005e+01
    5.1498310089e+01    3.9361602783e+01
    5.1598628998e+01    3.9370399475e+01
    5.1698474884e+01    3.9379100800e+01
    5.1798999786e+01    3.9387901306e+01
    5.1898277283e+01    3.9396900177e+01
    5.1999561310e+01    3.9406101227e+01
    5.2098461151e+01    3.9415298462e+01
    5.2199459076e+01    3.9424598694e+01
    5.2299320221e+01    3.9434101105e+01
    5.2398788452e+01    3.9443698883e+01
    5.2499217987e+01    3.9453399658e+01
    5.2598590851e+01    3.9463199615e+01
    5.2699115753e+01    3.9473197937e+01
    5.2799732208e+01    3.9483398438e+01
    5.2899295807e+01    3.9493598938e+01
    5.2998855591e+01    3.9503898621e+01
    5.3098716736e+01    3.9514400482e+01
    5.3199050903e+01    3.9525100708e+01
    5.3298706055e+01    3.9535800934e+01
    5.3399307251e+01    3.9546798706e+01
    5.3499450684e+01    3.9557800293e+01
    5.3599216461e+01    3.9569099426e+01
    5.3699153900e+01    3.9580497742e+01
    5.3798336029e+01    3.9591899872e+01
    5.3899143219e+01    3.9603698730e+01
    5.3998813629e+01    3.9615501404e+01
    5.4098182678e+01    3.9627399445e+01
    5.4199180603e+01    3.9639801025e+01
    5.4299037933e+01    3.9652000427e+01
    5.4399276733e+01    3.9664600372e+01
    5.4498458862e+01    3.9677200317e+01
    5.4599452972e+01    3.9690200806e+01
    5.4699501038e+01    3.9703300476e+01
    5.4799358368e+01    3.9716499329e+01
    5.4898635864e+01    3.9729797363e+01
    5.4999721527e+01    3.9743499756e+01
    5.5098430634e+01    3.9757202148e+01
    5.5198947906e+01    3.9771198273e+01
    5.5298599243e+01    3.9785301208e+01
    5.5399593353e+01    3.9799800873e+01
    5.5499153137e+01    3.9814399719e+01
    5.5599292755e+01    3.9829200745e+01
    5.5699054718e+01    3.9844200134e+01
    5.5799385071e+01    3.9859401703e+01
    5.5899620056e+01    3.9874797821e+01
    5.5999271393e+01    3.9890399933e+01
    5.6098258972e+01    3.9906101227e+01
    5.6199535370e+01    3.9922401428e+01
    5.6298995972e+01    3.9938499451e+01
    5.6399326324e+01    3.9955101013e+01
    5.6498691559e+01    3.9971698761e+01
    5.6598247528e+01    3.9988498688e+01
    5.6698856354e+01    4.0005798340e+01
    5.6798789978e+01    4.0023200989e+01
    5.6898628235e+01    4.0040802002e+01
    5.6998863220e+01    4.0058700562e+01
    5.7098621368e+01    4.0076797485e+01
    5.7199138641e+01    4.0095199585e+01
    5.7299072266e+01    4.0113800049e+01
    5.7398738861e+01    4.0132598877e+01
    5.7499347687e+01    4.0151802063e+01
    5.7598522186e+01    4.0170898438e+01
    5.7698379517e+01    4.0190597534e+01
    5.7798229218e+01    4.0210399628e+01
    5.7899520874e+01    4.0230796814e+01
    5.7999263763e+01    4.0251098633e+01
    5.8098831177e+01    4.0271598816e+01
    5.8199062347e+01    4.0292701721e+01
    5.8298709869e+01    4.0313800812e+01
    5.8398559570e+01    4.0335197449e+01
    5.8498222351e+01    4.0356899261e+01
    5.8598056793e+01    4.0378898621e+01
    5.8698856354e+01    4.0401397705e+01
    5.8798988342e+01    4.0423999786e+01
    5.8899501801e+01    4.0446998596e+01
    5.8999050140e+01    4.0470100403e+01
    5.9098602295e+01    4.0493499756e+01
    5.9198642731e+01    4.0517200470e+01
    5.9298397064e+01    4.0541099548e+01
    5.9399475098e+01    4.0565700531e+01
    5.9498359680e+01    4.0590099335e+01
    5.9599155426e+01    4.0615100861e+01
    5.9698909760e+01    4.0640197754e+01
    5.9798171997e+01    4.0665599823e+01
    5.9898681641e+01    4.0691497803e+01
    5.9999000549e+01    4.0717700958e+01
    6.0098262787e+01    4.0743801117e+01
    6.0198204041e+01    4.0770500183e+01
    6.0298240662e+01    4.0797500610e+01
    6.0398937225e+01    4.0825000763e+01
    6.0498577118e+01    4.0852401733e+01
    6.0599178314e+01    4.0880500793e+01
    6.0699592590e+01    4.0908798218e+01
    6.0798377991e+01    4.0937000275e+01
    6.0899074554e+01    4.0965999603e+01
    6.0998443604e+01    4.0994899750e+01
    6.1098476410e+01    4.1024299622e+01
    6.1198600769e+01    4.1054100037e+01
    6.1299106598e+01    4.1084300995e+01
    6.1399612427e+01    4.1114799500e+01
    6.1498882294e+01    4.1145301819e+01
    6.1598140717e+01    4.1175998688e+01
    6.1698738098e+01    4.1207500458e+01
    6.1798957825e+01    4.1239101410e+01
    6.1899269104e+01    4.1271099091e+01
    6.1998050690e+01    4.1303001404e+01
    6.2099304199e+01    4.1335998535e+01
    6.2199333191e+01    4.1368900299e+01
    6.2298397064e+01    4.1401901245e+01
    6.2398803711e+01    4.1435501099e+01
    6.2498924255e+01    4.1469299316e+01
    6.2598663330e+01    4.1503402710e+01
    6.2698974609e+01    4.1538101196e+01
    6.2798431396e+01    4.1572700500e+01
    6.2899211884e+01    4.1608200073e+01
    6.2999137878e+01    4.1643600464e+01
    6.3098785400e+01    4.1679397583e+01
    6.3198616028e+01    4.1715499878e+01
    6.3298828125e+01    4.1751998901e+01
    6.3398468018e+01    4.1788700104e+01
    6.3498867035e+01    4.1826000214e+01
    6.3598884583e+01    4.1863502502e+01
    6.3698619843e+01    4.1901298523e+01
    6.3798069000e+01    4.1939300537e+01
    6.3899238586e+01    4.1978199005e+01
    6.3999160767e+01    4.2016998291e+01
    6.4098510742e+01    4.2055999756e+01
    6.4198432922e+01    4.2095497131e+01
    6.4299110413e+01    4.2135700226e+01
    6.4398269653e+01    4.2175598145e+01
    6.4498748779e+01    4.2216400146e+01
    6.4599136353e+01    4.2257598877e+01
    6.4699546814e+01    4.2298999786e+01
    6.4798210144e+01    4.2340198517e+01
    6.4899467468e+01    4.2382698059e+01
    6.4998886108e+01    4.2424999237e+01
    6.5099365234e+01    4.2468002319e+01
    6.5199180603e+01    4.2511100769e+01
    6.5298225403e+01    4.2554199219e+01
    6.5397949219e+01    4.2597999573e+01
    6.5498893738e+01    4.2642799377e+01
    6.5599288940e+01    4.2687698364e+01
    6.5699012756e+01    4.2732700348e+01
    6.5798347473e+01    4.2777900696e+01
    6.5898254395e+01    4.2823799133e+01
    6.5998626709e+01    4.2870300293e+01
    6.6099098206e+01    4.2917201996e+01
    6.6198532104e+01    4.2964099884e+01
    6.6298622131e+01    4.3011699677e+01
    6.6398422241e+01    4.3059600830e+01
    6.6498611450e+01    4.3108100891e+01
    6.6598983765e+01    4.3157203674e+01
    6.6698402405e+01    4.3206199646e+01
    6.6798774719e+01    4.3256103516e+01
    6.6898391724e+01    4.3306098938e+01
    6.6998947144e+01    4.3356903076e+01
    6.7099044800e+01    4.3408100128e+01
    6.7198448181e+01    4.3459300995e+01
    6.7298629761e+01    4.3511398315e+01
    6.7399482727e+01    4.3564300537e+01
    6.7498519897e+01    4.3616798401e+01
    6.7598220825e+01    4.3670101166e+01
    6.7698791504e+01    4.3724300385e+01
    6.7798965454e+01    4.3778900146e+01
    6.7899322510e+01    4.3834098816e+01
    6.7998245239e+01    4.3888900757e+01
    6.8098983765e+01    4.3945297241e+01
    6.8199340820e+01    4.4001998901e+01
    6.8299316406e+01    4.4058998108e+01
    6.8398803711e+01    4.4116298676e+01
    6.8498023987e+01    4.4173900604e+01
    6.8598091125e+01    4.4232608795e+01
    6.8698745728e+01    4.4292213440e+01
    6.8799285889e+01    4.4352348328e+01
    6.8898880005e+01    4.4412380219e+01
    6.8998565674e+01    4.4473129272e+01
    6.9099403381e+01    4.4535140991e+01
    6.9199188232e+01    4.4597148895e+01
    6.9298301697e+01    4.4659229279e+01
    6.9398834229e+01    4.4722850800e+01
    6.9498519897e+01    4.4786651611e+01
    6.9597900391e+01    4.4850700378e+01
    6.9698051453e+01    4.4916011810e+01
    6.9799354553e+01    4.4982669830e+01
    6.9897895813e+01    4.5048160553e+01
    6.9998916626e+01    4.5115982056e+01
    7.0098304749e+01    4.5183349609e+01
    7.0199317932e+01    4.5252521515e+01
    7.0298896790e+01    4.5321319580e+01
    7.0398094177e+01    4.5390670776e+01
    7.0498420715e+01    4.5461448669e+01
    7.0598747253e+01    4.5532848358e+01
    7.0698135376e+01    4.5604427338e+01
    7.0799133301e+01    4.5677810669e+01
    7.0898124695e+01    4.5750572205e+01
    7.0998649597e+01    4.5825119019e+01
    7.1099174500e+01    4.5900478363e+01
    7.1199302673e+01    4.5976280212e+01
    7.1298866272e+01    4.6052452087e+01
    7.1399085999e+01    4.6129867554e+01
    7.1498741150e+01    4.6207748413e+01
    7.1598373413e+01    4.6286350250e+01
    7.1698402405e+01    4.6366119385e+01
    7.1798042297e+01    4.6446430206e+01
    7.1899314880e+01    4.6528800964e+01
    7.1998390198e+01    4.6610370636e+01
    7.2098220825e+01    4.6693389893e+01
    7.2199195862e+01    4.6778297424e+01
    7.2298835754e+01    4.6862941742e+01
    7.2398849487e+01    4.6948738098e+01
    7.2498008728e+01    4.7034832001e+01
    7.2598205566e+01    4.7122718811e+01
    7.2698883057e+01    4.7212059021e+01
    7.2798225403e+01    4.7301132202e+01
    7.2898323059e+01    4.7391921997e+01
    7.2999092102e+01    4.7484237671e+01
    7.3098236084e+01    4.7576118469e+01
    7.3197952271e+01    4.7669628143e+01
    7.3298034668e+01    4.7764400482e+01
    7.3398414612e+01    4.7860626221e+01
    7.3499084473e+01    4.7958118439e+01
    7.3597930908e+01    4.8054988861e+01
    7.3699340820e+01    4.8155368805e+01
    7.3798187256e+01    4.8254417419e+01
    7.3899215698e+01    4.8356719971e+01
    7.3997962952e+01    4.8457851410e+01
    7.4099273682e+01    4.8562778473e+01
    7.4198669434e+01    4.8666900635e+01
    7.4298820496e+01    4.8772922516e+01
    7.4398117065e+01    4.8879219055e+01
    7.4498947144e+01    4.8988422394e+01
    7.4598617554e+01    4.9097431183e+01
    7.4699150085e+01    4.9208709717e+01
    7.4798454285e+01    4.9319820404e+01
    7.4898696899e+01    4.9433280945e+01
    7.4998359680e+01    4.9547191620e+01
    7.5098503113e+01    4.9663009644e+01
    7.5198341370e+01    4.9779727936e+01
    7.5298477173e+01    4.9898086548e+01
    7.5398048401e+01    5.0016983032e+01
    7.5498085022e+01    5.0137783051e+01
    7.5598007202e+01    5.0259857178e+01
    7.5698600769e+01    5.0384010315e+01
    7.5799194336e+01    5.0509510040e+01
    7.5899215698e+01    5.0635662079e+01
    7.5998077393e+01    5.0761817932e+01
    7.6097808838e+01    5.0890308380e+01
    7.6198104858e+01    5.1020992279e+01
    7.6298866272e+01    5.1153751373e+01
    7.6398773193e+01    5.1286781311e+01
    7.6497901917e+01    5.1420169830e+01
    7.6599029541e+01    5.1557720184e+01
    7.6698921204e+01    5.1694999695e+01
    7.6798233032e+01    5.1833007812e+01
    7.6898208618e+01    5.1973369598e+01
    7.6998657227e+01    5.2115890503e+01
    7.7098327637e+01    5.2258869171e+01
    7.7198387146e+01    5.2403827667e+01
    7.7297950745e+01    5.2549701691e+01
    7.7398284912e+01    5.2698089600e+01
    7.7498893738e+01    5.2848560333e+01
    7.7598258972e+01    5.2998668671e+01
    7.7697799683e+01    5.3150669098e+01
    7.7798881531e+01    5.3306549072e+01
    7.7898223877e+01    5.3461341858e+01
    7.7998237610e+01    5.3618736267e+01
    7.8098999023e+01    5.3779041290e+01
    7.8198234558e+01    5.3938407898e+01
    7.8298980713e+01    5.4101940155e+01
    7.8398391724e+01    5.4264816284e+01
    7.8499046326e+01    5.4431488037e+01
    7.8599212646e+01    5.4598960876e+01
    7.8699272156e+01    5.4767948151e+01
    7.8798950195e+01    5.4938018799e+01
    7.8899093628e+01    5.5110412598e+01
    7.8999038696e+01    5.5284233093e+01
    7.9098014832e+01    5.5458042145e+01
    7.9197944641e+01    5.5635269165e+01
    7.9297866821e+01    5.5814090729e+01
    7.9398246765e+01    5.5995620728e+01
    7.9499000549e+01    5.6179458618e+01
    7.9598327637e+01    5.6362461090e+01
    7.9698310852e+01    5.6548332214e+01
    7.9798286438e+01    5.6735980988e+01
    7.9898155212e+01    5.6925231934e+01
    7.9998199463e+01    5.7116619110e+01
    8.0099082947e+01    5.7311408997e+01
    8.0197875977e+01    5.7503906250e+01
    8.0298553467e+01    5.7701877594e+01
    8.0398094177e+01    5.7899471283e+01
    8.0497901917e+01    5.8099357605e+01
    8.0599227905e+01    5.8304267883e+01
    8.0698921204e+01    5.8507610321e+01
    8.0798324585e+01    5.8712371826e+01
    8.0898658752e+01    5.8920768738e+01
    8.0998023987e+01    5.9129138947e+01
    8.1098052979e+01    5.9340713501e+01
    8.1198921204e+01    5.9556030273e+01
    8.1297988892e+01    5.9769508362e+01
    8.1398376465e+01    5.9987617493e+01
    8.1498260498e+01    6.0206691742e+01
    8.1599189758e+01    6.0430019379e+01
    8.1698097229e+01    6.0650802612e+01
    8.1799278259e+01    6.0878719330e+01
    8.1899101257e+01    6.1105522156e+01
    8.1997871399e+01    6.1332000732e+01
    8.2098739624e+01    6.1565170288e+01
    8.2199005127e+01    6.1799087524e+01
    8.2297927856e+01    6.2031898499e+01
    8.2398933411e+01    6.2271640778e+01
    8.2497825623e+01    6.2508369446e+01
    8.2598800659e+01    6.2752227783e+01
    8.2699012756e+01    6.2996288300e+01
    8.2797859192e+01    6.3239128113e+01
    8.2898681641e+01    6.3488906860e+01
    8.2999206543e+01    6.3740051270e+01
    8.3098777771e+01    6.3991050720e+01
    8.3198509216e+01    6.4244491577e+01
    8.3298896790e+01    6.4501708984e+01
    8.3398971558e+01    6.4760292053e+01
    8.3499130249e+01    6.5021316528e+01
    8.3598800659e+01    6.5283172607e+01
    8.3698638916e+01    6.5547630310e+01
    8.3798835754e+01    6.5815231323e+01
    8.3899108887e+01    6.6085159302e+01
    8.3998611450e+01    6.6355194092e+01
    8.4098548889e+01    6.6628631592e+01
    8.4198760986e+01    6.6905021667e+01
    8.4298675537e+01    6.7182746887e+01
    8.4398666382e+01    6.7462997437e+01
    8.4498428345e+01    6.7744850159e+01
    8.4599121094e+01    6.8031501770e+01
    8.4698013306e+01    6.8315406799e+01
    8.4798477173e+01    6.8605987549e+01
    8.4898826599e+01    6.8898620605e+01
    8.4997848511e+01    6.9189636230e+01
    8.5098434448e+01    6.9487602234e+01
    8.5197669983e+01    6.9783859253e+01
    8.5298408508e+01    7.0086959839e+01
    8.5398460388e+01    7.0390319824e+01
    8.5499229431e+01    7.0698181152e+01
    8.5598747253e+01    7.1004608154e+01
    8.5699096680e+01    7.1315902710e+01
    8.5798667908e+01    7.1627166748e+01
    8.5898406982e+01    7.1941246033e+01
    8.5998764038e+01    7.2259651184e+01
    8.6098640442e+01    7.2578811646e+01
    8.6199127197e+01    7.2902465820e+01
    8.6297714233e+01    7.3222175598e+01
    8.6398063660e+01    7.3549896240e+01
    8.6497817993e+01    7.3878112793e+01
    8.6598289490e+01    7.4211059570e+01
    8.6697784424e+01    7.4543067932e+01
    8.6797821045e+01    7.4879257202e+01
    8.6898483276e+01    7.5219909668e+01
    8.6998825073e+01    7.5561813354e+01
    8.7098381042e+01    7.5903366089e+01
    8.7198570251e+01    7.6249458313e+01
    8.7297760010e+01    7.6594314575e+01
    8.7398811340e+01    7.6948104858e+01
    8.7498504639e+01    7.7299415588e+01
    8.7597984314e+01    7.7652214050e+01
    8.7697906494e+01    7.8008872986e+01
    8.7798423767e+01    7.8370040894e+01
    8.7897865295e+01    7.8729598999e+01
    8.7998321533e+01    7.9095108032e+01
    8.8097686768e+01    7.9458831787e+01
    8.8197677612e+01    7.9827186584e+01
    8.8298194885e+01    8.0199729919e+01
    8.8398010254e+01    8.0571861267e+01
    8.8498725891e+01    8.0949661255e+01
    8.8598365784e+01    8.1325653076e+01
    8.8697776794e+01    8.1702896118e+01
    8.8798164368e+01    8.2086021423e+01
    8.8898025513e+01    8.2469444275e+01
    8.8998703003e+01    8.2858123779e+01
    8.9098030090e+01    8.3243736267e+01
    8.9198982239e+01    8.3637741089e+01
    8.9297737122e+01    8.4025367737e+01
    8.9398307800e+01    8.4422142029e+01
    8.9498725891e+01    8.4820564270e+01
    8.9598648071e+01    8.5218925476e+01
    8.9698509216e+01    8.5619094849e+01
    8.9798233032e+01    8.6020812988e+01
    8.9897628784e+01    8.6423057556e+01
    8.9998825073e+01    8.6834640503e+01
    9.0098022461e+01    8.7240081787e+01
    9.0197715759e+01    8.7649345398e+01
    9.0298385620e+01    8.8064605713e+01
    9.0397789001e+01    8.8476493835e+01
    9.0498703003e+01    8.8896476746e+01
    9.0598541260e+01    8.9313865662e+01
    9.0699050903e+01    8.9735801697e+01
    9.0798500061e+01    9.0155021667e+01
    9.0897888184e+01    9.0575759888e+01
    9.0998870850e+01    9.1004974365e+01
    9.1098236084e+01    9.1428848267e+01
    9.1197898865e+01    9.1855781555e+01
    9.1298881531e+01    9.2289916992e+01
    9.1398963928e+01    9.2721824646e+01
    9.1498985291e+01    9.3154991150e+01
    9.1598945618e+01    9.3589317322e+01
    9.1698837280e+01    9.4024917603e+01
    9.1798309326e+01    9.4460052490e+01
    9.1898902893e+01    9.4901512146e+01
    9.1997962952e+01    9.5337638855e+01
    9.2098960876e+01    9.5783653259e+01
    9.2197799683e+01    9.6221420288e+01
    9.2298210144e+01    9.6667320251e+01
    9.2398826599e+01    9.7115402222e+01
    9.2498176575e+01    9.7559051514e+01
    9.2599006653e+01    9.8010437012e+01
    9.2698219299e+01    9.8455581665e+01
    9.2798904419e+01    9.8908531189e+01
    9.2897972107e+01    9.9355049133e+01
    9.2998153687e+01    9.9807640076e+01
    9.3098617554e+01    1.0026238251e+02
    9.3199012756e+01    1.0071776581e+02
    9.3297782898e+01    1.0116646576e+02
    9.3398025513e+01    1.0162274170e+02
    9.3498199463e+01    1.0207945251e+02
    9.3598289490e+01    1.0253678131e+02
    9.3698303223e+01    1.0299412537e+02
    9.3798240662e+01    1.0345159912e+02
    9.3897956848e+01    1.0390829468e+02
    9.3998817444e+01    1.0437196350e+02
    9.4097763062e+01    1.0482644653e+02
    9.4197845459e+01    1.0528685760e+02
    9.4299049377e+01    1.0575218201e+02
    9.4398361206e+01    1.0621034241e+02
    9.4498786926e+01    1.0667237854e+02
    9.4598716736e+01    1.0713388824e+02
    9.4698371887e+01    1.0759365082e+02
    9.4798904419e+01    1.0805747223e+02
    9.4897796631e+01    1.0851393127e+02
    9.4997779846e+01    1.0897521973e+02
    9.5098854065e+01    1.0944127655e+02
    9.5198081970e+01    1.0989923096e+02
    9.5298385620e+01    1.1036193848e+02
    9.5398315430e+01    1.1082296753e+02
    9.5497871399e+01    1.1128131104e+02
    9.5598480225e+01    1.1174436951e+02
    9.5698661804e+01    1.1220579529e+02
    9.5798522949e+01    1.1266445160e+02
    9.5898017883e+01    1.1312239838e+02
    9.5998558044e+01    1.1358400726e+02
    9.6098724365e+01    1.1404288483e+02
    9.6198524475e+01    1.1450004578e+02
    9.6297958374e+01    1.1495548248e+02
    9.6398422241e+01    1.1541450500e+02
    9.6498519897e+01    1.1587178040e+02
    9.6598258972e+01    1.1632632446e+02
    9.6699012756e+01    1.1678540039e+02
    9.6798034668e+01    1.1723542786e+02
    9.6898078918e+01    1.1768997955e+02
    9.6997764587e+01    1.1814176178e+02
    9.7098457336e+01    1.1859702301e+02
    9.7198791504e+01    1.1905048370e+02
    9.7298774719e+01    1.1950215912e+02
    9.7398414612e+01    1.1995104980e+02
    9.7499046326e+01    1.2040334320e+02
    9.7597999573e+01    1.2084664154e+02
    9.7697944641e+01    1.2129432678e+02
    9.7798866272e+01    1.2174636078e+02
    9.7898132324e+01    1.2218940735e+02
    9.7998367310e+01    1.2263578796e+02
    9.8098274231e+01    1.2307934570e+02
    9.8197837830e+01    1.2352106476e+02
    9.8298377991e+01    1.2396607208e+02
    9.8398574829e+01    1.2440922546e+02
    9.8498443604e+01    1.2484953308e+02
    9.8597976685e+01    1.2528797913e+02
    9.8698471069e+01    1.2572865295e+02
    9.8798637390e+01    1.2616744995e+02
    9.8898468018e+01    1.2660438538e+02
    9.8997978210e+01    1.2703844452e+02
    9.9098442078e+01    1.2747566986e+02
    9.9198570251e+01    1.2791099548e+02
    9.9298377991e+01    1.2834344482e+02
    9.9397857666e+01    1.2877400208e+02
    9.9498283386e+01    1.2920765686e+02
    9.9598381042e+01    1.2963841248e+02
    9.9698158264e+01    1.3006726074e+02
    9.9798866272e+01    1.3049916077e+02
    9.9898010254e+01    1.3092320251e+02
    9.9998077393e+01    1.3135028076e+02
    1.0009783173e+02    1.3177542114e+02
    1.0019850159e+02    1.3220256042e+02
    1.0029885101e+02    1.3262875366e+02
    1.0039888763e+02    1.3305201721e+02
    1.0049861908e+02    1.3347335815e+02
    1.0059803772e+02    1.3389175415e+02
    1.0069835663e+02    1.3431408691e+02
    1.0079837036e+02    1.3473344421e+02
    1.0089807892e+02    1.3515087891e+02
    1.0099868011e+02    1.3557116699e+02
    1.0109896851e+02    1.3598953247e+02
    1.0119895172e+02    1.3640589905e+02
    1.0129862976e+02    1.3682031250e+02
    1.0139801025e+02    1.3723278809e+02
    1.0149826050e+02    1.3764805603e+02
    1.0159822083e+02    1.3806135559e+02
    1.0169788361e+02    1.3847270203e+02
    1.0179840851e+02    1.3888778687e+02
    1.0189862823e+02    1.3929989624e+02
    1.0199855804e+02    1.3971101379e+02
    1.0209819794e+02    1.4011917114e+02
    1.0219869232e+02    1.4053199768e+02
    1.0229888916e+02    1.4094180298e+02
    1.0239878845e+02    1.4135069275e+02
    1.0249841309e+02    1.4175749207e+02
    1.0259886932e+02    1.4216700745e+02
    1.0269789886e+02    1.4257089233e+02
    1.0279891968e+02    1.4298200989e+02
    1.0289852142e+02    1.4338749695e+02
    1.0299894714e+02    1.4379559326e+02
    1.0309797668e+02    1.4419700623e+02
    1.0319895935e+02    1.4460659790e+02
    1.0329853821e+02    1.4501058960e+02
    1.0339894867e+02    1.4541720581e+02
    1.0349796295e+02    1.4581820679e+02
    1.0359892273e+02    1.4622720337e+02
    1.0369847870e+02    1.4662969971e+02
    1.0379886627e+02    1.4703559875e+02
    1.0389897919e+02    1.4744050598e+02
    1.0399880981e+02    1.4784329224e+02
    1.0409835815e+02    1.4824508667e+02
    1.0419873047e+02    1.4865040588e+02
    1.0429882812e+02    1.4905349731e+02
    1.0439865112e+02    1.4945660400e+02
    1.0449819946e+02    1.4985771179e+02
    1.0459855652e+02    1.5026210022e+02
    1.0469866180e+02    1.5066540527e+02
    1.0479847717e+02    1.5106768799e+02
    1.0489803314e+02    1.5146890259e+02
    1.0499839020e+02    1.5187240601e+02
    1.0509848022e+02    1.5227589417e+02
    1.0519830322e+02    1.5267721558e+02
    1.0529892731e+02    1.5308279419e+02
    1.0539823151e+02    1.5348190308e+02
    1.0549832916e+02    1.5388531494e+02
    1.0559816742e+02    1.5428660583e+02
    1.0569880676e+02    1.5469100952e+02
    1.0579814148e+02    1.5509010315e+02
    1.0589826202e+02    1.5549328613e+02
    1.0599813080e+02    1.5589439392e+02
    1.0609877777e+02    1.5629859924e+02
    1.0619815063e+02    1.5669841003e+02
    1.0629830933e+02    1.5710029602e+02
    1.0639821625e+02    1.5750109863e+02
    1.0649890900e+02    1.5790589905e+02
    1.0659832764e+02    1.5830439758e+02
    1.0669853973e+02    1.5870690918e+02
    1.0679850006e+02    1.5910719299e+02
    1.0689821625e+02    1.5950740051e+02
    1.0699871826e+02    1.5990950012e+02
    1.0709796906e+02    1.6030731201e+02
    1.0719799805e+02    1.6070809937e+02
    1.0729879761e+02    1.6111169434e+02
    1.0739836121e+02    1.6151010132e+02
    1.0749870300e+02    1.6191130066e+02
    1.0759880066e+02    1.6231130981e+02
    1.0769867706e+02    1.6271009827e+02
    1.0779833221e+02    1.6310769653e+02
    1.0789875031e+02    1.6350910950e+02
    1.0799796295e+02    1.6390420532e+02
    1.0809793854e+02    1.6430310059e+02
    1.0819869232e+02    1.6470469666e+02
    1.0829823303e+02    1.6510009766e+02
    1.0839855194e+02    1.6549919128e+02
    1.0849864197e+02    1.6589700317e+02
    1.0859851837e+02    1.6629348755e+02
    1.0869818878e+02    1.6668980408e+02
    1.0879862213e+02    1.6708770752e+02
    1.0889884186e+02    1.6748419189e+02
    1.0899884796e+02    1.6787948608e+02
    1.0909864807e+02    1.6827449036e+02
    1.0919824219e+02    1.6866731262e+02
    1.0929857635e+02    1.6906349182e+02
    1.0939872742e+02    1.6945840454e+02
    1.0949865723e+02    1.6985099792e+02
    1.0959838867e+02    1.7024328613e+02
    1.0969886780e+02    1.7063810730e+02
    1.0979818726e+02    1.7102670288e+02
    1.0989826202e+02    1.7141879272e+02
    1.0999813080e+02    1.7180960083e+02
    1.1009874725e+02    1.7220179749e+02
    1.1019821167e+02    1.7258990479e+02
    1.1029842377e+02    1.7297929382e+02
    1.1039842987e+02    1.7336750793e+02
    1.1049823761e+02    1.7375520325e+02
    1.1059879303e+02    1.7414430237e+02
    1.1069819641e+02    1.7452841187e+02
    1.1079834747e+02    1.7491470337e+02
    1.1089829254e+02    1.7529969788e+02
    1.1099803925e+02    1.7568330383e+02
    1.1109851837e+02    1.7606820679e+02
    1.1119879913e+02    1.7645269775e+02
    1.1129795074e+02    1.7683129883e+02
    1.1139875793e+02    1.7721559143e+02
    1.1149845123e+02    1.7759500122e+02
    1.1159884644e+02    1.7797550964e+02
    1.1169815063e+02    1.7835220337e+02
    1.1179815674e+02    1.7873001099e+02
    1.1189797974e+02    1.7910641479e+02
    1.1199851227e+02    1.7948390198e+02
    1.1209884644e+02    1.7986099243e+02
    1.1219808197e+02    1.8023229980e+02
    1.1229801941e+02    1.8060559082e+02
    1.1239868164e+02    1.8097999573e+02
    1.1249823761e+02    1.8134950256e+02
    1.1259851074e+02    1.8172109985e+02
    1.1269857788e+02    1.8209129333e+02
    1.1279846191e+02    1.8245899963e+02
    1.1289814758e+02    1.8282540894e+02
    1.1299855042e+02    1.8319360352e+02
    1.1309874725e+02    1.8355950928e+02
    1.1319876862e+02    1.8392390442e+02
    1.1329859161e+02    1.8428700256e+02
    1.1339823151e+02    1.8464859009e+02
    1.1349857330e+02    1.8501098633e+02
    1.1359871674e+02    1.8537109375e+02
    1.1369869232e+02    1.8572961426e+02
    1.1379846954e+02    1.8608679199e+02
    1.1389807129e+02    1.8644250488e+02
    1.1399835968e+02    1.8679899597e+02
    1.1409847260e+02    1.8715399170e+02
    1.1419840240e+02    1.8750759888e+02
    1.1429814911e+02    1.8785870361e+02
    1.1439859772e+02    1.8821051025e+02
    1.1449800110e+02    1.8855859375e+02
    1.1459809113e+02    1.8890750122e+02
    1.1469799805e+02    1.8925491333e+02
    1.1479860687e+02    1.8960289001e+02
    1.1489817810e+02    1.8994628906e+02
    1.1499844360e+02    1.9029119873e+02
    1.1509853363e+02    1.9063369751e+02
    1.1519844818e+02    1.9097470093e+02
    1.1529821014e+02    1.9131408691e+02
    1.1539865112e+02    1.9165411377e+02
    1.1549806976e+02    1.9198939514e+02
    1.1559818268e+02    1.9232630920e+02
    1.1569812775e+02    1.9266069031e+02
    1.1579876709e+02    1.9299639893e+02
    1.1589839935e+02    1.9332769775e+02
    1.1599871826e+02    1.9366029358e+02
    1.1609803772e+02    1.9398741150e+02
    1.1619803619e+02    1.9431581116e+02
    1.1629873657e+02    1.9464559937e+02
    1.1639843750e+02    1.9497088623e+02
    1.1649797821e+02    1.9529360962e+02
    1.1659822083e+02    1.9561759949e+02
    1.1669847107e+02    1.9594020081e+02
    1.1679840851e+02    1.9626100159e+02
    1.1689820099e+02    1.9657910156e+02
    1.1699868011e+02    1.9689840698e+02
    1.1709819031e+02    1.9721430969e+02
    1.1719838715e+02    1.9752929688e+02
    1.1729844666e+02    1.9784359741e+02
    1.1739852142e+02    1.9815638733e+02
    1.1749830627e+02    1.9846640015e+02
    1.1759806061e+02    1.9877621460e+02
    1.1769869995e+02    1.9908599854e+02
    1.1779853821e+02    1.9939251709e+02
    1.1789871979e+02    1.9969888306e+02
    1.1799844360e+02    2.0000231934e+02
    1.1809844208e+02    2.0030479431e+02
    1.1819805908e+02    2.0060488892e+02
    1.1829872894e+02    2.0090710449e+02
    1.1839795685e+02    2.0120339966e+02
    1.1849873352e+02    2.0150318909e+02
    1.1859832001e+02    2.0179779053e+02
    1.1869848633e+02    2.0209188843e+02
    1.1879875183e+02    2.0238610840e+02
    1.1889807892e+02    2.0267590332e+02
    1.1899845123e+02    2.0296649170e+02
    1.1909864807e+02    2.0325569153e+02
    1.1919822693e+02    2.0354080200e+02
    1.1929805756e+02    2.0382608032e+02
    1.1939833069e+02    2.0411149597e+02
    1.1949845123e+02    2.0439439392e+02
    1.1959854126e+02    2.0467579651e+02
    1.1969853210e+02    2.0495539856e+02
    1.1979856110e+02    2.0523330688e+02
    1.1989874268e+02    2.0551080322e+02
    1.1999822235e+02    2.0578491211e+02
    1.2009838867e+02    2.0605850220e+02
    1.2019835663e+02    2.0633078003e+02
    1.2029833221e+02    2.0660171509e+02
    1.2039859772e+02    2.0687130737e+02
    1.2049851227e+02    2.0713839722e+02
    1.2059828186e+02    2.0740390015e+02
    1.2069795227e+02    2.0766748047e+02
    1.2079862976e+02    2.0793269348e+02
    1.2089849854e+02    2.0819410706e+02
    1.2099861908e+02    2.0845352173e+02
    1.2109844971e+02    2.0871218872e+02
    1.2119838715e+02    2.0896868896e+02
    1.2129798126e+02    2.0922268677e+02
    1.2139852142e+02    2.0947749329e+02
    1.2149842072e+02    2.0972959900e+02
    1.2159797668e+02    2.0997930908e+02
    1.2169828796e+02    2.1022888184e+02
    1.2179844666e+02    2.1047680664e+02
    1.2189856720e+02    2.1072341919e+02
    1.2199859619e+02    2.1096809387e+02
    1.2209854126e+02    2.1121070862e+02
    1.2219837952e+02    2.1145138550e+02
    1.2229812622e+02    2.1169021606e+02
    1.2239862823e+02    2.1192971802e+02
    1.2249819183e+02    2.1216448975e+02
    1.2259851074e+02    2.1240000916e+02
    1.2269789124e+02    2.1263189697e+02
    1.2279801941e+02    2.1286441040e+02
    1.2289804840e+02    2.1309399414e+02
    1.2299800110e+02    2.1332260132e+02
    1.2309838867e+02    2.1355068970e+02
    1.2319805908e+02    2.1377490234e+02
    1.2329856873e+02    2.1400009155e+02
    1.2339814758e+02    2.1422171021e+02
    1.2349848175e+02    2.1444290161e+02
    1.2359787750e+02    2.1466049194e+02
    1.2369802094e+02    2.1487770081e+02
    1.2379808044e+02    2.1509388733e+02
    1.2389804840e+02    2.1530801392e+02
    1.2399791718e+02    2.1551998901e+02
    1.2409854126e+02    2.1573300171e+02
    1.2419824219e+02    2.1594201660e+02
    1.2429785156e+02    2.1614900208e+02
    1.2439820099e+02    2.1635598755e+02
    1.2449846649e+02    2.1656100464e+02
    1.2459864044e+02    2.1676499939e+02
    1.2469790649e+02    2.1696499634e+02
    1.2479792023e+02    2.1716500854e+02
    1.2489865875e+02    2.1736499023e+02
    1.2499849701e+02    2.1756198120e+02
    1.2509825897e+02    2.1775799561e+02
    1.2519792938e+02    2.1795100403e+02
    1.2529834747e+02    2.1814300537e+02
    1.2539785767e+02    2.1833300781e+02
    1.2549810791e+02    2.1852398682e+02
    1.2559828186e+02    2.1871200562e+02
    1.2569837952e+02    2.1889801025e+02
    1.2579839325e+02    2.1908297729e+02
    1.2589833069e+02    2.1926599121e+02
    1.2599819183e+02    2.1944699097e+02
    1.2609797668e+02    2.1962701416e+02
    1.2619850159e+02    2.1980700684e+02
    1.2629812622e+02    2.1998300171e+02
    1.2639849854e+02    2.2015998840e+02
    1.2649799347e+02    2.2033299255e+02
    1.2659821320e+02    2.2050598145e+02
    1.2669837189e+02    2.2067800903e+02
    1.2679844666e+02    2.2084800720e+02
    1.2689846039e+02    2.2101599121e+02
    1.2699839783e+02    2.2118299866e+02
    1.2709826660e+02    2.2134799194e+02
    1.2719806671e+02    2.2151101685e+02
    1.2729862213e+02    2.2167498779e+02
    1.2739829254e+02    2.2183499146e+02
    1.2749788666e+02    2.2199400330e+02
    1.2759824371e+02    2.2215299988e+02
    1.2769851685e+02    2.2231100464e+02
    1.2779794312e+02    2.2246398926e+02
    1.2789810181e+02    2.2261801147e+02
    1.2799819946e+02    2.2277101135e+02
    1.2809823608e+02    2.2292199707e+02
    1.2819822693e+02    2.2307199097e+02
    1.2829812622e+02    2.2322000122e+02
    1.2839799500e+02    2.2336601257e+02
    1.2849859619e+02    2.2351298523e+02
    1.2859834290e+02    2.2365701294e+02
    1.2869802856e+02    2.2379901123e+02
    1.2879846191e+02    2.2394099426e+02
    1.2889804077e+02    2.2408000183e+02
    1.2899836731e+02    2.2421900940e+02
    1.2909863281e+02    2.2435699463e+02
    1.2919804382e+02    2.2449198914e+02
    1.2929821777e+02    2.2462701416e+02
    1.2939833069e+02    2.2476101685e+02
    1.2949838257e+02    2.2489299011e+02
    1.2959840393e+02    2.2502299500e+02
    1.2969837952e+02    2.2515199280e+02
    1.2979829407e+02    2.2528001404e+02
    1.2989816284e+02    2.2540698242e+02
    1.2999800110e+02    2.2553298950e+02
    1.3009858704e+02    2.2565699768e+02
    1.3019831848e+02    2.2577999878e+02
    1.3029801941e+02    2.2590200806e+02
    1.3039845276e+02    2.2602200317e+02
    1.3049807739e+02    2.2614102173e+02
    1.3059843445e+02    2.2625999451e+02
    1.3069876099e+02    2.2637699890e+02
    1.3079824829e+02    2.2649200439e+02
    1.3089848328e+02    2.2660697937e+02
    1.3099868774e+02    2.2672000122e+02
    1.3109806824e+02    2.2683100891e+02
    1.3119819641e+02    2.2694300842e+02
    1.3129826355e+02    2.2705198669e+02
    1.3139831543e+02    2.2716101074e+02
    1.3149833679e+02    2.2726800537e+02
    1.3159829712e+02    2.2737498474e+02
    1.3169824219e+02    2.2748001099e+02
    1.3179814148e+02    2.2758399963e+02
    1.3189878845e+02    2.2768699646e+02
    1.3199862671e+02    2.2778800964e+02
    1.3209841919e+02    2.2788900757e+02
    1.3219818115e+02    2.2798800659e+02
    1.3229870605e+02    2.2808700562e+02
    1.3239839172e+02    2.2818399048e+02
    1.3249884033e+02    2.2828099060e+02
    1.3259846497e+02    2.2837498474e+02
    1.3269885254e+02    2.2847000122e+02
    1.3279841614e+02    2.2856199646e+02
    1.3289872742e+02    2.2865399170e+02
    1.3299821472e+02    2.2874497986e+02
    1.3309846497e+02    2.2883500671e+02
    1.3319865417e+02    2.2892399597e+02
    1.3329884338e+02    2.2901200867e+02
    1.3339819336e+02    2.2909800720e+02
    1.3349829102e+02    2.2918400574e+02
    1.3359835815e+02    2.2926901245e+02
    1.3369839478e+02    2.2935299683e+02
    1.3379838562e+02    2.2943598938e+02
    1.3389834595e+02    2.2951699829e+02
    1.3399827576e+02    2.2959701538e+02
    1.3409893799e+02    2.2967799377e+02
    1.3419879150e+02    2.2975599670e+02
    1.3429859924e+02    2.2983300781e+02
    1.3439837646e+02    2.2991000366e+02
    1.3449890137e+02    2.2998500061e+02
    1.3459861755e+02    2.3005998230e+02
    1.3469827271e+02    2.3013301086e+02
    1.3479870605e+02    2.3020701599e+02
    1.3489830017e+02    2.3027699280e+02
    1.3499864197e+02    2.3034901428e+02
    1.3509895325e+02    2.3041799927e+02
    1.3519844055e+02    2.3048600769e+02
    1.3529867554e+02    2.3055299377e+02
    1.3539886475e+02    2.3061999512e+02
    1.3549902344e+02    2.3068499756e+02
    1.3559837341e+02    2.3074998474e+02
    1.3569847107e+02    2.3081301880e+02
    1.3579852295e+02    2.3087498474e+02
    1.3589854431e+02    2.3093598938e+02
    1.3599851990e+02    2.3099598694e+02
    1.3609846497e+02    2.3105599976e+02
    1.3619837952e+02    2.3111300659e+02
    1.3629904175e+02    2.3117199707e+02
    1.3639889526e+02    2.3122698975e+02
    1.3649870300e+02    2.3128199768e+02
    1.3659849548e+02    2.3133599854e+02
    1.3669902039e+02    2.3138899231e+02
    1.3679873657e+02    2.3144100952e+02
    1.3689843750e+02    2.3149099731e+02
    1.3699887085e+02    2.3154098511e+02
    1.3709851074e+02    2.3158999634e+02
    1.3719888306e+02    2.3163798523e+02
    1.3729847717e+02    2.3168399048e+02
    1.3739880371e+02    2.3172999573e+02
    1.3749909973e+02    2.3177401733e+02
    1.3759860229e+02    2.3181800842e+02
    1.3769883728e+02    2.3185998535e+02
    1.3779907227e+02    2.3190200806e+02
    1.3789848328e+02    2.3194100952e+02
    1.3799865723e+02    2.3198101807e+02
    1.3809881592e+02    2.3201899719e+02
    1.3819894409e+02    2.3205599976e+02
    1.3829904175e+02    2.3209201050e+02
    1.3839912415e+02    2.3212699890e+02
    1.3849917603e+02    2.3216099548e+02
    1.3859921265e+02    2.3219400024e+02
    1.3869923401e+02    2.3222599792e+02
    1.3879924011e+02    2.3225599670e+02
    1.3889921570e+02    2.3228500366e+02
    1.3899917603e+02    2.3231298828e+02
    1.3909910583e+02    2.3234098816e+02
    1.3919903564e+02    2.3236801147e+02
    1.3929893494e+02    2.3239199829e+02
    1.3939881897e+02    2.3241600037e+02
    1.3949868774e+02    2.3243901062e+02
    1.3959930420e+02    2.3246101379e+02
    1.3969914246e+02    2.3248200989e+02
    1.3979896545e+02    2.3250099182e+02
    1.3989877319e+02    2.3251998901e+02
    1.3999931335e+02    2.3253698730e+02
    1.4009910583e+02    2.3255401611e+02
    1.4019885254e+02    2.3256901550e+02
    1.4029861450e+02    2.3258299255e+02
    1.4039910889e+02    2.3259701538e+02
    1.4049882507e+02    2.3260900879e+02
    1.4059930420e+02    2.3261901855e+02
    1.4069900513e+02    2.3263000488e+02
    1.4079869080e+02    2.3263900757e+02
    1.4089912415e+02    2.3264599609e+02
    1.4099879456e+02    2.3265298462e+02
    1.4109919739e+02    2.3265798950e+02
    1.4119883728e+02    2.3266302490e+02
    1.4129922485e+02    2.3266601562e+02
    1.4139883423e+02    2.3266799927e+02
    1.4149920654e+02    2.3266900635e+02
    1.4159878540e+02    2.3267001343e+02
    1.4169912720e+02    2.3266897583e+02
    1.4179869080e+02    2.3266601562e+02
    1.4189901733e+02    2.3266201782e+02
    1.4199931335e+02    2.3265798950e+02
    1.4209884644e+02    2.3265197754e+02
    1.4219912720e+02    2.3264599609e+02
    1.4229940796e+02    2.3263897705e+02
    1.4239891052e+02    2.3262997437e+02
    1.4249916077e+02    2.3261999512e+02
    1.4259939575e+02    2.3260897827e+02
    1.4269886780e+02    2.3259698486e+02
    1.4279908752e+02    2.3258401489e+02
    1.4289930725e+02    2.3257000732e+02
    1.4299951172e+02    2.3255502319e+02
    1.4309893799e+02    2.3253799438e+02
    1.4319912720e+02    2.3252102661e+02
    1.4329930115e+02    2.3250302124e+02
    1.4339945984e+02    2.3248297119e+02
    1.4349885559e+02    2.3246197510e+02
    1.4359898376e+02    2.3244100952e+02
    1.4369912720e+02    2.3241799927e+02
    1.4379924011e+02    2.3239501953e+02
    1.4389935303e+02    2.3237002563e+02
    1.4399943542e+02    2.3234399414e+02
    1.4409953308e+02    2.3231796265e+02
    1.4419883728e+02    2.3229098511e+02
    1.4429888916e+02    2.3226196289e+02
    1.4439892578e+02    2.3223202515e+02
    1.4449896240e+02    2.3220098877e+02
    1.4459898376e+02    2.3216903687e+02
    1.4469897461e+02    2.3213601685e+02
    1.4479896545e+02    2.3210198975e+02
    1.4489894104e+02    2.3206698608e+02
    1.4499888611e+02    2.3203198242e+02
    1.4509959412e+02    2.3199502563e+02
    1.4519952393e+02    2.3195697021e+02
    1.4529942322e+02    2.3191796875e+02
    1.4539932251e+02    2.3187902832e+02
    1.4549920654e+02    2.3183801270e+02
    1.4559906006e+02    2.3179598999e+02
    1.4569966125e+02    2.3175396729e+02
    1.4579948425e+02    2.3170999146e+02
    1.4589930725e+02    2.3166601562e+02
    1.4599908447e+02    2.3161999512e+02
    1.4609962463e+02    2.3157397461e+02
    1.4619938660e+02    2.3152603149e+02
    1.4629911804e+02    2.3147802734e+02
    1.4639959717e+02    2.3142703247e+02
    1.4649929810e+02    2.3137701416e+02
    1.4659898376e+02    2.3132601929e+02
    1.4669941711e+02    2.3127398682e+02
    1.4679905701e+02    2.3122198486e+02
    1.4689944458e+02    2.3116702271e+02
    1.4699905396e+02    2.3111300659e+02
    1.4709941101e+02    2.3105603027e+02
    1.4719973755e+02    2.3100000000e+02
    1.4729928589e+02    2.3094100952e+02
    1.4739958191e+02    2.3088299561e+02
    1.4749908447e+02    2.3082302856e+02
    1.4759933472e+02    2.3076300049e+02
    1.4769956970e+02    2.3070101929e+02
    1.4779977417e+02    2.3064001465e+02
    1.4789921570e+02    2.3057598877e+02
    1.4799937439e+02    2.3051303101e+02
    1.4809953308e+02    2.3044699097e+02
    1.4819966125e+02    2.3038201904e+02
    1.4829977417e+02    2.3031402588e+02
    1.4839912415e+02    2.3024801636e+02
    1.4849920654e+02    2.3017901611e+02
    1.4859925842e+02    2.3011001587e+02
    1.4869929504e+02    2.3003997803e+02
    1.4879933167e+02    2.2996798706e+02
    1.4889933777e+02    2.2989498901e+02
    1.4899932861e+02    2.2982296753e+02
    1.4909930420e+02    2.2974902344e+02
    1.4919926453e+02    2.2967398071e+02
    1.4929922485e+02    2.2959902954e+02
    1.4939915466e+02    2.2952197266e+02
    1.4949983215e+02    2.2944500732e+02
    1.4959973145e+02    2.2936599731e+02
    1.4969961548e+02    2.2928799438e+02
    1.4979948425e+02    2.2920797729e+02
    1.4989935303e+02    2.2912701416e+02
    1.4999920654e+02    2.2904602051e+02
    1.5009979248e+02    2.2896301270e+02
    1.5019963074e+02    2.2887899780e+02
    1.5029945374e+02    2.2879602051e+02
    1.5039924622e+02    2.2870999146e+02
    1.5049980164e+02    2.2862496948e+02
    1.5059959412e+02    2.2853799438e+02
    1.5069935608e+02    2.2844998169e+02
    1.5079988098e+02    2.2836203003e+02
    1.5089964294e+02    2.2827297974e+02
    1.5099937439e+02    2.2818298340e+02
    1.5109986877e+02    2.2809197998e+02
    1.5119958496e+02    2.2800000000e+02
    1.5130000305e+02    2.2790798950e+02
    1.5139959717e+02    2.2781500244e+02
    1.5149989319e+02    2.2772097778e+02
    1.5159936523e+02    2.2762701416e+02
    1.5169952393e+02    2.2753097534e+02
    1.5179960632e+02    2.2743499756e+02
    1.5189964294e+02    2.2733801270e+02
    1.5199963379e+02    2.2724102783e+02
    1.5209956360e+02    2.2714202881e+02
    1.5219943237e+02    2.2704296875e+02
    1.5229998779e+02    2.2694198608e+02
    1.5239974976e+02    2.2684298706e+02
    1.5249945068e+02    2.2674099731e+02
    1.5259985352e+02    2.2663800049e+02
    1.5269944763e+02    2.2653598022e+02
    1.5279974365e+02    2.2643197632e+02
    1.5289999390e+02    2.2632800293e+02
    1.5299945068e+02    2.2622299194e+02
    1.5309959412e+02    2.2611801147e+02
    1.5319970703e+02    2.2601199341e+02
    1.5329974365e+02    2.2590502930e+02
    1.5339976501e+02    2.2579702759e+02
    1.5349972534e+02    2.2568899536e+02
    1.5359965515e+02    2.2557998657e+02
    1.5369952393e+02    2.2547100830e+02
    1.5380009460e+02    2.2536001587e+02
    1.5389988708e+02    2.2524899292e+02
    1.5399963379e+02    2.2513800049e+02
    1.5410008240e+02    2.2502502441e+02
    1.5419975281e+02    2.2491400146e+02
    1.5430012512e+02    2.2479998779e+02
    1.5439970398e+02    2.2468600464e+02
    1.5449998474e+02    2.2457101440e+02
    1.5459950256e+02    2.2445602417e+02
    1.5469970703e+02    2.2434097290e+02
    1.5479989624e+02    2.2422396851e+02
    1.5490002441e+02    2.2410699463e+02
    1.5500012207e+02    2.2398999023e+02
    1.5510017395e+02    2.2387100220e+02
    1.5520019531e+02    2.2375201416e+02
    1.5530018616e+02    2.2363296509e+02
    1.5540013123e+02    2.2351403809e+02
    1.5550004578e+02    2.2339300537e+02
    1.5559991455e+02    2.2327297974e+02
    1.5569973755e+02    2.2315100098e+02
    1.5580027771e+02    2.2302899170e+02
    1.5590002441e+02    2.2290600586e+02
    1.5599975586e+02    2.2278399658e+02
    1.5610017395e+02    2.2266000366e+02
    1.5619981384e+02    2.2253601074e+02
    1.5630014038e+02    2.2240997314e+02
    1.5639970398e+02    2.2228604126e+02
    1.5649996948e+02    2.2215997314e+02
    1.5660018921e+02    2.2203298950e+02
    1.5669964600e+02    2.2190698242e+02
    1.5679978943e+02    2.2177899170e+02
    1.5689991760e+02    2.2165103149e+02
    1.5699998474e+02    2.2152301025e+02
    1.5710002136e+02    2.2139495850e+02
    1.5720002747e+02    2.2126498413e+02
    1.5729997253e+02    2.2113500977e+02
    1.5739991760e+02    2.2100598145e+02
    1.5749981689e+02    2.2087503052e+02
    1.5760035706e+02    2.2074395752e+02
    1.5770016479e+02    2.2061300659e+02
    1.5779995728e+02    2.2048101807e+02
    1.5789971924e+02    2.2034799194e+02
    1.5800018311e+02    2.2021496582e+02
    1.5809986877e+02    2.2008300781e+02
    1.5820013428e+02    2.1994900513e+02
    1.5830044556e+02    2.1981399536e+02
    1.5839988708e+02    2.1967999268e+02
    1.5850000000e+02    2.1954501343e+02
    1.5860021973e+02    2.1940899658e+02
    1.5870045471e+02    2.1927401733e+02
    1.5879995728e+02    2.1913900757e+02
    1.5890005493e+02    2.1900201416e+02
    1.5900018311e+02    2.1886602783e+02
    1.5910032654e+02    2.1872799683e+02
    1.5920010376e+02    2.1859100342e+02
    1.5930018616e+02    2.1845303345e+02
    1.5939996338e+02    2.1831597900e+02
    1.5950044250e+02    2.1817599487e+02
    1.5960008240e+02    2.1803802490e+02
    1.5969981384e+02    2.1789898682e+02
    1.5980052185e+02    2.1775897217e+02
    1.5990046692e+02    2.1761901855e+02
    1.6000032043e+02    2.1747900391e+02
    1.6009983826e+02    2.1733898926e+02
    1.6020010376e+02    2.1719799805e+02
    1.6029995728e+02    2.1705700684e+02
    1.6040031433e+02    2.1691601562e+02
    1.6050001526e+02    2.1677496338e+02
    1.6060009766e+02    2.1663397217e+02
    1.6070030212e+02    2.1649102783e+02
    1.6080047607e+02    2.1634899902e+02
    1.6089999390e+02    2.1620697021e+02
    1.6100010681e+02    2.1606402588e+02
    1.6110049438e+02    2.1592095947e+02
    1.6119999695e+02    2.1577899170e+02
    1.6130006409e+02    2.1563494873e+02
    1.6140020752e+02    2.1549298096e+02
    1.6150010681e+02    2.1534899902e+02
    1.6160044861e+02    2.1520501709e+02
    1.6170036316e+02    2.1506201172e+02
    1.6180000305e+02    2.1491900635e+02
    1.6190020752e+02    2.1477496338e+02
    1.6200059509e+02    2.1463104248e+02
    1.6210009766e+02    2.1448797607e+02
    1.6220033264e+02    2.1434399414e+02
    1.6230026245e+02    2.1420001221e+02
    1.6240016174e+02    2.1405700684e+02
    1.6250039673e+02    2.1391198730e+02
    1.6260049438e+02    2.1376800537e+02
    1.6270051575e+02    2.1362500000e+02
    1.6280009460e+02    2.1348199463e+02
    1.6290036011e+02    2.1333697510e+02
    1.6300067139e+02    2.1319403076e+02
    1.6310046387e+02    2.1304998779e+02
    1.6320060730e+02    2.1290698242e+02
    1.6330068970e+02    2.1276300049e+02
    1.6340060425e+02    2.1261999512e+02
    1.6350022888e+02    2.1247698975e+02
    1.6360043335e+02    2.1233398438e+02
    1.6370057678e+02    2.1219097900e+02
    1.6380027771e+02    2.1204998779e+02
    1.6390042114e+02    2.1190698242e+02
    1.6400050354e+02    2.1176501465e+02
    1.6410063171e+02    2.1162298584e+02
    1.6420051575e+02    2.1148199463e+02
    1.6430064392e+02    2.1134197998e+02
    1.6440040588e+02    2.1120001221e+02
    1.6450032043e+02    2.1106097412e+02
    1.6460075378e+02    2.1092004395e+02
    1.6470025635e+02    2.1078204346e+02
    1.6480085754e+02    2.1064099121e+02
    1.6490045166e+02    2.1050299072e+02
    1.6500076294e+02    2.1036401367e+02
    1.6510075378e+02    2.1022601318e+02
    1.6520033264e+02    2.1008898926e+02
    1.6530078125e+02    2.0995098877e+02
    1.6540075684e+02    2.0981500244e+02
    1.6550059509e+02    2.0967999268e+02
    1.6560087585e+02    2.0954400635e+02
    1.6570039368e+02    2.0941003418e+02
    1.6580020142e+02    2.0927600098e+02
    1.6590025330e+02    2.0914202881e+02
    1.6600065613e+02    2.0900897217e+02
    1.6610038757e+02    2.0887701416e+02
    1.6620092773e+02    2.0874499512e+02
    1.6630027771e+02    2.0861499023e+02
    1.6640031433e+02    2.0848602295e+02
    1.6650032043e+02    2.0835699463e+02
    1.6660067749e+02    2.0822802734e+02
    1.6670048523e+02    2.0810101318e+02
    1.6680085754e+02    2.0797497559e+02
    1.6690049744e+02    2.0784899902e+02
    1.6700088501e+02    2.0772503662e+02
    1.6710093689e+02    2.0760101318e+02
    1.6720075989e+02    2.0747802734e+02
    1.6730068970e+02    2.0735699463e+02
    1.6740060425e+02    2.0723498535e+02
    1.6750085449e+02    2.0711602783e+02
    1.6760044861e+02    2.0699798584e+02
    1.6770069885e+02    2.0687896729e+02
    1.6780032349e+02    2.0676300049e+02
    1.6790058899e+02    2.0664801025e+02
    1.6800033569e+02    2.0653295898e+02
    1.6810072327e+02    2.0641900635e+02
    1.6820048523e+02    2.0630596924e+02
    1.6830053711e+02    2.0619396973e+02
    1.6840081787e+02    2.0608404541e+02
    1.6850044250e+02    2.0597497559e+02
    1.6860084534e+02    2.0586602783e+02
    1.6870086670e+02    2.0575799561e+02
    1.6880070496e+02    2.0565197754e+02
    1.6890065002e+02    2.0554705811e+02
    1.6900047302e+02    2.0544396973e+02
    1.6910060120e+02    2.0534100342e+02
    1.6920109558e+02    2.0523901367e+02
    1.6930081177e+02    2.0513800049e+02
    1.6940092468e+02    2.0503900146e+02
    1.6950067139e+02    2.0494097900e+02
    1.6960041809e+02    2.0484405518e+02
    1.6970054626e+02    2.0474700928e+02
    1.6980088806e+02    2.0465301514e+02
    1.6990049744e+02    2.0455902100e+02
    1.7000071716e+02    2.0446697998e+02
    1.7010079956e+02    2.0437695312e+02
    1.7020091248e+02    2.0428802490e+02
    1.7030056763e+02    2.0420001221e+02
    1.7040107727e+02    2.0411199951e+02
    1.7050120544e+02    2.0402600098e+02
    1.7060101318e+02    2.0394305420e+02
    1.7070065308e+02    2.0385998535e+02
    1.7080068970e+02    2.0377801514e+02
    1.7090081787e+02    2.0369799805e+02
    1.7100096130e+02    2.0361901855e+02
    1.7110054016e+02    2.0354199219e+02
    1.7120091248e+02    2.0346502686e+02
    1.7130114746e+02    2.0339105225e+02
    1.7140115356e+02    2.0331701660e+02
    1.7150120544e+02    2.0324401855e+02
    1.7160078430e+02    2.0317498779e+02
    1.7170094299e+02    2.0310498047e+02
    1.7180094910e+02    2.0303802490e+02
    1.7190065002e+02    2.0297100830e+02
    1.7200073242e+02    2.0290600586e+02
    1.7210090637e+02    2.0284301758e+02
    1.7220123291e+02    2.0278002930e+02
    1.7230088806e+02    2.0271997070e+02
    1.7240121460e+02    2.0265997314e+02
    1.7250129700e+02    2.0260198975e+02
    1.7260125732e+02    2.0254602051e+02
    1.7270074463e+02    2.0249194336e+02
    1.7280105591e+02    2.0243902588e+02
    1.7290113831e+02    2.0238702393e+02
    1.7300123596e+02    2.0233801270e+02
    1.7310125732e+02    2.0228900146e+02
    1.7320112610e+02    2.0224304199e+02
    1.7330062866e+02    2.0219799805e+02
    1.7340078735e+02    2.0215496826e+02
    1.7350129700e+02    2.0211401367e+02
    1.7360098267e+02    2.0207501221e+02
    1.7370132446e+02    2.0203698730e+02
    1.7380079651e+02    2.0200201416e+02
    1.7390110779e+02    2.0196801758e+02
    1.7400100708e+02    2.0193499756e+02
    1.7410136414e+02    2.0190399170e+02
    1.7420108032e+02    2.0187402344e+02
    1.7430137634e+02    2.0184600830e+02
    1.7440136719e+02    2.0181896973e+02
    1.7450111389e+02    2.0179400635e+02
    1.7460098267e+02    2.0177001953e+02
    1.7470103455e+02    2.0174804688e+02
    1.7480108643e+02    2.0172698975e+02
    1.7490080261e+02    2.0170800781e+02
    1.7500125122e+02    2.0169000244e+02
    1.7510084534e+02    2.0167401123e+02
    1.7520114136e+02    2.0165899658e+02
    1.7530096436e+02    2.0164495850e+02
    1.7540141296e+02    2.0163299561e+02
    1.7550126648e+02    2.0162200928e+02
    1.7560098267e+02    2.0161303711e+02
    1.7570133972e+02    2.0160498047e+02
    1.7580134583e+02    2.0159899902e+02
    1.7590150452e+02    2.0159399414e+02
    1.7600137329e+02    2.0158996582e+02
    1.7610144043e+02    2.0158697510e+02
    1.7620147705e+02    2.0158599854e+02
    1.7630104065e+02    2.0158703613e+02
    1.7640124512e+02    2.0158801270e+02
    1.7650154114e+02    2.0159100342e+02
    1.7660107422e+02    2.0159399414e+02
    1.7670132446e+02    2.0160296631e+02
    1.7680126953e+02    2.0160198975e+02
    1.7690101624e+02    2.0161505127e+02
    1.7700143433e+02    2.0161700439e+02
    1.7710098267e+02    2.0163500977e+02
    1.7720158386e+02    2.0164599609e+02
    1.7730104065e+02    2.0165698242e+02
    1.7740148926e+02    2.0167095947e+02
    1.7750126648e+02    2.0167797852e+02
    1.7760148621e+02    2.0169799805e+02
    1.7770109558e+02    2.0170794678e+02
    1.7780140686e+02    2.0172802734e+02
    1.7790118408e+02    2.0174597168e+02
    1.7800096130e+02    2.0176599121e+02
    1.7810113525e+02    2.0178894043e+02
    1.7820112610e+02    2.0180499268e+02
    1.7830134583e+02    2.0182800293e+02
    1.7840167236e+02    2.0184991455e+02
    1.7850123596e+02    2.0187493896e+02
    1.7860136414e+02    2.0190100098e+02
    1.7870147705e+02    2.0192803955e+02
    1.7880119324e+02    2.0195007324e+02
    1.7890168762e+02    2.0197094727e+02
    1.7900169373e+02    2.0200000000e+02
    1.7910133362e+02    2.0202502441e+02
    1.7920137024e+02    2.0205291748e+02
    1.7930120850e+02    2.0208496094e+02
    1.7940133667e+02    2.0211303711e+02
    1.7950115967e+02    2.0214501953e+02
    1.7960136414e+02    2.0216998291e+02
    1.7970118713e+02    2.0220300293e+02
    1.7980157471e+02    2.0223504639e+02
    1.7990109253e+02    2.0226208496e+02
    1.8000146484e+02    2.0229498291e+02
    1.8010174561e+02    2.0231903076e+02
    1.8020117188e+02    2.0235705566e+02
    1.8030130005e+02    2.0238293457e+02
    1.8040176392e+02    2.0241302490e+02
    1.8050114441e+02    2.0245104980e+02
    1.8060108948e+02    2.0247894287e+02
    1.8070152283e+02    2.0250897217e+02
    1.8080171204e+02    2.0254205322e+02
    1.8090148926e+02    2.0257092285e+02
    1.8100154114e+02    2.0260601807e+02
    1.8110171509e+02    2.0263806152e+02
    1.8120132446e+02    2.0266894531e+02
    1.8130154419e+02    2.0269897461e+02
    1.8140155029e+02    2.0273205566e+02
    1.8150129700e+02    2.0275897217e+02
    1.8160121155e+02    2.0279199219e+02
    1.8170150757e+02    2.0281903076e+02
    1.8180130005e+02    2.0285296631e+02
    1.8190156555e+02    2.0287799072e+02
    1.8200187683e+02    2.0291204834e+02
    1.8210130310e+02    2.0293994141e+02
    1.8220132446e+02    2.0296704102e+02
    1.8230139160e+02    2.0300292969e+02
    1.8240132141e+02    2.0302996826e+02
    1.8250129700e+02    2.0305505371e+02
    1.8260139465e+02    2.0307794189e+02
    1.8270182800e+02    2.0310400391e+02
    1.8280131531e+02    2.0313507080e+02
    1.8290150452e+02    2.0316296387e+02
    1.8300166321e+02    2.0318103027e+02
    1.8310177612e+02    2.0320794678e+02
    1.8320193481e+02    2.0323400879e+02
    1.8330145264e+02    2.0326007080e+02
    1.8340155029e+02    2.0328497314e+02
    1.8350178528e+02    2.0330706787e+02
    1.8360183716e+02    2.0332995605e+02
    1.8370199585e+02    2.0335101318e+02
    1.8380137634e+02    2.0336395264e+02
    1.8390188599e+02    2.0338702393e+02
    1.8400143433e+02    2.0340502930e+02
    1.8410165405e+02    2.0343096924e+02
    1.8420162964e+02    2.0344903564e+02
    1.8430183411e+02    2.0346295166e+02
    1.8440173340e+02    2.0348101807e+02
    1.8450172424e+02    2.0349597168e+02
    1.8460185242e+02    2.0351800537e+02
    1.8470205688e+02    2.0353698730e+02
    1.8480157471e+02    2.0354699707e+02
    1.8490164185e+02    2.0356695557e+02
    1.8500201416e+02    2.0358001709e+02
    1.8510145569e+02    2.0358807373e+02
    1.8520176697e+02    2.0359997559e+02
    1.8530145264e+02    2.0361206055e+02
    1.8540156555e+02    2.0362500000e+02
    1.8550141907e+02    2.0364202881e+02
    1.8560156250e+02    2.0365197754e+02
    1.8570210266e+02    2.0365496826e+02
    1.8580177307e+02    2.0367102051e+02
    1.8590199280e+02    2.0367596436e+02
    1.8600187683e+02    2.0367700195e+02
    1.8610154724e+02    2.0368896484e+02
    1.8620187378e+02    2.0370001221e+02
    1.8630163574e+02    2.0369793701e+02
    1.8640202332e+02    2.0370599365e+02
    1.8650170898e+02    2.0371295166e+02
    1.8660214233e+02    2.0371704102e+02
    1.8670207214e+02    2.0371899414e+02
    1.8680184937e+02    2.0372106934e+02
    1.8690165710e+02    2.0372198486e+02
    1.8700221252e+02    2.0371905518e+02
    1.8710208130e+02    2.0372698975e+02
    1.8720199585e+02    2.0372296143e+02
    1.8730194092e+02    2.0371697998e+02
    1.8740191650e+02    2.0371893311e+02
    1.8750193787e+02    2.0371905518e+02
    1.8760198975e+02    2.0371697998e+02
    1.8770208740e+02    2.0371405029e+02
    1.8780220032e+02    2.0370800781e+02
    1.8790165710e+02    2.0370294189e+02
    1.8800184631e+02    2.0369403076e+02
    1.8810206604e+02    2.0368194580e+02
    1.8820162964e+02    2.0368103027e+02
    1.8830192566e+02    2.0366601562e+02
    1.8840226746e+02    2.0365893555e+02
    1.8850192261e+02    2.0365301514e+02
    1.8860162354e+02    2.0363397217e+02
    1.8870207214e+02    2.0362207031e+02
    1.8880183411e+02    2.0360998535e+02
    1.8890164185e+02    2.0359997559e+02
    1.8900219727e+02    2.0359002686e+02
    1.8910206604e+02    2.0357000732e+02
    1.8920196533e+02    2.0355993652e+02
    1.8930191040e+02    2.0354003906e+02
    1.8940190125e+02    2.0353002930e+02
    1.8950192261e+02    2.0350994873e+02
    1.8960197449e+02    2.0348004150e+02
    1.8970208740e+02    2.0346997070e+02
    1.8980221558e+02    2.0344995117e+02
    1.8990168762e+02    2.0343005371e+02
    1.9000190735e+02    2.0340997314e+02
    1.9010234070e+02    2.0338995361e+02
    1.9020201111e+02    2.0335998535e+02
    1.9030235291e+02    2.0333996582e+02
    1.9040191650e+02    2.0331994629e+02
    1.9050230408e+02    2.0329003906e+02
    1.9060203552e+02    2.0327001953e+02
    1.9070176697e+02    2.0325000000e+02
    1.9080224609e+02    2.0321997070e+02
    1.9090202332e+02    2.0319006348e+02
    1.9100183105e+02    2.0317004395e+02
    1.9110237122e+02    2.0314001465e+02
    1.9120222473e+02    2.0311010742e+02
    1.9130209351e+02    2.0308007812e+02
    1.9140199280e+02    2.0305004883e+02
    1.9150190735e+02    2.0301989746e+02
    1.9160185242e+02    2.0298999023e+02
    1.9170181274e+02    2.0295996094e+02
    1.9180195618e+02    2.0292993164e+02
    1.9190196228e+02    2.0289990234e+02
    1.9200201416e+02    2.0286999512e+02
    1.9210206604e+02    2.0283007812e+02
    1.9220216370e+02    2.0280004883e+02
    1.9230226135e+02    2.0277001953e+02
    1.9240237427e+02    2.0272998047e+02
    1.9250251770e+02    2.0269006348e+02
    1.9260195923e+02    2.0267004395e+02
    1.9270213318e+02    2.0263000488e+02
    1.9280232239e+02    2.0258996582e+02
    1.9290255737e+02    2.0256005859e+02
    1.9300207520e+02    2.0252001953e+02
    1.9310232544e+02    2.0247998047e+02
    1.9320187378e+02    2.0244995117e+02
    1.9330218506e+02    2.0240991211e+02
    1.9340249634e+02    2.0236999512e+02
    1.9350213623e+02    2.0233007812e+02
    1.9360250854e+02    2.0230004883e+02
    1.9370219421e+02    2.0226000977e+02
    1.9380262756e+02    2.0221997070e+02
    1.9390235901e+02    2.0217993164e+02
    1.9400212097e+02    2.0214001465e+02
    1.9410191345e+02    2.0209997559e+02
    1.9420248413e+02    2.0206005859e+02
    1.9430235291e+02    2.0202001953e+02
    1.9440228271e+02    2.0197998047e+02
    1.9450222778e+02    2.0192993164e+02
    1.9460223389e+02    2.0190002441e+02
    1.9470227051e+02    2.0185998535e+02
    1.9480235291e+02    2.0181005859e+02
    1.9490249634e+02    2.0177001953e+02
    1.9500195312e+02    2.0171997070e+02
    1.9510221863e+02    2.0167993164e+02
    1.9520252991e+02    2.0164001465e+02
    1.9530218506e+02    2.0159008789e+02
    1.9540260315e+02    2.0155004883e+02
    1.9550236511e+02    2.0150000000e+02
    1.9560220337e+02    2.0144995117e+02
    1.9570207214e+02    2.0141003418e+02
    1.9580201721e+02    2.0135998535e+02
    1.9590274048e+02    2.0130993652e+02
    1.9600205994e+02    2.0127001953e+02
    1.9610215759e+02    2.0121997070e+02
    1.9620231628e+02    2.0116992188e+02
    1.9630253601e+02    2.0111999512e+02
    1.9640206909e+02    2.0107006836e+02
    1.9650241089e+02    2.0102001953e+02
    1.9660206604e+02    2.0096997070e+02
    1.9670254517e+02    2.0092004395e+02
    1.9680232239e+02    2.0086999512e+02
    1.9690220642e+02    2.0081994629e+02
    1.9700213623e+02    2.0076000977e+02
    1.9710215759e+02    2.0070996094e+02
    1.9720222473e+02    2.0066003418e+02
    1.9730238342e+02    2.0059997559e+02
    1.9740260315e+02    2.0054992676e+02
    1.9750216675e+02    2.0050000000e+02
    1.9760252380e+02    2.0043994141e+02
    1.9770220947e+02    2.0038989258e+02
    1.9780270386e+02    2.0032995605e+02
    1.9790252686e+02    2.0027001953e+02
    1.9800242615e+02    2.0021008301e+02
    1.9810238647e+02    2.0015002441e+02
    1.9820240784e+02    2.0009008789e+02
    1.9830250549e+02    2.0003002930e+02
    1.9840266418e+02    1.9997009277e+02
    1.9850216675e+02    1.9991003418e+02
    1.9860247803e+02    1.9985009766e+02
    1.9870286560e+02    1.9979003906e+02
    1.9880258179e+02    1.9972009277e+02
    1.9890237427e+02    1.9966003418e+02
    1.9900221252e+02    1.9959008789e+02
    1.9910290527e+02    1.9953002930e+02
    1.9920289612e+02    1.9947009277e+02
    1.9930221558e+02    1.9940002441e+02
    1.9940234375e+02    1.9933007812e+02
    1.9950253296e+02    1.9927001953e+02
    1.9960281372e+02    1.9919006348e+02
    1.9970239258e+02    1.9913000488e+02
    1.9980279541e+02    1.9906005859e+02
    1.9990251160e+02    1.9899011230e+02
endcurve
