Curveplot
LS-DYNA keyword deck by LS-PrePost
Time
Y-rot-displacement
Node Ids
310000  #pts=2000
* Minval=    -3.5910999174e-10 at time=         5.4989404678
* Maxval=     2.3522500992e+00 at time=       176.7013244629
    0.0000000000e+00    0.0000000000e+00
    9.9515393376e-02    0.0000000000e+00
    1.9903078675e-01    0.0000000000e+00
    2.9854616523e-01    0.0000000000e+00
    3.9919695258e-01    0.0000000000e+00
    4.9998536706e-01    0.0000000000e+00
    5.9916532040e-01    0.0000000000e+00
    6.9868075848e-01    0.0000000000e+00
    7.9972714186e-01    0.0000000000e+00
    8.9924252033e-01    0.0000000000e+00
    9.9875795841e-01    0.0000000000e+00
    1.0998042822e+00    0.0000000000e+00
    1.1993197203e+00    0.0000000000e+00
    1.2988351583e+00    0.0000000000e+00
    1.3998814821e+00    0.0000000000e+00
    1.4993969202e+00    8.4576104788e-25
    1.5989123583e+00    7.6901198155e-24
    1.6999586821e+00    4.3530098901e-23
    1.7994741201e+00    5.5941598787e-21
    1.8989895582e+00    1.2661699958e-17
    1.9987715483e+00    1.1969300334e-12
    2.0997836590e+00    1.1819099865e-10
    2.1987915039e+00    3.2476299427e-10
    2.2992186546e+00    4.2386899546e-10
    2.3984160423e+00    5.0783199868e-10
    2.4986541271e+00    6.2655197697e-10
    2.5992875099e+00    7.9107997930e-10
    2.6992416382e+00    9.8153696282e-10
    2.7999699116e+00    1.2142199468e-09
    2.8991670609e+00    1.4117900182e-09
    2.9999897480e+00    1.5856099767e-09
    3.0990922451e+00    1.7979000511e-09
    3.1985731125e+00    2.0494099751e-09
    3.2984328270e+00    2.3430599683e-09
    3.3992559910e+00    2.6814599430e-09
    3.4990212917e+00    3.0114399863e-09
    3.5985026360e+00    3.3098099816e-09
    3.6992311478e+00    3.5730800541e-09
    3.7998652458e+00    3.7990202095e-09
    3.8988740444e+00    4.0438798976e-09
    3.9990353584e+00    4.2647001486e-09
    4.0985174179e+00    4.4331001092e-09
    4.1999258995e+00    4.4928998300e-09
    4.2999753952e+00    4.4475498839e-09
    4.3995518684e+00    4.2994798832e-09
    4.4986557961e+00    4.0814400748e-09
    4.5997633934e+00    3.7790801599e-09
    4.6992454529e+00    3.4097000778e-09
    4.7986330986e+00    2.9780500288e-09
    4.8989844322e+00    2.4187800651e-09
    4.9990515709e+00    1.7687400433e-09
    5.0992908478e+00    1.1265000044e-09
    5.1989626884e+00    5.1678400448e-10
    5.2987284660e+00    2.7618799608e-11
    5.3996472359e+00   -2.5835200645e-10
    5.4989404678e+00   -3.5910999174e-10
    5.5998592377e+00   -2.2971499702e-10
    5.6996421814e+00    9.7112200226e-11
    5.7985396385e+00    6.6724298309e-10
    5.8993639946e+00    1.5613199622e-09
    5.9997148514e+00    2.9214199948e-09
    6.0993862152e+00    4.8408601572e-09
    6.1994366646e+00    7.3433801262e-09
    6.2985405922e+00    1.0398499839e-08
    6.3990807533e+00    1.4184400321e-08
    6.4991307259e+00    1.8771400434e-08
    6.5986304283e+00    2.4286700651e-08
    6.6988697052e+00    3.1039899540e-08
    6.7985410690e+00    3.9109000483e-08
    6.8990817070e+00    4.8596600521e-08
    6.9992432594e+00    5.9520100848e-08
    7.0990095139e+00    7.1943397018e-08
    7.1990590096e+00    8.5991899823e-08
    7.2999773026e+00    1.0190800026e-07
    7.3987021446e+00    1.1933700250e-07
    7.4998097420e+00    1.3916300645e-07
    7.5993862152e+00    1.6076499776e-07
    7.6986780167e+00    1.8438099403e-07
    7.7997856140e+00    2.1068399292e-07
    7.8989834785e+00    2.3878899924e-07
    7.9985599518e+00    2.6942998943e-07
    8.0992889404e+00    3.0305798759e-07
    8.1986761093e+00    3.3898800211e-07
    8.2988376617e+00    3.7814601228e-07
    8.3997554779e+00    4.2059400585e-07
    8.4995212555e+00    4.6560700184e-07
    8.5999670029e+00    5.1402497547e-07
    8.6998271942e+00    5.6534599935e-07
    8.7996873856e+00    6.1999901391e-07
    8.8994703293e+00    6.7805598292e-07
    8.9987630844e+00    7.3942499057e-07
    9.0990009308e+00    8.0512097611e-07
    9.1986722946e+00    8.7424399453e-07
    9.2994966507e+00    9.4806301831e-07
    9.3985052109e+00    1.0244899613e-06
    9.4999904633e+00    1.1069399761e-06
    9.5994729996e+00    1.1918799601e-06
    9.6989545822e+00    1.2810199905e-06
    9.7997779846e+00    1.3757700117e-06
    9.8986930847e+00    1.4730100020e-06
    9.9994220734e+00    1.5764500176e-06
    1.0099582672e+01    1.6837300336e-06
    1.0198969841e+01    1.7946699700e-06
    1.0299414635e+01    1.9115000214e-06
    1.0398991585e+01    2.0321199372e-06
    1.0499041557e+01    2.1582600311e-06
    1.0599014282e+01    2.2894400900e-06
    1.0698495865e+01    2.4251698960e-06
    1.0799792290e+01    2.5687199923e-06
    1.0899180412e+01    2.7148100799e-06
    1.0999530792e+01    2.8676900001e-06
    1.1099390984e+01    3.0253099794e-06
    1.1199252129e+01    3.1883901102e-06
    1.1298733711e+01    3.3564899695e-06
    1.1399935722e+01    3.5334101085e-06
    1.1498945236e+01    3.7123199945e-06
    1.1598805428e+01    3.8986800064e-06
    1.1698571205e+01    4.0909098971e-06
    1.1799016953e+01    4.2907499846e-06
    1.1898688316e+01    4.4953999350e-06
    1.1998643875e+01    4.7071198424e-06
    1.2098995209e+01    4.9263699111e-06
    1.2199251175e+01    5.1521601563e-06
    1.2299867630e+01    5.3856501836e-06
    1.2399635315e+01    5.6241701714e-06
    1.2498832703e+01    5.8682799136e-06
    1.2599088669e+01    6.1220398493e-06
    1.2699611664e+01    6.3836100708e-06
    1.2798906326e+01    6.6490301833e-06
    1.2899145126e+01    6.9243001235e-06
    1.2998533249e+01    7.2046000241e-06
    1.3099167824e+01    7.4960298662e-06
    1.3198857307e+01    7.7924996731e-06
    1.3299491882e+01    8.0996796896e-06
    1.3398673058e+01    8.4103303379e-06
    1.3499291420e+01    8.7334901764e-06
    1.3598773003e+01    9.0610101324e-06
    1.3698634148e+01    9.3978997029e-06
    1.3799268723e+01    9.7457996162e-06
    1.3899998665e+01    1.0102699889e-05
    1.3999101639e+01    1.0462499631e-05
    1.4099246979e+01    1.0834900422e-05
    1.4199881554e+01    1.1218199688e-05
    1.4298986435e+01    1.1604400243e-05
    1.4399998665e+01    1.2007199985e-05
    1.4499386787e+01    1.2412599972e-05
    1.4599926949e+01    1.2832199900e-05
    1.4698746681e+01    1.3254300029e-05
    1.4798418999e+01    1.3689599655e-05
    1.4899717331e+01    1.4142199689e-05
    1.4999690056e+01    1.4598899725e-05
    1.5098698616e+01    1.5061000340e-05
    1.5199808121e+01    1.5543200789e-05
    1.5298722267e+01    1.6025200239e-05
    1.5399736404e+01    1.6528299966e-05
    1.5499786377e+01    1.7037700673e-05
    1.5598494530e+01    1.7551099518e-05
    1.5699130058e+01    1.8085900592e-05
    1.5799481392e+01    1.8630900740e-05
    1.5899341583e+01    1.9184799385e-05
    1.5999202728e+01    1.9750599677e-05
    1.6098873138e+01    2.0327399398e-05
    1.6199869156e+01    2.0924300770e-05
    1.6298784256e+01    2.1521400413e-05
    1.6399703979e+01    2.2143500246e-05
    1.6498901367e+01    2.2767899281e-05
    1.6599630356e+01    2.3414899260e-05
    1.6699113846e+01    2.4066999686e-05
    1.6798973083e+01    2.4734699764e-05
    1.6898473740e+01    2.5413599360e-05
    1.6999675751e+01    2.6118199457e-05
    1.7099836349e+01    2.6829900889e-05
    1.7199035645e+01    2.7549000151e-05
    1.7298894882e+01    2.8287400710e-05
    1.7399719238e+01    2.9047800126e-05
    1.7498538971e+01    2.9807799365e-05
    1.7599552155e+01    3.0599898309e-05
    1.7698938370e+01    3.1394898542e-05
    1.7799478531e+01    3.2214898965e-05
    1.7898771286e+01    3.3040600101e-05
    1.7998743057e+01    3.3888001781e-05
    1.8098791122e+01    3.4752400097e-05
    1.8199710846e+01    3.5640900023e-05
    1.8299190521e+01    3.6533499951e-05
    1.8399919510e+01    3.7454399717e-05
    1.8499591827e+01    3.8382899220e-05
    1.8599260330e+01    3.9328700950e-05
    1.8698553085e+01    4.0288199671e-05
    1.8799566269e+01    4.1282401071e-05
    1.8898859024e+01    4.2277501052e-05
    1.8999588013e+01    4.3305200961e-05
    1.9099353790e+01    4.4341599278e-05
    1.9199970245e+01    4.5405598939e-05
    1.9299640656e+01    4.6478300646e-05
    1.9399122238e+01    4.7567598813e-05
    1.9498510361e+01    4.8674799473e-05
    1.9598955154e+01    4.9813199439e-05
    1.9698722839e+01    5.0963401009e-05
    1.9798582077e+01    5.2134400903e-05
    1.9899501801e+01    5.3338400903e-05
    1.9999662399e+01    5.4553798691e-05
    2.0099050522e+01    5.5780201365e-05
    2.0199874878e+01    5.7045199355e-05
    2.0299072266e+01    5.8310401073e-05
    2.0398460388e+01    5.9598700318e-05
    2.0499473572e+01    6.0929498432e-05
    2.0599523544e+01    6.2269202317e-05
    2.0698909760e+01    6.3621300797e-05
    2.0799734116e+01    6.5015003202e-05
    2.0898649216e+01    6.6403903475e-05
    2.0999851227e+01    6.7847300670e-05
    2.1099428177e+01    6.9289701059e-05
    2.1199968338e+01    7.0768503065e-05
    2.1299072266e+01    7.2248600191e-05
    2.1399801254e+01    7.3776202044e-05
    2.1498809814e+01    7.5300500612e-05
    2.1599916458e+01    7.6880700362e-05
    2.1699588776e+01    7.8461896919e-05
    2.1798879623e+01    8.0060301116e-05
    2.1898551941e+01    8.1688296632e-05
    2.1998712540e+01    8.3348197222e-05
    2.2099534988e+01    8.5043298895e-05
    2.2199394226e+01    8.6746600573e-05
    2.2298591614e+01    8.8462802523e-05
    2.2399604797e+01    9.0235400421e-05
    2.2499671936e+01    9.2016598501e-05
    2.2598567963e+01    9.3801900221e-05
    2.2698917389e+01    9.5638803032e-05
    2.2799835205e+01    9.7511896456e-05
    2.2898939133e+01    9.9376899016e-05
    2.2999288559e+01    1.0129099974e-04
    2.3098676682e+01    1.0321300215e-04
    2.3199403763e+01    1.0518800264e-04
    2.3298980713e+01    1.0716600082e-04
    2.3399803162e+01    1.0919699707e-04
    2.3498905182e+01    1.1121999705e-04
    2.3599067688e+01    1.1329200061e-04
    2.3698453903e+01    1.1537499813e-04
    2.3799560547e+01    1.1752299906e-04
    2.3899797440e+01    1.1968099716e-04
    2.3998994827e+01    1.2184400111e-04
    2.4099439621e+01    1.2406399765e-04
    2.4198825836e+01    1.2628900004e-04
    2.4299837112e+01    1.2857900583e-04
    2.4399713516e+01    1.3087400293e-04
    2.4499780655e+01    1.3320299331e-04
    2.4599828720e+01    1.3556100021e-04
    2.4699403763e+01    1.3793799735e-04
    2.4799470901e+01    1.4035700588e-04
    2.4899913788e+01    1.4281600306e-04
    2.4998714447e+01    1.4526500308e-04
    2.5099727631e+01    1.4780099445e-04
    2.5199869156e+01    1.5034699754e-04
    2.5298593521e+01    1.5288799477e-04
    2.5398847580e+01    1.5550000535e-04
    2.5499101639e+01    1.5814500512e-04
    2.5598770142e+01    1.6080700152e-04
    2.5699592590e+01    1.6353299725e-04
    2.5799072266e+01    1.6625500575e-04
    2.5899423599e+01    1.6903500364e-04
    2.5999961853e+01    1.7185400066e-04
    2.6099536896e+01    1.7468100123e-04
    2.6199489594e+01    1.7755200679e-04
    2.6298969269e+01    1.8044300668e-04
    2.6398544312e+01    1.8337200163e-04
    2.6499082565e+01    1.8636400637e-04
    2.6598941803e+01    1.8937200366e-04
    2.6699100494e+01    1.9242400595e-04
    2.6799337387e+01    1.9551499281e-04
    2.6898817062e+01    1.9861900364e-04
    2.6999450684e+01    2.0179500279e-04
    2.7098741531e+01    2.0496500656e-04
    2.7199373245e+01    2.0821600629e-04
    2.7298759460e+01    2.1146300423e-04
    2.7399581909e+01    2.1479499992e-04
    2.7499628067e+01    2.1814000502e-04
    2.7598823547e+01    2.2149400320e-04
    2.7698587418e+01    2.2490600531e-04
    2.7799692154e+01    2.2840300517e-04
    2.7899946213e+01    2.3191000219e-04
    2.7999805450e+01    2.3544199939e-04
    2.8099189758e+01    2.3899700318e-04
    2.8198669434e+01    2.4259499332e-04
    2.8298830032e+01    2.4625798687e-04
    2.8398799896e+01    2.4995399872e-04
    2.8499620438e+01    2.5372201344e-04
    2.8599384308e+01    2.5749299675e-04
    2.8699241638e+01    2.6130699553e-04
    2.8800064087e+01    2.6520100073e-04
    2.8898485184e+01    2.6904398692e-04
    2.8999307632e+01    2.7302198578e-04
    2.9099559784e+01    2.7702099760e-04
    2.9198755264e+01    2.8101899079e-04
    2.9298612595e+01    2.8508799733e-04
    2.9399623871e+01    2.8924699291e-04
    2.9498723984e+01    2.9336998705e-04
    2.9599639893e+01    2.9761300539e-04
    2.9698928833e+01    3.0183099443e-04
    2.9799938202e+01    3.0616699951e-04
    2.9898851395e+01    3.1045699143e-04
    2.9999860764e+01    3.1488400418e-04
    3.0099245071e+01    3.1928298995e-04
    3.0198818207e+01    3.2373599242e-04
    3.0299165726e+01    3.2826900133e-04
    3.0399419785e+01    3.3284298843e-04
    3.0498897552e+01    3.3742698724e-04
    3.0599813461e+01    3.4212399623e-04
    3.0699970245e+01    3.4683299600e-04
    3.0799070358e+01    3.5153698991e-04
    3.0899986267e+01    3.5637398832e-04
    3.0999954224e+01    3.6121299490e-04
    3.1098566055e+01    3.6603299668e-04
    3.1199972153e+01    3.7103699287e-04
    3.1300018311e+01    3.7602201337e-04
    3.1398740768e+01    3.8098799996e-04
    3.1499656677e+01    3.8611300988e-04
    3.1598850250e+01    3.9119899157e-04
    3.1699180603e+01    3.9639099850e-04
    3.1798566818e+01    4.0158300544e-04
    3.1899387360e+01    4.0689899470e-04
    3.1999338150e+01    4.1221900028e-04
    3.2099006653e+01    4.1757299914e-04
    3.2198581696e+01    4.2297100299e-04
    3.2299400330e+01    4.2848699377e-04
    3.2399749756e+01    4.3402801384e-04
    3.2498928070e+01    4.3955398723e-04
    3.2599273682e+01    4.4519599760e-04
    3.2698657990e+01    4.5083501027e-04
    3.2799385071e+01    4.5660199248e-04
    3.2900016785e+01    4.6241498785e-04
    3.2998546600e+01    4.6815798851e-04
    3.3099838257e+01    4.7411498963e-04
    3.3198562622e+01    4.7997300862e-04
    3.3299758911e+01    4.8603100004e-04
    3.3398670197e+01    4.9200502690e-04
    3.3498638153e+01    4.9809599295e-04
    3.3599079132e+01    5.0426897360e-04
    3.3698951721e+01    5.1046197768e-04
    3.3798431396e+01    5.1668402739e-04
    3.3899627686e+01    5.2306900034e-04
    3.3998821259e+01    5.2938202862e-04
    3.4099548340e+01    5.3584697889e-04
    3.4198932648e+01    5.4228201043e-04
    3.4299560547e+01    5.4885400459e-04
    3.4398563385e+01    5.5537500884e-04
    3.4499668121e+01    5.6209100876e-04
    3.4599334717e+01    5.6876800954e-04
    3.4699398041e+01    5.7552801445e-04
    3.4798496246e+01    5.8227998670e-04
    3.4898841858e+01    5.8917497518e-04
    3.4999565125e+01    5.9615401551e-04
    3.5099231720e+01    6.0311902780e-04
    3.5198425293e+01    6.1010901118e-04
    3.5299053192e+01    6.1725801788e-04
    3.5398719788e+01    6.2439899193e-04
    3.5499538422e+01    6.3168199267e-04
    3.5599014282e+01    6.3892797334e-04
    3.5699077606e+01    6.4627599204e-04
    3.5799800873e+01    6.5373501275e-04
    3.5898616791e+01    6.6111201886e-04
    3.5999435425e+01    6.6870002775e-04
    3.6099006653e+01    6.7625602242e-04
    3.6199161530e+01    6.8391801324e-04
    3.6299301147e+01    6.9164199522e-04
    3.6399154663e+01    6.9940602407e-04
    3.6499691010e+01    7.0728600258e-04
    3.6599826813e+01    7.1519898484e-04
    3.6698833466e+01    7.2308600647e-04
    3.6799461365e+01    7.3116598651e-04
    3.6899993896e+01    7.3930498911e-04
    3.6999942780e+01    7.4746098835e-04
    3.7099327087e+01    7.5563497376e-04
    3.7199275970e+01    7.6392298797e-04
    3.7298751831e+01    7.7223702101e-04
    3.7399192810e+01    7.8069901792e-04
    3.7499252319e+01    7.8919599764e-04
    3.7599407196e+01    7.9776899656e-04
    3.7699451447e+01    8.0640101805e-04
    3.7799777985e+01    8.1512698671e-04
    3.7898876190e+01    8.2381302491e-04
    3.7999885559e+01    8.3273701603e-04
    3.8099170685e+01    8.4157899255e-04
    3.8199310303e+01    8.5056701209e-04
    3.8299068451e+01    8.5959100397e-04
    3.8399036407e+01    8.6870498490e-04
    3.8499191284e+01    8.7790802354e-04
    3.8598476410e+01    8.8710297132e-04
    3.8699672699e+01    8.9654902695e-04
    3.8798580170e+01    9.0585299768e-04
    3.8898906708e+01    9.1536401305e-04
    3.8999046326e+01    9.2493201373e-04
    3.9098823547e+01    9.3453901354e-04
    3.9199245453e+01    9.4428402372e-04
    3.9299682617e+01    9.5410598442e-04
    3.9398479462e+01    9.6384302014e-04
    3.9499393463e+01    9.7386399284e-04
    3.9599830627e+01    9.8391703796e-04
    3.9699115753e+01    9.9393003620e-04
    3.9799934387e+01    1.0041800560e-03
    3.9898559570e+01    1.0142800165e-03
    3.9999374390e+01    1.0246799793e-03
    4.0098472595e+01    1.0349800577e-03
    4.0198894501e+01    1.0455100564e-03
    4.0299522400e+01    1.0561300442e-03
    4.0399772644e+01    1.0667999741e-03
    4.0498867035e+01    1.0774199618e-03
    4.0599777222e+01    1.0883200448e-03
    4.0698593140e+01    1.0990699520e-03
    4.0799407959e+01    1.1101299897e-03
    4.0899356842e+01    1.1211700039e-03
    4.0998737335e+01    1.1322300415e-03
    4.1099365234e+01    1.1435199995e-03
    4.1198650360e+01    1.1547399918e-03
    4.1299182892e+01    1.1661800090e-03
    4.1399623871e+01    1.1777100153e-03
    4.1498718262e+01    1.1891600443e-03
    4.1599914551e+01    1.2009399943e-03
    4.1699768066e+01    1.2126599904e-03
    4.1799335480e+01    1.2244300451e-03
    4.1898998260e+01    1.2362899724e-03
    4.1999061584e+01    1.2482999591e-03
    4.2098346710e+01    1.2603000505e-03
    4.2198879242e+01    1.2725399574e-03
    4.2299804688e+01    1.2849200284e-03
    4.2398601532e+01    1.2971300166e-03
    4.2499416351e+01    1.3096899493e-03
    4.2599082947e+01    1.3221900444e-03
    4.2698951721e+01    1.3348100474e-03
    4.2799392700e+01    1.3476000167e-03
    4.2898960114e+01    1.3603699626e-03
    4.2999210358e+01    1.3733300148e-03
    4.3098777771e+01    1.3862899505e-03
    4.3199687958e+01    1.3995299814e-03
    4.3298877716e+01    1.4126399765e-03
    4.3399696350e+01    1.4260599855e-03
    4.3499641418e+01    1.4394699829e-03
    4.3599212646e+01    1.4529200271e-03
    4.3699554443e+01    1.4665799681e-03
    4.3798934937e+01    1.4802200021e-03
    4.3899654388e+01    1.4941300033e-03
    4.3999221802e+01    1.5079999575e-03
    4.4098506927e+01    1.5219199704e-03
    4.4199607849e+01    1.5362099512e-03
    4.4298606873e+01    1.5503000468e-03
    4.4398460388e+01    1.5646199463e-03
    4.4499748230e+01    1.5792499762e-03
    4.4599220276e+01    1.5937399585e-03
    4.4699848175e+01    1.6084900126e-03
    4.4799129486e+01    1.6231599730e-03
    4.4898319244e+01    1.6379300505e-03
    4.4999607086e+01    1.6531200381e-03
    4.5098796844e+01    1.6681000125e-03
    4.5199234009e+01    1.6833900008e-03
    4.5298706055e+01    1.6986499541e-03
    4.5399803162e+01    1.7142699799e-03
    4.5498710632e+01    1.7296599690e-03
    4.5599807739e+01    1.7455200432e-03
    4.5699848175e+01    1.7613200471e-03
    4.5799320221e+01    1.7771599814e-03
    4.5899379730e+01    1.7932100454e-03
    4.5999511719e+01    1.8093900289e-03
    4.6099174500e+01    1.8256099429e-03
    4.6199310303e+01    1.8420399865e-03
    4.6298686981e+01    1.8584600184e-03
    4.6399215698e+01    1.8751899479e-03
    4.6498405457e+01    1.8918300048e-03
    4.6598541260e+01    1.9087500405e-03
    4.6699733734e+01    1.9259799737e-03
    4.6798824310e+01    1.9429799868e-03
    4.6899829865e+01    1.9604400732e-03
    4.6998733521e+01    1.9776599947e-03
    4.7098583221e+01    1.9951800350e-03
    4.7199489594e+01    2.0130199846e-03
    4.7298679352e+01    2.0306799561e-03
    4.7399112701e+01    2.0486998837e-03
    4.7498397827e+01    2.0666499622e-03
    4.7599681854e+01    2.0850999281e-03
    4.7699344635e+01    2.1033899393e-03
    4.7799003601e+01    2.1218201146e-03
    4.7899059296e+01    2.1404600702e-03
    4.7998832703e+01    2.1591798868e-03
    4.8098682404e+01    2.1780699026e-03
    4.8198436737e+01    2.1970700473e-03
    4.8298870087e+01    2.2163500544e-03
    4.8399776459e+01    2.2358701099e-03
    4.8499343872e+01    2.2552700248e-03
    4.8598529816e+01    2.2747400217e-03
    4.8699340820e+01    2.2946901154e-03
    4.8799381256e+01    2.3146299645e-03
    4.8899814606e+01    2.3347900715e-03
    4.8999095917e+01    2.3548800964e-03
    4.9099243164e+01    2.3753000423e-03
    4.9198432922e+01    2.3956699297e-03
    4.9299133301e+01    2.4164998904e-03
    4.9399658203e+01    2.4374600034e-03
    4.9499221802e+01    2.4583800696e-03
    4.9598976135e+01    2.4794898927e-03
    4.9699218750e+01    2.5008700322e-03
    4.9798217773e+01    2.5221300311e-03
    4.9899501801e+01    2.5440598838e-03
    4.9998592377e+01    2.5656700600e-03
    5.0099121094e+01    2.5877601001e-03
    5.0199550629e+01    2.6100000832e-03
    5.0299209595e+01    2.6322300546e-03
    5.0399738312e+01    2.6548199821e-03
    5.0499015808e+01    2.6773100253e-03
    5.0598392487e+01    2.6999800466e-03
    5.0699485779e+01    2.7232200373e-03
    5.0798198700e+01    2.7460900601e-03
    5.0899196625e+01    2.7696599718e-03
    5.0998287201e+01    2.7929700445e-03
    5.1099380493e+01    2.8169199359e-03
    5.1198562622e+01    2.8405999765e-03
    5.1299263000e+01    2.8648299631e-03
    5.1398841858e+01    2.8889700770e-03
    5.1498310089e+01    2.9132699128e-03
    5.1598628998e+01    2.9379599728e-03
    5.1698474884e+01    2.9627298936e-03
    5.1798999786e+01    2.9878499918e-03
    5.1898277283e+01    3.0128499493e-03
    5.1999561310e+01    3.0385600403e-03
    5.2098461151e+01    3.0638501048e-03
    5.2199459076e+01    3.0898801051e-03
    5.2299320221e+01    3.1158199999e-03
    5.2398788452e+01    3.1418500002e-03
    5.2499217987e+01    3.1683400739e-03
    5.2598590851e+01    3.1947600655e-03
    5.2699115753e+01    3.2216799445e-03
    5.2799732208e+01    3.2488498837e-03
    5.2899295807e+01    3.2759399619e-03
    5.2998855591e+01    3.3032400534e-03
    5.3098716736e+01    3.3308300190e-03
    5.3199050903e+01    3.3587799408e-03
    5.3298706055e+01    3.3867498860e-03
    5.3399307251e+01    3.4152199514e-03
    5.3499450684e+01    3.4437798895e-03
    5.3599216461e+01    3.4724499565e-03
    5.3699153900e+01    3.5014098976e-03
    5.3798336029e+01    3.5303700715e-03
    5.3899143219e+01    3.5600399133e-03
    5.3998813629e+01    3.5896101035e-03
    5.4098182678e+01    3.6193300039e-03
    5.4199180603e+01    3.6497800611e-03
    5.4299037933e+01    3.6801300012e-03
    5.4399276733e+01    3.7108398974e-03
    5.4498458862e+01    3.7414699327e-03
    5.4599452972e+01    3.7729199976e-03
    5.4699501038e+01    3.8043300156e-03
    5.4799358368e+01    3.8359300233e-03
    5.4898635864e+01    3.8676098920e-03
    5.4999721527e+01    3.9001300465e-03
    5.5098430634e+01    3.9321398363e-03
    5.5198947906e+01    3.9650201797e-03
    5.5298599243e+01    3.9978697896e-03
    5.5399593353e+01    4.0314500220e-03
    5.5499153137e+01    4.0648300201e-03
    5.5599292755e+01    4.0986901149e-03
    5.5699054718e+01    4.1327001527e-03
    5.5799385071e+01    4.1671898216e-03
    5.5899620056e+01    4.2019397952e-03
    5.5999271393e+01    4.2367801070e-03
    5.6098258972e+01    4.2716800235e-03
    5.6199535370e+01    4.3076998554e-03
    5.6298995972e+01    4.3433699757e-03
    5.6399326324e+01    4.3796598911e-03
    5.6498691559e+01    4.4159200042e-03
    5.6598247528e+01    4.4525498524e-03
    5.6698856354e+01    4.4899000786e-03
    5.6798789978e+01    4.5273099095e-03
    5.6898628235e+01    4.5650200918e-03
    5.6998863220e+01    4.6032099053e-03
    5.7098621368e+01    4.6415501274e-03
    5.7199138641e+01    4.6805199236e-03
    5.7299072266e+01    4.7196098603e-03
    5.7398738861e+01    4.7589400783e-03
    5.7499347687e+01    4.7989902087e-03
    5.7598522186e+01    4.8388298601e-03
    5.7698379517e+01    4.8792897724e-03
    5.7798229218e+01    4.9201198854e-03
    5.7899520874e+01    4.9619101919e-03
    5.7999263763e+01    5.0034401938e-03
    5.8098831177e+01    5.0452598371e-03
    5.8199062347e+01    5.0877500325e-03
    5.8298709869e+01    5.1303799264e-03
    5.8398559570e+01    5.1734801382e-03
    5.8498222351e+01    5.2168997936e-03
    5.8598056793e+01    5.2607902326e-03
    5.8698856354e+01    5.3055197932e-03
    5.8798988342e+01    5.3503601812e-03
    5.8899501801e+01    5.3957998753e-03
    5.8999050140e+01    5.4412200116e-03
    5.9098602295e+01    5.4870601743e-03
    5.9198642731e+01    5.5335699581e-03
    5.9298397064e+01    5.5803800933e-03
    5.9399475098e+01    5.6282598525e-03
    5.9498359680e+01    5.6755398400e-03
    5.9599155426e+01    5.7242098264e-03
    5.9698909760e+01    5.7728202082e-03
    5.9798171997e+01    5.8216699399e-03
    5.9898681641e+01    5.8716000058e-03
    5.9999000549e+01    5.9219198301e-03
    6.0098262787e+01    5.9722000733e-03
    6.0198204041e+01    6.0233101249e-03
    6.0298240662e+01    6.0749598779e-03
    6.0398937225e+01    6.1274701729e-03
    6.0498577118e+01    6.1799502000e-03
    6.0599178314e+01    6.2334500253e-03
    6.0699592590e+01    6.2873801216e-03
    6.0798377991e+01    6.3409600407e-03
    6.0899074554e+01    6.3961199485e-03
    6.0998443604e+01    6.4511001110e-03
    6.1098476410e+01    6.5069999546e-03
    6.1198600769e+01    6.5635098144e-03
    6.1299106598e+01    6.6208099015e-03
    6.1399612427e+01    6.6786902025e-03
    6.1498882294e+01    6.7364401184e-03
    6.1598140717e+01    6.7947600037e-03
    6.1698738098e+01    6.8544801325e-03
    6.1798957825e+01    6.9145797752e-03
    6.1899269104e+01    6.9753499702e-03
    6.1998050690e+01    7.0358100347e-03
    6.2099304199e+01    7.0984298363e-03
    6.2199333191e+01    7.1609201841e-03
    6.2298397064e+01    7.2234598920e-03
    6.2398803711e+01    7.2874901816e-03
    6.2498924255e+01    7.3520098813e-03
    6.2598663330e+01    7.4169598520e-03
    6.2698974609e+01    7.4829598889e-03
    6.2798431396e+01    7.5490898453e-03
    6.2899211884e+01    7.6167997904e-03
    6.2999137878e+01    7.6846498996e-03
    6.3098785400e+01    7.7530201524e-03
    6.3198616028e+01    7.8222397715e-03
    6.3298828125e+01    7.8924596310e-03
    6.3398468018e+01    7.9630296677e-03
    6.3498867035e+01    8.0348802730e-03
    6.3598884583e+01    8.1072300673e-03
    6.3698619843e+01    8.1801498309e-03
    6.3798069000e+01    8.2536302507e-03
    6.3899238586e+01    8.3291800693e-03
    6.3999160767e+01    8.4046097472e-03
    6.4098510742e+01    8.4804203361e-03
    6.4198432922e+01    8.5574695840e-03
    6.4299110413e+01    8.6359502748e-03
    6.4398269653e+01    8.7140798569e-03
    6.4498748779e+01    8.7941000238e-03
    6.4599136353e+01    8.8749201968e-03
    6.4699546814e+01    8.9566297829e-03
    6.4798210144e+01    9.0377898887e-03
    6.4899467468e+01    9.1219898313e-03
    6.4998886108e+01    9.2055601999e-03
    6.5099365234e+01    9.2909298837e-03
    6.5199180603e+01    9.3766702339e-03
    6.5298225403e+01    9.4626601785e-03
    6.5397949219e+01    9.5501700416e-03
    6.5498893738e+01    9.6397297457e-03
    6.5599288940e+01    9.7297802567e-03
    6.5699012756e+01    9.8201902583e-03
    6.5798347473e+01    9.9112298340e-03
    6.5898254395e+01    1.0003799573e-02
    6.5998626709e+01    1.0097799823e-02
    6.6099098206e+01    1.0192899965e-02
    6.6198532104e+01    1.0288099758e-02
    6.6298622131e+01    1.0384899564e-02
    6.6398422241e+01    1.0482500307e-02
    6.6498611450e+01    1.0581499897e-02
    6.6598983765e+01    1.0681900196e-02
    6.6698402405e+01    1.0782299563e-02
    6.6798774719e+01    1.0884799995e-02
    6.6898391724e+01    1.0987600312e-02
    6.6998947144e+01    1.1092499830e-02
    6.7099044800e+01    1.1198099703e-02
    6.7198448181e+01    1.1304100044e-02
    6.7298629761e+01    1.1412099935e-02
    6.7399482727e+01    1.1521999724e-02
    6.7498519897e+01    1.1630999856e-02
    6.7598220825e+01    1.1741999537e-02
    6.7698791504e+01    1.1855100282e-02
    6.7798965454e+01    1.1969099753e-02
    6.7899322510e+01    1.2084400281e-02
    6.7998245239e+01    1.2199399993e-02
    6.8098983765e+01    1.2317700312e-02
    6.8199340820e+01    1.2436799705e-02
    6.8299316406e+01    1.2556799687e-02
    6.8398803711e+01    1.2677400373e-02
    6.8498023987e+01    1.2799000368e-02
    6.8598091125e+01    1.2923000380e-02
    6.8698745728e+01    1.3048999943e-02
    6.8799285889e+01    1.3176299632e-02
    6.8898880005e+01    1.3303699903e-02
    6.8998565674e+01    1.3432499953e-02
    6.9099403381e+01    1.3564299792e-02
    6.9199188232e+01    1.3695999980e-02
    6.9298301697e+01    1.3828299940e-02
    6.9398834229e+01    1.3963899575e-02
    6.9498519897e+01    1.4099800028e-02
    6.9597900391e+01    1.4236699790e-02
    6.9698051453e+01    1.4376100153e-02
    6.9799354553e+01    1.4518599957e-02
    6.9897895813e+01    1.4658699743e-02
    6.9998916626e+01    1.4803900383e-02
    7.0098304749e+01    1.4948200434e-02
    7.0199317932e+01    1.5096399933e-02
    7.0298896790e+01    1.5244100243e-02
    7.0398094177e+01    1.5392799862e-02
    7.0498420715e+01    1.5544700436e-02
    7.0598747253e+01    1.5698300675e-02
    7.0698135376e+01    1.5851899981e-02
    7.0799133301e+01    1.6009800136e-02
    7.0898124695e+01    1.6166100278e-02
    7.0998649597e+01    1.6326600686e-02
    7.1099174500e+01    1.6488699242e-02
    7.1199302673e+01    1.6651900485e-02
    7.1298866272e+01    1.6815800220e-02
    7.1399085999e+01    1.6982600093e-02
    7.1498741150e+01    1.7150200903e-02
    7.1598373413e+01    1.7319399863e-02
    7.1698402405e+01    1.7491199076e-02
    7.1798042297e+01    1.7664000392e-02
    7.1899314880e+01    1.7841599882e-02
    7.1998390198e+01    1.8017100170e-02
    7.2098220825e+01    1.8195800483e-02
    7.2199195862e+01    1.8378399312e-02
    7.2298835754e+01    1.8560500816e-02
    7.2398849487e+01    1.8745200709e-02
    7.2498008728e+01    1.8930200487e-02
    7.2598205566e+01    1.9119100645e-02
    7.2698883057e+01    1.9310899079e-02
    7.2798225403e+01    1.9502099603e-02
    7.2898323059e+01    1.9696800038e-02
    7.2999092102e+01    1.9894899800e-02
    7.3098236084e+01    2.0091699436e-02
    7.3197952271e+01    2.0291799679e-02
    7.3298034668e+01    2.0494699478e-02
    7.3398414612e+01    2.0700300112e-02
    7.3499084473e+01    2.0908700302e-02
    7.3597930908e+01    2.1115399897e-02
    7.3699340820e+01    2.1329699084e-02
    7.3798187256e+01    2.1540800110e-02
    7.3899215698e+01    2.1758800372e-02
    7.3997962952e+01    2.1973999217e-02
    7.4099273682e+01    2.2197099403e-02
    7.4198669434e+01    2.2418299690e-02
    7.4298820496e+01    2.2643499076e-02
    7.4398117065e+01    2.2869100794e-02
    7.4498947144e+01    2.3100599647e-02
    7.4598617554e+01    2.3331699893e-02
    7.4699150085e+01    2.3567300290e-02
    7.4798454285e+01    2.3802399635e-02
    7.4898696899e+01    2.4042200297e-02
    7.4998359680e+01    2.4283099920e-02
    7.5098503113e+01    2.4527700618e-02
    7.5198341370e+01    2.4774000049e-02
    7.5298477173e+01    2.5023600087e-02
    7.5398048401e+01    2.5274399668e-02
    7.5498085022e+01    2.5528900325e-02
    7.5598007202e+01    2.5785800070e-02
    7.5698600769e+01    2.6047099382e-02
    7.5799194336e+01    2.6311099529e-02
    7.5899215698e+01    2.6576399803e-02
    7.5998077393e+01    2.6841299608e-02
    7.6097808838e+01    2.7111200616e-02
    7.6198104858e+01    2.7385400608e-02
    7.6298866272e+01    2.7663800865e-02
    7.6398773193e+01    2.7942700312e-02
    7.6497901917e+01    2.8222300112e-02
    7.6599029541e+01    2.8510399163e-02
    7.6698921204e+01    2.8798000887e-02
    7.6798233032e+01    2.9086900875e-02
    7.6898208618e+01    2.9380699620e-02
    7.6998657227e+01    2.9678899795e-02
    7.7098327637e+01    2.9977900907e-02
    7.7198387146e+01    3.0281100422e-02
    7.7297950745e+01    3.0585899949e-02
    7.7398284912e+01    3.0896300450e-02
    7.7498893738e+01    3.1210700050e-02
    7.7598258972e+01    3.1524501741e-02
    7.7697799683e+01    3.1842000782e-02
    7.7798881531e+01    3.2167799771e-02
    7.7898223877e+01    3.2491300255e-02
    7.7998237610e+01    3.2820399851e-02
    7.8098999023e+01    3.3155299723e-02
    7.8198234558e+01    3.3488601446e-02
    7.8298980713e+01    3.3830501139e-02
    7.8398391724e+01    3.4171298146e-02
    7.8499046326e+01    3.4519899637e-02
    7.8599212646e+01    3.4870501608e-02
    7.8699272156e+01    3.5224299878e-02
    7.8798950195e+01    3.5580400378e-02
    7.8899093628e+01    3.5941798240e-02
    7.8999038696e+01    3.6306299269e-02
    7.9098014832e+01    3.6670900881e-02
    7.9197944641e+01    3.7042900920e-02
    7.9297866821e+01    3.7418700755e-02
    7.9398246765e+01    3.7800099701e-02
    7.9499000549e+01    3.8186900318e-02
    7.9598327637e+01    3.8572199643e-02
    7.9698310852e+01    3.8963999599e-02
    7.9798286438e+01    3.9359901100e-02
    7.9898155212e+01    3.9759401232e-02
    7.9998199463e+01    4.0163800120e-02
    8.0099082947e+01    4.0575798601e-02
    8.0197875977e+01    4.0983401239e-02
    8.0298553467e+01    4.1403099895e-02
    8.0398094177e+01    4.1822399944e-02
    8.0497901917e+01    4.2247101665e-02
    8.0599227905e+01    4.2682800442e-02
    8.0698921204e+01    4.3115898967e-02
    8.0798324585e+01    4.3552301824e-02
    8.0898658752e+01    4.3997198343e-02
    8.0998023987e+01    4.4442400336e-02
    8.1098052979e+01    4.4895198196e-02
    8.1198921204e+01    4.5356500894e-02
    8.1297988892e+01    4.5814301819e-02
    8.1398376465e+01    4.6282999218e-02
    8.1498260498e+01    4.6754200011e-02
    8.1599189758e+01    4.7235198319e-02
    8.1698097229e+01    4.7711398453e-02
    8.1799278259e+01    4.8203699291e-02
    8.1899101257e+01    4.8694301397e-02
    8.1997871399e+01    4.9184799194e-02
    8.2098739624e+01    4.9690801650e-02
    8.2199005127e+01    5.0198998302e-02
    8.2297927856e+01    5.0705600530e-02
    8.2398933411e+01    5.1228199154e-02
    8.2497825623e+01    5.1745101810e-02
    8.2598800659e+01    5.2278298885e-02
    8.2699012756e+01    5.2812900394e-02
    8.2797859192e+01    5.3345698863e-02
    8.2898681641e+01    5.3894601762e-02
    8.2999206543e+01    5.4447598755e-02
    8.3098777771e+01    5.5000901222e-02
    8.3198509216e+01    5.5560901761e-02
    8.3298896790e+01    5.6130200624e-02
    8.3398971558e+01    5.6703701615e-02
    8.3499130249e+01    5.7283401489e-02
    8.3598800659e+01    5.7866200805e-02
    8.3698638916e+01    5.8455999941e-02
    8.3798835754e+01    5.9053901583e-02
    8.3899108887e+01    5.9658300132e-02
    8.3998611450e+01    6.0264199972e-02
    8.4098548889e+01    6.0878898948e-02
    8.4198760986e+01    6.1501499265e-02
    8.4298675537e+01    6.2128599733e-02
    8.4398666382e+01    6.2762498856e-02
    8.4498428345e+01    6.3401296735e-02
    8.4599121094e+01    6.4052700996e-02
    8.4698013306e+01    6.4698800445e-02
    8.4798477173e+01    6.5361797810e-02
    8.4898826599e+01    6.6030703485e-02
    8.4997848511e+01    6.6697299480e-02
    8.5098434448e+01    6.7381300032e-02
    8.5197669983e+01    6.8062797189e-02
    8.5298408508e+01    6.8761602044e-02
    8.5398460388e+01    6.9462597370e-02
    8.5499229431e+01    7.0175603032e-02
    8.5598747253e+01    7.0886902511e-02
    8.5699096680e+01    7.1611098945e-02
    8.5798667908e+01    7.2337001562e-02
    8.5898406982e+01    7.3071196675e-02
    8.5998764038e+01    7.3817297816e-02
    8.6098640442e+01    7.4567198753e-02
    8.6199127197e+01    7.5329102576e-02
    8.6297714233e+01    7.6084002852e-02
    8.6398063660e+01    7.6859802008e-02
    8.6497817993e+01    7.7638700604e-02
    8.6598289490e+01    7.8430898488e-02
    8.6697784424e+01    7.9222999513e-02
    8.6797821045e+01    8.0027297139e-02
    8.6898483276e+01    8.0844499171e-02
    8.6998825073e+01    8.1667102873e-02
    8.7098381042e+01    8.2491196692e-02
    8.7198570251e+01    8.3328701556e-02
    8.7297760010e+01    8.4165796638e-02
    8.7398811340e+01    8.5026800632e-02
    8.7498504639e+01    8.5884697735e-02
    8.7597984314e+01    8.6748801172e-02
    8.7697906494e+01    8.7625198066e-02
    8.7798423767e+01    8.8515296578e-02
    8.7897865295e+01    8.9404396713e-02
    8.7998321533e+01    9.0311102569e-02
    8.8097686768e+01    9.1216601431e-02
    8.8197677612e+01    9.2136502266e-02
    8.8298194885e+01    9.3070097268e-02
    8.8398010254e+01    9.4006098807e-02
    8.8498725891e+01    9.4959497452e-02
    8.8598365784e+01    9.5911696553e-02
    8.8697776794e+01    9.6870802343e-02
    8.8798164368e+01    9.7848303616e-02
    8.8898025513e+01    9.8829999566e-02
    8.8998703003e+01    9.9829100072e-02
    8.9098030090e+01    1.0082399845e-01
    8.9198982239e+01    1.0184500366e-01
    8.9297737122e+01    1.0285300016e-01
    8.9398307800e+01    1.0388900340e-01
    8.9498725891e+01    1.0493300110e-01
    8.9598648071e+01    1.0598199815e-01
    8.9698509216e+01    1.0704000294e-01
    8.9798233032e+01    1.0810600221e-01
    8.9897628784e+01    1.0917899758e-01
    8.9998825073e+01    1.1028099805e-01
    9.0098022461e+01    1.1137100309e-01
    9.0197715759e+01    1.1247699708e-01
    9.0298385620e+01    1.1360400170e-01
    9.0397789001e+01    1.1472699791e-01
    9.0498703003e+01    1.1587800086e-01
    9.0598541260e+01    1.1702699959e-01
    9.0699050903e+01    1.1819399893e-01
    9.0798500061e+01    1.1935900152e-01
    9.0897888184e+01    1.2053400278e-01
    9.0998870850e+01    1.2173900008e-01
    9.1098236084e+01    1.2293600291e-01
    9.1197898865e+01    1.2414599955e-01
    9.1298881531e+01    1.2538400292e-01
    9.1398963928e+01    1.2662200630e-01
    9.1498985291e+01    1.2786999345e-01
    9.1598945618e+01    1.2912899256e-01
    9.1698837280e+01    1.3039800525e-01
    9.1798309326e+01    1.3167199492e-01
    9.1898902893e+01    1.3297300041e-01
    9.1997962952e+01    1.3426500559e-01
    9.2098960876e+01    1.3559399545e-01
    9.2197799683e+01    1.3690599799e-01
    9.2298210144e+01    1.3825100660e-01
    9.2398826599e+01    1.3961000741e-01
    9.2498176575e+01    1.4096300304e-01
    9.2599006653e+01    1.4234900475e-01
    9.2698219299e+01    1.4372499287e-01
    9.2798904419e+01    1.4513300359e-01
    9.2897972107e+01    1.4653000236e-01
    9.2998153687e+01    1.4795500040e-01
    9.3098617554e+01    1.4939600229e-01
    9.3199012756e+01    1.5084899962e-01
    9.3297782898e+01    1.5229000151e-01
    9.3398025513e+01    1.5376499295e-01
    9.3498199463e+01    1.5525199473e-01
    9.3598289490e+01    1.5674899518e-01
    9.3698303223e+01    1.5825900435e-01
    9.3798240662e+01    1.5977899730e-01
    9.3897956848e+01    1.6130900383e-01
    9.3998817444e+01    1.6287000477e-01
    9.4097763062e+01    1.6441300511e-01
    9.4197845459e+01    1.6598699987e-01
    9.4299049377e+01    1.6759200394e-01
    9.4398361206e+01    1.6917900741e-01
    9.4498786926e+01    1.7079800367e-01
    9.4598716736e+01    1.7242099345e-01
    9.4698371887e+01    1.7405299842e-01
    9.4798904419e+01    1.7571300268e-01
    9.4897796631e+01    1.7735899985e-01
    9.4997779846e+01    1.7903600633e-01
    9.5098854065e+01    1.8074500561e-01
    9.5198081970e+01    1.8243600428e-01
    9.5298385620e+01    1.8415899575e-01
    9.5398315430e+01    1.8588900566e-01
    9.5497871399e+01    1.8762600422e-01
    9.5598480225e+01    1.8939499557e-01
    9.5698661804e+01    1.9117000699e-01
    9.5798522949e+01    1.9295300543e-01
    9.5898017883e+01    1.9474400580e-01
    9.5998558044e+01    1.9656699896e-01
    9.6098724365e+01    1.9839699566e-01
    9.6198524475e+01    2.0023399591e-01
    9.6297958374e+01    2.0207799971e-01
    9.6398422241e+01    2.0395499468e-01
    9.6498519897e+01    2.0584000647e-01
    9.6598258972e+01    2.0773200691e-01
    9.6699012756e+01    2.0965699852e-01
    9.6798034668e+01    2.1156300604e-01
    9.6898078918e+01    2.1350200474e-01
    9.6997764587e+01    2.1544900537e-01
    9.7098457336e+01    2.1742999554e-01
    9.7198791504e+01    2.1941900253e-01
    9.7298774719e+01    2.2141399980e-01
    9.7398414612e+01    2.2341699898e-01
    9.7499046326e+01    2.2545400262e-01
    9.7597999573e+01    2.2747200727e-01
    9.7697944641e+01    2.2952400148e-01
    9.7798866272e+01    2.3161000013e-01
    9.7898132324e+01    2.3367699981e-01
    9.7998367310e+01    2.3577800393e-01
    9.8098274231e+01    2.3788699508e-01
    9.8197837830e+01    2.4000400305e-01
    9.8298377991e+01    2.4215500057e-01
    9.8398574829e+01    2.4431400001e-01
    9.8498443604e+01    2.4648000300e-01
    9.8597976685e+01    2.4865399301e-01
    9.8698471069e+01    2.5086298585e-01
    9.8798637390e+01    2.5307899714e-01
    9.8898468018e+01    2.5530299544e-01
    9.8997978210e+01    2.5753399730e-01
    9.9098442078e+01    2.5980100036e-01
    9.9198570251e+01    2.6207599044e-01
    9.9298377991e+01    2.6435700059e-01
    9.9397857666e+01    2.6664599776e-01
    9.9498283386e+01    2.6897099614e-01
    9.9598381042e+01    2.7130401134e-01
    9.9698158264e+01    2.7364298701e-01
    9.9798866272e+01    2.7601900697e-01
    9.9898010254e+01    2.7837300301e-01
    9.9998077393e+01    2.8076401353e-01
    1.0009783173e+02    2.8316101432e-01
    1.0019850159e+02    2.8559601307e-01
    1.0029885101e+02    2.8803700209e-01
    1.0039888763e+02    2.9048600793e-01
    1.0049861908e+02    2.9294100404e-01
    1.0059803772e+02    2.9540398717e-01
    1.0069835663e+02    2.9790300131e-01
    1.0079837036e+02    3.0040898919e-01
    1.0089807892e+02    3.0292299390e-01
    1.0099868011e+02    3.0547299981e-01
    1.0109896851e+02    3.0803099275e-01
    1.0119895172e+02    3.1059500575e-01
    1.0129862976e+02    3.1316599250e-01
    1.0139801025e+02    3.1574299932e-01
    1.0149826050e+02    3.1835800409e-01
    1.0159822083e+02    3.2098001242e-01
    1.0169788361e+02    3.2360801101e-01
    1.0179840851e+02    3.2627299428e-01
    1.0189862823e+02    3.2894501090e-01
    1.0199855804e+02    3.3162400126e-01
    1.0209819794e+02    3.3430901170e-01
    1.0219869232e+02    3.3703199029e-01
    1.0229888916e+02    3.3976098895e-01
    1.0239878845e+02    3.4249600768e-01
    1.0249841309e+02    3.4523800015e-01
    1.0259886932e+02    3.4801700711e-01
    1.0269789886e+02    3.5077100992e-01
    1.0279891968e+02    3.5359498858e-01
    1.0289852142e+02    3.5639199615e-01
    1.0299894714e+02    3.5922798514e-01
    1.0309797668e+02    3.6203798652e-01
    1.0319895935e+02    3.6491799355e-01
    1.0329853821e+02    3.6777099967e-01
    1.0339894867e+02    3.7066298723e-01
    1.0349796295e+02    3.7352800369e-01
    1.0359892273e+02    3.7646299601e-01
    1.0369847870e+02    3.7937200069e-01
    1.0379886627e+02    3.8231799006e-01
    1.0389897919e+02    3.8527101278e-01
    1.0399880981e+02    3.8822901249e-01
    1.0409835815e+02    3.9119198918e-01
    1.0419873047e+02    3.9419400692e-01
    1.0429882812e+02    3.9720100164e-01
    1.0439865112e+02    4.0021398664e-01
    1.0449819946e+02    4.0323099494e-01
    1.0459855652e+02    4.0628701448e-01
    1.0469866180e+02    4.0934899449e-01
    1.0479847717e+02    4.1241499782e-01
    1.0489803314e+02    4.1548699141e-01
    1.0499839020e+02    4.1859701276e-01
    1.0509848022e+02    4.2171201110e-01
    1.0519830322e+02    4.2483198643e-01
    1.0529892731e+02    4.2798998952e-01
    1.0539823151e+02    4.3112000823e-01
    1.0549832916e+02    4.3428799510e-01
    1.0559816742e+02    4.3746200204e-01
    1.0569880676e+02    4.4067299366e-01
    1.0579814148e+02    4.4385600090e-01
    1.0589826202e+02    4.4707700610e-01
    1.0599813080e+02    4.5030298829e-01
    1.0609877777e+02    4.5356801152e-01
    1.0619815063e+02    4.5680299401e-01
    1.0629830933e+02    4.6007698774e-01
    1.0639821625e+02    4.6335500479e-01
    1.0649890900e+02    4.6667200327e-01
    1.0659832764e+02    4.6996000409e-01
    1.0669853973e+02    4.7328600287e-01
    1.0679850006e+02    4.7661700845e-01
    1.0689821625e+02    4.7995200753e-01
    1.0699871826e+02    4.8332500458e-01
    1.0709796906e+02    4.8666900396e-01
    1.0719799805e+02    4.9005201459e-01
    1.0729879761e+02    4.9347200990e-01
    1.0739836121e+02    4.9686300755e-01
    1.0749870300e+02    5.0029301643e-01
    1.0759880066e+02    5.0372701883e-01
    1.0769867706e+02    5.0716501474e-01
    1.0779833221e+02    5.1060700417e-01
    1.0789875031e+02    5.1408797503e-01
    1.0799796295e+02    5.1753902435e-01
    1.0809793854e+02    5.2102798223e-01
    1.0819869232e+02    5.2455598116e-01
    1.0829823303e+02    5.2805298567e-01
    1.0839855194e+02    5.3158897161e-01
    1.0849864197e+02    5.3512901068e-01
    1.0859851837e+02    5.3867298365e-01
    1.0869818878e+02    5.4222100973e-01
    1.0879862213e+02    5.4580801725e-01
    1.0889884186e+02    5.4939800501e-01
    1.0899884796e+02    5.5299299955e-01
    1.0909864807e+02    5.5659097433e-01
    1.0919824219e+02    5.6019198895e-01
    1.0929857635e+02    5.6383198500e-01
    1.0939872742e+02    5.6747597456e-01
    1.0949865723e+02    5.7112300396e-01
    1.0959838867e+02    5.7477402687e-01
    1.0969886780e+02    5.7846301794e-01
    1.0979818726e+02    5.8212000132e-01
    1.0989826202e+02    5.8581602573e-01
    1.0999813080e+02    5.8951401711e-01
    1.1009874725e+02    5.9325200319e-01
    1.1019821167e+02    5.9695601463e-01
    1.1029842377e+02    6.0070002079e-01
    1.1039842987e+02    6.0444599390e-01
    1.1049823761e+02    6.0819500685e-01
    1.1059879303e+02    6.1198198795e-01
    1.1069819641e+02    6.1573600769e-01
    1.1079834747e+02    6.1952799559e-01
    1.1089829254e+02    6.2332302332e-01
    1.1099803925e+02    6.2712001801e-01
    1.1109851837e+02    6.3095498085e-01
    1.1119879913e+02    6.3479197025e-01
    1.1129795074e+02    6.3859599829e-01
    1.1139875793e+02    6.4247298241e-01
    1.1149845123e+02    6.4631599188e-01
    1.1159884644e+02    6.5019702911e-01
    1.1169815063e+02    6.5404397249e-01
    1.1179815674e+02    6.5792798996e-01
    1.1189797974e+02    6.6181498766e-01
    1.1199851227e+02    6.6573798656e-01
    1.1209884644e+02    6.6966199875e-01
    1.1219808197e+02    6.7355298996e-01
    1.1229801941e+02    6.7747998238e-01
    1.1239868164e+02    6.8144398928e-01
    1.1249823761e+02    6.8537402153e-01
    1.1259851074e+02    6.8934100866e-01
    1.1269857788e+02    6.9330799580e-01
    1.1279846191e+02    6.9727599621e-01
    1.1289814758e+02    7.0124602318e-01
    1.1299855042e+02    7.0525097847e-01
    1.1309874725e+02    7.0925801992e-01
    1.1319876862e+02    7.1326500177e-01
    1.1329859161e+02    7.1727198362e-01
    1.1339823151e+02    7.2127997875e-01
    1.1349857330e+02    7.2532498837e-01
    1.1359871674e+02    7.2936898470e-01
    1.1369869232e+02    7.3341399431e-01
    1.1379846954e+02    7.3745900393e-01
    1.1389807129e+02    7.4150300026e-01
    1.1399835968e+02    7.4558401108e-01
    1.1409847260e+02    7.4966502190e-01
    1.1419840240e+02    7.5374501944e-01
    1.1429814911e+02    7.5782597065e-01
    1.1439859772e+02    7.6194202900e-01
    1.1449800110e+02    7.6602202654e-01
    1.1459809113e+02    7.7013802528e-01
    1.1469799805e+02    7.7425301075e-01
    1.1479860687e+02    7.7840298414e-01
    1.1489817810e+02    7.8251701593e-01
    1.1499844360e+02    7.8666698933e-01
    1.1509853363e+02    7.9081600904e-01
    1.1519844818e+02    7.9496401548e-01
    1.1529821014e+02    7.9911100864e-01
    1.1539865112e+02    8.0329400301e-01
    1.1549806976e+02    8.0743998289e-01
    1.1559818268e+02    8.1161999702e-01
    1.1569812775e+02    8.1580001116e-01
    1.1579876709e+02    8.2001501322e-01
    1.1589839935e+02    8.2419300079e-01
    1.1599871826e+02    8.2840502262e-01
    1.1609803772e+02    8.3258098364e-01
    1.1619803619e+02    8.3679097891e-01
    1.1629873657e+02    8.4103602171e-01
    1.1639843750e+02    8.4524399042e-01
    1.1649797821e+02    8.4944999218e-01
    1.1659822083e+02    8.5369098186e-01
    1.1669847107e+02    8.5793697834e-01
    1.1679840851e+02    8.6217498779e-01
    1.1689820099e+02    8.6641198397e-01
    1.1699868011e+02    8.7068200111e-01
    1.1709819031e+02    8.7491601706e-01
    1.1719838715e+02    8.7918299437e-01
    1.1729844666e+02    8.8344901800e-01
    1.1739852142e+02    8.8771998882e-01
    1.1749830627e+02    8.9198297262e-01
    1.1759806061e+02    8.9624798298e-01
    1.1769869995e+02    9.0055602789e-01
    1.1779853821e+02    9.0483301878e-01
    1.1789871979e+02    9.0912801027e-01
    1.1799844360e+02    9.1340798140e-01
    1.1809844208e+02    9.1770201921e-01
    1.1819805908e+02    9.2198401690e-01
    1.1829872894e+02    9.2631500959e-01
    1.1839795685e+02    9.3058699369e-01
    1.1849873352e+02    9.3492901325e-01
    1.1859832001e+02    9.3922299147e-01
    1.1869848633e+02    9.4354498386e-01
    1.1879875183e+02    9.4787299633e-01
    1.1889807892e+02    9.5216500759e-01
    1.1899845123e+02    9.5650398731e-01
    1.1909864807e+02    9.6083897352e-01
    1.1919822693e+02    9.6514898539e-01
    1.1929805756e+02    9.6947199106e-01
    1.1939833069e+02    9.7381699085e-01
    1.1949845123e+02    9.7815698385e-01
    1.1959854126e+02    9.8249900341e-01
    1.1969853210e+02    9.8683798313e-01
    1.1979856110e+02    9.9118101597e-01
    1.1989874268e+02    9.9553298950e-01
    1.1999822235e+02    9.9985498190e-01
    1.2009838867e+02    1.0042099953e+00
    1.2019835663e+02    1.0085599422e+00
    1.2029833221e+02    1.0129100084e+00
    1.2039859772e+02    1.0172699690e+00
    1.2049851227e+02    1.0216200352e+00
    1.2059828186e+02    1.0259599686e+00
    1.2069795227e+02    1.0303000212e+00
    1.2079862976e+02    1.0346900225e+00
    1.2089849854e+02    1.0390399694e+00
    1.2099861908e+02    1.0434000492e+00
    1.2109844971e+02    1.0477600098e+00
    1.2119838715e+02    1.0521099567e+00
    1.2129798126e+02    1.0564500093e+00
    1.2139852142e+02    1.0608400106e+00
    1.2149842072e+02    1.0651899576e+00
    1.2159797668e+02    1.0695400238e+00
    1.2169828796e+02    1.0739099979e+00
    1.2179844666e+02    1.0782799721e+00
    1.2189856720e+02    1.0826499462e+00
    1.2199859619e+02    1.0870100260e+00
    1.2209854126e+02    1.0913699865e+00
    1.2219837952e+02    1.0957200527e+00
    1.2229812622e+02    1.1000699997e+00
    1.2239862823e+02    1.1044499874e+00
    1.2249819183e+02    1.1087900400e+00
    1.2259851074e+02    1.1131600142e+00
    1.2269789124e+02    1.1174900532e+00
    1.2279801941e+02    1.1218500137e+00
    1.2289804840e+02    1.1262099743e+00
    1.2299800110e+02    1.1305600405e+00
    1.2309838867e+02    1.1349300146e+00
    1.2319805908e+02    1.1392699480e+00
    1.2329856873e+02    1.1436400414e+00
    1.2339814758e+02    1.1479799747e+00
    1.2349848175e+02    1.1523400545e+00
    1.2359787750e+02    1.1566599607e+00
    1.2369802094e+02    1.1610100269e+00
    1.2379808044e+02    1.1653499603e+00
    1.2389804840e+02    1.1696900129e+00
    1.2399791718e+02    1.1740200520e+00
    1.2409854126e+02    1.1783900261e+00
    1.2419824219e+02    1.1827100515e+00
    1.2429785156e+02    1.1870199442e+00
    1.2439820099e+02    1.1913700104e+00
    1.2449846649e+02    1.1957099438e+00
    1.2459864044e+02    1.2000399828e+00
    1.2469790649e+02    1.2043299675e+00
    1.2479792023e+02    1.2086499929e+00
    1.2489865875e+02    1.2130000591e+00
    1.2499849701e+02    1.2173000574e+00
    1.2509825897e+02    1.2216000557e+00
    1.2519792938e+02    1.2258900404e+00
    1.2529834747e+02    1.2302199602e+00
    1.2539785767e+02    1.2344900370e+00
    1.2549810791e+02    1.2388000488e+00
    1.2559828186e+02    1.2431000471e+00
    1.2569837952e+02    1.2474000454e+00
    1.2579839325e+02    1.2516800165e+00
    1.2589833069e+02    1.2559599876e+00
    1.2599819183e+02    1.2602399588e+00
    1.2609797668e+02    1.2645000219e+00
    1.2619850159e+02    1.2687900066e+00
    1.2629812622e+02    1.2730499506e+00
    1.2639849854e+02    1.2773200274e+00
    1.2649799347e+02    1.2815599442e+00
    1.2659821320e+02    1.2858200073e+00
    1.2669837189e+02    1.2900799513e+00
    1.2679844666e+02    1.2943300009e+00
    1.2689846039e+02    1.2985700369e+00
    1.2699839783e+02    1.3028000593e+00
    1.2709826660e+02    1.3070199490e+00
    1.2719806671e+02    1.3112399578e+00
    1.2729862213e+02    1.3154799938e+00
    1.2739829254e+02    1.3196899891e+00
    1.2749788666e+02    1.3238799572e+00
    1.2759824371e+02    1.3280999660e+00
    1.2769851685e+02    1.3323099613e+00
    1.2779794312e+02    1.3364800215e+00
    1.2789810181e+02    1.3406800032e+00
    1.2799819946e+02    1.3448699713e+00
    1.2809823608e+02    1.3490500450e+00
    1.2819822693e+02    1.3532199860e+00
    1.2829812622e+02    1.3573800325e+00
    1.2839799500e+02    1.3615299463e+00
    1.2849859619e+02    1.3657100201e+00
    1.2859834290e+02    1.3698500395e+00
    1.2869802856e+02    1.3739800453e+00
    1.2879846191e+02    1.3781399727e+00
    1.2889804077e+02    1.3822499514e+00
    1.2899836731e+02    1.3863899708e+00
    1.2909863281e+02    1.3905199766e+00
    1.2919804382e+02    1.3946000338e+00
    1.2929821777e+02    1.3987100124e+00
    1.2939833069e+02    1.4028199911e+00
    1.2949838257e+02    1.4069099426e+00
    1.2959840393e+02    1.4110000134e+00
    1.2969837952e+02    1.4150700569e+00
    1.2979829407e+02    1.4191399813e+00
    1.2989816284e+02    1.4232000113e+00
    1.2999800110e+02    1.4272500277e+00
    1.3009858704e+02    1.4313199520e+00
    1.3019831848e+02    1.4353499413e+00
    1.3029801941e+02    1.4393800497e+00
    1.3039845276e+02    1.4434200525e+00
    1.3049807739e+02    1.4474300146e+00
    1.3059843445e+02    1.4514499903e+00
    1.3069876099e+02    1.4554699659e+00
    1.3079824829e+02    1.4594500065e+00
    1.3089848328e+02    1.4634499550e+00
    1.3099868774e+02    1.4674400091e+00
    1.3109806824e+02    1.4713900089e+00
    1.3119819641e+02    1.4753600359e+00
    1.3129826355e+02    1.4793200493e+00
    1.3139831543e+02    1.4832799435e+00
    1.3149833679e+02    1.4872200489e+00
    1.3159829712e+02    1.4911500216e+00
    1.3169824219e+02    1.4950799942e+00
    1.3179814148e+02    1.4989900589e+00
    1.3189878845e+02    1.5029300451e+00
    1.3199862671e+02    1.5068199635e+00
    1.3209841919e+02    1.5107100010e+00
    1.3219818115e+02    1.5145800114e+00
    1.3229870605e+02    1.5184799433e+00
    1.3239839172e+02    1.5223300457e+00
    1.3249884033e+02    1.5262099504e+00
    1.3259846497e+02    1.5300500393e+00
    1.3269885254e+02    1.5339000225e+00
    1.3279841614e+02    1.5377199650e+00
    1.3289872742e+02    1.5415500402e+00
    1.3299821472e+02    1.5453499556e+00
    1.3309846497e+02    1.5491600037e+00
    1.3319865417e+02    1.5529700518e+00
    1.3329884338e+02    1.5567599535e+00
    1.3339819336e+02    1.5605100393e+00
    1.3349829102e+02    1.5642900467e+00
    1.3359835815e+02    1.5680500269e+00
    1.3369839478e+02    1.5717999935e+00
    1.3379838562e+02    1.5755399466e+00
    1.3389834595e+02    1.5792700052e+00
    1.3399827576e+02    1.5829900503e+00
    1.3409893799e+02    1.5867300034e+00
    1.3419879150e+02    1.5904200077e+00
    1.3429859924e+02    1.5941100121e+00
    1.3439837646e+02    1.5977799892e+00
    1.3449890137e+02    1.6014800072e+00
    1.3459861755e+02    1.6051299572e+00
    1.3469827271e+02    1.6087700129e+00
    1.3479870605e+02    1.6124299765e+00
    1.3489830017e+02    1.6160500050e+00
    1.3499864197e+02    1.6196800470e+00
    1.3509895325e+02    1.6233099699e+00
    1.3519844055e+02    1.6268899441e+00
    1.3529867554e+02    1.6304999590e+00
    1.3539886475e+02    1.6340899467e+00
    1.3549902344e+02    1.6376600266e+00
    1.3559837341e+02    1.6411999464e+00
    1.3569847107e+02    1.6447600126e+00
    1.3579852295e+02    1.6483000517e+00
    1.3589854431e+02    1.6518299580e+00
    1.3599851990e+02    1.6553499699e+00
    1.3609846497e+02    1.6588599682e+00
    1.3619837952e+02    1.6623599529e+00
    1.3629904175e+02    1.6658699512e+00
    1.3639889526e+02    1.6693400145e+00
    1.3649870300e+02    1.6728099585e+00
    1.3659849548e+02    1.6762599945e+00
    1.3669902039e+02    1.6797200441e+00
    1.3679873657e+02    1.6831500530e+00
    1.3689843750e+02    1.6865600348e+00
    1.3699887085e+02    1.6899900436e+00
    1.3709851074e+02    1.6933799982e+00
    1.3719888306e+02    1.6967799664e+00
    1.3729847717e+02    1.7001500130e+00
    1.3739880371e+02    1.7035299540e+00
    1.3749909973e+02    1.7069000006e+00
    1.3759860229e+02    1.7102299929e+00
    1.3769883728e+02    1.7135800123e+00
    1.3779907227e+02    1.7169100046e+00
    1.3789848328e+02    1.7202099562e+00
    1.3799865723e+02    1.7235100269e+00
    1.3809881592e+02    1.7268099785e+00
    1.3819894409e+02    1.7301000357e+00
    1.3829904175e+02    1.7333699465e+00
    1.3839912415e+02    1.7366299629e+00
    1.3849917603e+02    1.7398799658e+00
    1.3859921265e+02    1.7431099415e+00
    1.3869923401e+02    1.7463400364e+00
    1.3879924011e+02    1.7495499849e+00
    1.3889921570e+02    1.7527500391e+00
    1.3899917603e+02    1.7559399605e+00
    1.3909910583e+02    1.7591199875e+00
    1.3919903564e+02    1.7622799873e+00
    1.3929893494e+02    1.7654299736e+00
    1.3939881897e+02    1.7685699463e+00
    1.3949868774e+02    1.7717000246e+00
    1.3959930420e+02    1.7748399973e+00
    1.3969914246e+02    1.7779400349e+00
    1.3979896545e+02    1.7810300589e+00
    1.3989877319e+02    1.7841099501e+00
    1.3999931335e+02    1.7871999741e+00
    1.4009910583e+02    1.7902499437e+00
    1.4019885254e+02    1.7933000326e+00
    1.4029861450e+02    1.7963299751e+00
    1.4039910889e+02    1.7993700504e+00
    1.4049882507e+02    1.8023699522e+00
    1.4059930420e+02    1.8053900003e+00
    1.4069900513e+02    1.8083699942e+00
    1.4079869080e+02    1.8113399744e+00
    1.4089912415e+02    1.8143199682e+00
    1.4099879456e+02    1.8172600269e+00
    1.4109919739e+02    1.8202199936e+00
    1.4119883728e+02    1.8231400251e+00
    1.4129922485e+02    1.8260699511e+00
    1.4139883423e+02    1.8289599419e+00
    1.4149920654e+02    1.8318699598e+00
    1.4159878540e+02    1.8347400427e+00
    1.4169912720e+02    1.8376200199e+00
    1.4179869080e+02    1.8404599428e+00
    1.4189901733e+02    1.8433200121e+00
    1.4199931335e+02    1.8461600542e+00
    1.4209884644e+02    1.8489700556e+00
    1.4219912720e+02    1.8517899513e+00
    1.4229940796e+02    1.8545900583e+00
    1.4239891052e+02    1.8573600054e+00
    1.4249916077e+02    1.8601399660e+00
    1.4259939575e+02    1.8629100323e+00
    1.4269886780e+02    1.8656500578e+00
    1.4279908752e+02    1.8683899641e+00
    1.4289930725e+02    1.8711199760e+00
    1.4299951172e+02    1.8738399744e+00
    1.4309893799e+02    1.8765200377e+00
    1.4319912720e+02    1.8792200089e+00
    1.4329930115e+02    1.8818999529e+00
    1.4339945984e+02    1.8845599890e+00
    1.4349885559e+02    1.8871999979e+00
    1.4359898376e+02    1.8898400068e+00
    1.4369912720e+02    1.8924700022e+00
    1.4379924011e+02    1.8950899839e+00
    1.4389935303e+02    1.8976900578e+00
    1.4399943542e+02    1.9002900124e+00
    1.4409953308e+02    1.9028700590e+00
    1.4419883728e+02    1.9054100513e+00
    1.4429888916e+02    1.9079699516e+00
    1.4439892578e+02    1.9105099440e+00
    1.4449896240e+02    1.9130400419e+00
    1.4459898376e+02    1.9155600071e+00
    1.4469897461e+02    1.9180599451e+00
    1.4479896545e+02    1.9205499887e+00
    1.4489894104e+02    1.9230300188e+00
    1.4499888611e+02    1.9255000353e+00
    1.4509959412e+02    1.9279700518e+00
    1.4519952393e+02    1.9304100275e+00
    1.4529942322e+02    1.9328399897e+00
    1.4539932251e+02    1.9352500439e+00
    1.4549920654e+02    1.9376499653e+00
    1.4559906006e+02    1.9400399923e+00
    1.4569966125e+02    1.9424400330e+00
    1.4579948425e+02    1.9448000193e+00
    1.4589930725e+02    1.9471600056e+00
    1.4599908447e+02    1.9494999647e+00
    1.4609962463e+02    1.9518400431e+00
    1.4619938660e+02    1.9541499615e+00
    1.4629911804e+02    1.9564499855e+00
    1.4639959717e+02    1.9587600231e+00
    1.4649929810e+02    1.9610400200e+00
    1.4659898376e+02    1.9632999897e+00
    1.4669941711e+02    1.9655699730e+00
    1.4679905701e+02    1.9678100348e+00
    1.4689944458e+02    1.9700599909e+00
    1.4699905396e+02    1.9722800255e+00
    1.4709941101e+02    1.9744999409e+00
    1.4719973755e+02    1.9767099619e+00
    1.4729928589e+02    1.9788899422e+00
    1.4739958191e+02    1.9810700417e+00
    1.4749908447e+02    1.9832299948e+00
    1.4759933472e+02    1.9853899479e+00
    1.4769956970e+02    1.9875299931e+00
    1.4779977417e+02    1.9896700382e+00
    1.4789921570e+02    1.9917800426e+00
    1.4799937439e+02    1.9938900471e+00
    1.4809953308e+02    1.9959900379e+00
    1.4819966125e+02    1.9980800152e+00
    1.4829977417e+02    2.0001599789e+00
    1.4839912415e+02    2.0022099018e+00
    1.4849920654e+02    2.0042600632e+00
    1.4859925842e+02    2.0062999725e+00
    1.4869929504e+02    2.0083301067e+00
    1.4879933167e+02    2.0103499889e+00
    1.4889933777e+02    2.0123600960e+00
    1.4899932861e+02    2.0143599510e+00
    1.4909930420e+02    2.0163400173e+00
    1.4919926453e+02    2.0183100700e+00
    1.4929922485e+02    2.0202798843e+00
    1.4939915466e+02    2.0222299099e+00
    1.4949983215e+02    2.0241799355e+00
    1.4959973145e+02    2.0261099339e+00
    1.4969961548e+02    2.0280199051e+00
    1.4979948425e+02    2.0299301147e+00
    1.4989935303e+02    2.0318200588e+00
    1.4999920654e+02    2.0336999893e+00
    1.5009979248e+02    2.0355899334e+00
    1.5019963074e+02    2.0374500751e+00
    1.5029945374e+02    2.0392999649e+00
    1.5039924622e+02    2.0411400795e+00
    1.5049980164e+02    2.0429799557e+00
    1.5059959412e+02    2.0448000431e+00
    1.5069935608e+02    2.0466101170e+00
    1.5079988098e+02    2.0484199524e+00
    1.5089964294e+02    2.0502099991e+00
    1.5099937439e+02    2.0519800186e+00
    1.5109986877e+02    2.0537600517e+00
    1.5119958496e+02    2.0555200577e+00
    1.5130000305e+02    2.0572800636e+00
    1.5139959717e+02    2.0590200424e+00
    1.5149989319e+02    2.0607500076e+00
    1.5159936523e+02    2.0624699593e+00
    1.5169952393e+02    2.0641798973e+00
    1.5179960632e+02    2.0658900738e+00
    1.5189964294e+02    2.0675899982e+00
    1.5199963379e+02    2.0692698956e+00
    1.5209956360e+02    2.0709500313e+00
    1.5219943237e+02    2.0726099014e+00
    1.5229998779e+02    2.0742800236e+00
    1.5239974976e+02    2.0759201050e+00
    1.5249945068e+02    2.0775599480e+00
    1.5259985352e+02    2.0791900158e+00
    1.5269944763e+02    2.0808100700e+00
    1.5279974365e+02    2.0824201107e+00
    1.5289999390e+02    2.0840299129e+00
    1.5299945068e+02    2.0856199265e+00
    1.5309959412e+02    2.0871999264e+00
    1.5319970703e+02    2.0887799263e+00
    1.5329974365e+02    2.0903499126e+00
    1.5339976501e+02    2.0919098854e+00
    1.5349972534e+02    2.0934600830e+00
    1.5359965515e+02    2.0950100422e+00
    1.5369952393e+02    2.0965399742e+00
    1.5380009460e+02    2.0980799198e+00
    1.5389988708e+02    2.0996000767e+00
    1.5399963379e+02    2.1011099815e+00
    1.5410008240e+02    2.1026299000e+00
    1.5419975281e+02    2.1041300297e+00
    1.5430012512e+02    2.1056299210e+00
    1.5439970398e+02    2.1071200371e+00
    1.5449998474e+02    2.1086099148e+00
    1.5459950256e+02    2.1100800037e+00
    1.5469970703e+02    2.1115601063e+00
    1.5479989624e+02    2.1130399704e+00
    1.5490002441e+02    2.1145100594e+00
    1.5500012207e+02    2.1159698963e+00
    1.5510017395e+02    2.1174299717e+00
    1.5520019531e+02    2.1188800335e+00
    1.5530018616e+02    2.1203300953e+00
    1.5540013123e+02    2.1217699051e+00
    1.5550004578e+02    2.1232099533e+00
    1.5559991455e+02    2.1246399879e+00
    1.5569973755e+02    2.1260700226e+00
    1.5580027771e+02    2.1275000572e+00
    1.5590002441e+02    2.1289200783e+00
    1.5599975586e+02    2.1303400993e+00
    1.5610017395e+02    2.1317598820e+00
    1.5619981384e+02    2.1331698895e+00
    1.5630014038e+02    2.1345798969e+00
    1.5639970398e+02    2.1359798908e+00
    1.5649996948e+02    2.1373798847e+00
    1.5660018921e+02    2.1387801170e+00
    1.5669964600e+02    2.1401700974e+00
    1.5679978943e+02    2.1415700912e+00
    1.5689991760e+02    2.1429600716e+00
    1.5699998474e+02    2.1443400383e+00
    1.5710002136e+02    2.1457300186e+00
    1.5720002747e+02    2.1471099854e+00
    1.5729997253e+02    2.1484899521e+00
    1.5739991760e+02    2.1498699188e+00
    1.5749981689e+02    2.1512401104e+00
    1.5760035706e+02    2.1526200771e+00
    1.5770016479e+02    2.1539900303e+00
    1.5779995728e+02    2.1553599834e+00
    1.5789971924e+02    2.1567299366e+00
    1.5800018311e+02    2.1580998898e+00
    1.5809986877e+02    2.1594700813e+00
    1.5820013428e+02    2.1608400345e+00
    1.5830044556e+02    2.1622099876e+00
    1.5839988708e+02    2.1635699272e+00
    1.5850000000e+02    2.1649401188e+00
    1.5860021973e+02    2.1663100719e+00
    1.5870045471e+02    2.1676900387e+00
    1.5879995728e+02    2.1690499783e+00
    1.5890005493e+02    2.1704199314e+00
    1.5900018311e+02    2.1717898846e+00
    1.5910032654e+02    2.1731600761e+00
    1.5920010376e+02    2.1745200157e+00
    1.5930018616e+02    2.1758999825e+00
    1.5939996338e+02    2.1772699356e+00
    1.5950044250e+02    2.1786499023e+00
    1.5960008240e+02    2.1800200939e+00
    1.5969981384e+02    2.1813900471e+00
    1.5980052185e+02    2.1827800274e+00
    1.5990046692e+02    2.1841700077e+00
    1.6000032043e+02    2.1855499744e+00
    1.6009983826e+02    2.1869299412e+00
    1.6020010376e+02    2.1883299351e+00
    1.6029995728e+02    2.1897199154e+00
    1.6040031433e+02    2.1911199093e+00
    1.6050001526e+02    2.1925098896e+00
    1.6060009766e+02    2.1939098835e+00
    1.6070030212e+02    2.1953101158e+00
    1.6080047607e+02    2.1967198849e+00
    1.6089999390e+02    2.1981201172e+00
    1.6100010681e+02    2.1995201111e+00
    1.6110049438e+02    2.2009398937e+00
    1.6119999695e+02    2.2023499012e+00
    1.6130006409e+02    2.2037599087e+00
    1.6140020752e+02    2.2051799297e+00
    1.6150010681e+02    2.2065899372e+00
    1.6160044861e+02    2.2080199718e+00
    1.6170036316e+02    2.2094399929e+00
    1.6180000305e+02    2.2108600140e+00
    1.6190020752e+02    2.2122900486e+00
    1.6200059509e+02    2.2137200832e+00
    1.6210009766e+02    2.2151401043e+00
    1.6220033264e+02    2.2165699005e+00
    1.6230026245e+02    2.2180099487e+00
    1.6240016174e+02    2.2194399834e+00
    1.6250039673e+02    2.2208800316e+00
    1.6260049438e+02    2.2223200798e+00
    1.6270051575e+02    2.2237598896e+00
    1.6280009460e+02    2.2251899242e+00
    1.6290036011e+02    2.2266399860e+00
    1.6300067139e+02    2.2280800343e+00
    1.6310046387e+02    2.2295300961e+00
    1.6320060730e+02    2.2309699059e+00
    1.6330068970e+02    2.2324199677e+00
    1.6340060425e+02    2.2338700294e+00
    1.6350022888e+02    2.2353100777e+00
    1.6360043335e+02    2.2367599010e+00
    1.6370057678e+02    2.2382099628e+00
    1.6380027771e+02    2.2396500111e+00
    1.6390042114e+02    2.2411000729e+00
    1.6400050354e+02    2.2425398827e+00
    1.6410063171e+02    2.2439899445e+00
    1.6420051575e+02    2.2454299927e+00
    1.6430064392e+02    2.2468700409e+00
    1.6440040588e+02    2.2483000755e+00
    1.6450032043e+02    2.2497398853e+00
    1.6460075378e+02    2.2511799335e+00
    1.6470025635e+02    2.2525999546e+00
    1.6480085754e+02    2.2540299892e+00
    1.6490045166e+02    2.2554500103e+00
    1.6500076294e+02    2.2568700314e+00
    1.6510075378e+02    2.2582800388e+00
    1.6520033264e+02    2.2596800327e+00
    1.6530078125e+02    2.2610800266e+00
    1.6540075684e+02    2.2624800205e+00
    1.6550059509e+02    2.2638599873e+00
    1.6560087585e+02    2.2652499676e+00
    1.6570039368e+02    2.2666199207e+00
    1.6580020142e+02    2.2679800987e+00
    1.6590025330e+02    2.2693400383e+00
    1.6600065613e+02    2.2706999779e+00
    1.6610038757e+02    2.2720398903e+00
    1.6620092773e+02    2.2733900547e+00
    1.6630027771e+02    2.2747099400e+00
    1.6640031433e+02    2.2760300636e+00
    1.6650032043e+02    2.2773299217e+00
    1.6660067749e+02    2.2786400318e+00
    1.6670048523e+02    2.2799301147e+00
    1.6680085754e+02    2.2812099457e+00
    1.6690049744e+02    2.2824800014e+00
    1.6700088501e+02    2.2837400436e+00
    1.6710093689e+02    2.2849900723e+00
    1.6720075989e+02    2.2862300873e+00
    1.6730068970e+02    2.2874500751e+00
    1.6740060425e+02    2.2886600494e+00
    1.6750085449e+02    2.2898700237e+00
    1.6760044861e+02    2.2910599709e+00
    1.6770069885e+02    2.2922399044e+00
    1.6780032349e+02    2.2934000492e+00
    1.6790058899e+02    2.2945599556e+00
    1.6800033569e+02    2.2957000732e+00
    1.6810072327e+02    2.2968399525e+00
    1.6820048523e+02    2.2979700565e+00
    1.6830053711e+02    2.2990798950e+00
    1.6840081787e+02    2.3001899719e+00
    1.6850044250e+02    2.3012800217e+00
    1.6860084534e+02    2.3023700714e+00
    1.6870086670e+02    2.3034501076e+00
    1.6880070496e+02    2.3045101166e+00
    1.6890065002e+02    2.3055601120e+00
    1.6900047302e+02    2.3066101074e+00
    1.6910060120e+02    2.3076400757e+00
    1.6920109558e+02    2.3086700439e+00
    1.6930081177e+02    2.3096799850e+00
    1.6940092468e+02    2.3106799126e+00
    1.6950067139e+02    2.3116700649e+00
    1.6960041809e+02    2.3126499653e+00
    1.6970054626e+02    2.3136200905e+00
    1.6980088806e+02    2.3145899773e+00
    1.6990049744e+02    2.3155300617e+00
    1.7000071716e+02    2.3164699078e+00
    1.7010079956e+02    2.3173999786e+00
    1.7020091248e+02    2.3183200359e+00
    1.7030056763e+02    2.3192300797e+00
    1.7040107727e+02    2.3201301098e+00
    1.7050120544e+02    2.3210198879e+00
    1.7060101318e+02    2.3218998909e+00
    1.7070065308e+02    2.3227701187e+00
    1.7080068970e+02    2.3236300945e+00
    1.7090081787e+02    2.3244800568e+00
    1.7100096130e+02    2.3253200054e+00
    1.7110054016e+02    2.3261399269e+00
    1.7120091248e+02    2.3269701004e+00
    1.7130114746e+02    2.3277800083e+00
    1.7140115356e+02    2.3285799026e+00
    1.7150120544e+02    2.3293700218e+00
    1.7160078430e+02    2.3301401138e+00
    1.7170094299e+02    2.3309099674e+00
    1.7180094910e+02    2.3316700459e+00
    1.7190065002e+02    2.3324100971e+00
    1.7200073242e+02    2.3331499100e+00
    1.7210090637e+02    2.3338799477e+00
    1.7220123291e+02    2.3345899582e+00
    1.7230088806e+02    2.3352899551e+00
    1.7240121460e+02    2.3359799385e+00
    1.7250129700e+02    2.3366599083e+00
    1.7260125732e+02    2.3373301029e+00
    1.7270074463e+02    2.3379800320e+00
    1.7280105591e+02    2.3386199474e+00
    1.7290113831e+02    2.3392601013e+00
    1.7300123596e+02    2.3398799896e+00
    1.7310125732e+02    2.3405001163e+00
    1.7320112610e+02    2.3410999775e+00
    1.7330062866e+02    2.3416800499e+00
    1.7340078735e+02    2.3422598839e+00
    1.7350129700e+02    2.3428299427e+00
    1.7360098267e+02    2.3433699608e+00
    1.7370132446e+02    2.3439099789e+00
    1.7380079651e+02    2.3444299698e+00
    1.7390110779e+02    2.3449399471e+00
    1.7400100708e+02    2.3454399109e+00
    1.7410136414e+02    2.3459100723e+00
    1.7420108032e+02    2.3463799953e+00
    1.7430137634e+02    2.3468201160e+00
    1.7440136719e+02    2.3472599983e+00
    1.7450111389e+02    2.3476700783e+00
    1.7460098267e+02    2.3480699062e+00
    1.7470103455e+02    2.3484499454e+00
    1.7480108643e+02    2.3488199711e+00
    1.7490080261e+02    2.3491599560e+00
    1.7500125122e+02    2.3494899273e+00
    1.7510084534e+02    2.3498098850e+00
    1.7520114136e+02    2.3501000404e+00
    1.7530096436e+02    2.3503799438e+00
    1.7540141296e+02    2.3506400585e+00
    1.7550126648e+02    2.3508799076e+00
    1.7560098267e+02    2.3510999680e+00
    1.7570133972e+02    2.3513000011e+00
    1.7580134583e+02    2.3514900208e+00
    1.7590150452e+02    2.3516499996e+00
    1.7600137329e+02    2.3517899513e+00
    1.7610144043e+02    2.3519198895e+00
    1.7620147705e+02    2.3520200253e+00
    1.7630104065e+02    2.3521099091e+00
    1.7640124512e+02    2.3521699905e+00
    1.7650154114e+02    2.3522200584e+00
    1.7660107422e+02    2.3522400856e+00
    1.7670132446e+02    2.3522500992e+00
    1.7680126953e+02    2.3522300720e+00
    1.7690101624e+02    2.3522000313e+00
    1.7700143433e+02    2.3521399498e+00
    1.7710098267e+02    2.3520600796e+00
    1.7720158386e+02    2.3519599438e+00
    1.7730104065e+02    2.3518500328e+00
    1.7740148926e+02    2.3517100811e+00
    1.7750126648e+02    2.3515501022e+00
    1.7760148621e+02    2.3513700962e+00
    1.7770109558e+02    2.3511700630e+00
    1.7780140686e+02    2.3509399891e+00
    1.7790118408e+02    2.3506999016e+00
    1.7800096130e+02    2.3504400253e+00
    1.7810113525e+02    2.3501598835e+00
    1.7820112610e+02    2.3498599529e+00
    1.7830134583e+02    2.3495399952e+00
    1.7840167236e+02    2.3492000103e+00
    1.7850123596e+02    2.3488500118e+00
    1.7860136414e+02    2.3484699726e+00
    1.7870147705e+02    2.3480699062e+00
    1.7880119324e+02    2.3476600647e+00
    1.7890168762e+02    2.3472299576e+00
    1.7900169373e+02    2.3467800617e+00
    1.7910133362e+02    2.3463199139e+00
    1.7920137024e+02    2.3458399773e+00
    1.7930120850e+02    2.3453500271e+00
    1.7940133667e+02    2.3448300362e+00
    1.7950115967e+02    2.3443100452e+00
    1.7960136414e+02    2.3437700272e+00
    1.7970118713e+02    2.3432099819e+00
    1.7980157471e+02    2.3426399231e+00
    1.7990109253e+02    2.3420600891e+00
    1.8000146484e+02    2.3414599895e+00
    1.8010174561e+02    2.3408501148e+00
    1.8020117188e+02    2.3402299881e+00
    1.8030130005e+02    2.3395900726e+00
    1.8040176392e+02    2.3389399052e+00
    1.8050114441e+02    2.3382899761e+00
    1.8060108948e+02    2.3376100063e+00
    1.8070152283e+02    2.3369300365e+00
    1.8080171204e+02    2.3362400532e+00
    1.8090148926e+02    2.3355400562e+00
    1.8100154114e+02    2.3348200321e+00
    1.8110171509e+02    2.3341000080e+00
    1.8120132446e+02    2.3333699703e+00
    1.8130154419e+02    2.3326299191e+00
    1.8140155029e+02    2.3318800926e+00
    1.8150129700e+02    2.3311300278e+00
    1.8160121155e+02    2.3303599358e+00
    1.8170150757e+02    2.3295800686e+00
    1.8180130005e+02    2.3287999630e+00
    1.8190156555e+02    2.3280100822e+00
    1.8200187683e+02    2.3272099495e+00
    1.8210130310e+02    2.3264000416e+00
    1.8220132446e+02    2.3255898952e+00
    1.8230139160e+02    2.3247599602e+00
    1.8240132141e+02    2.3239300251e+00
    1.8250129700e+02    2.3230900764e+00
    1.8260139465e+02    2.3222498894e+00
    1.8270182800e+02    2.3213899136e+00
    1.8280131531e+02    2.3205299377e+00
    1.8290150452e+02    2.3196599483e+00
    1.8300166321e+02    2.3187699318e+00
    1.8310177612e+02    2.3178899288e+00
    1.8320193481e+02    2.3169898987e+00
    1.8330145264e+02    2.3160901070e+00
    1.8340155029e+02    2.3151800632e+00
    1.8350178528e+02    2.3142499924e+00
    1.8360183716e+02    2.3133199215e+00
    1.8370199585e+02    2.3123800755e+00
    1.8380137634e+02    2.3114399910e+00
    1.8390188599e+02    2.3104801178e+00
    1.8400143433e+02    2.3095200062e+00
    1.8410165405e+02    2.3085401058e+00
    1.8420162964e+02    2.3075599670e+00
    1.8430183411e+02    2.3065600395e+00
    1.8440173340e+02    2.3055601120e+00
    1.8450172424e+02    2.3045399189e+00
    1.8460185242e+02    2.3035099506e+00
    1.8470205688e+02    2.3024799824e+00
    1.8480157471e+02    2.3014299870e+00
    1.8490164185e+02    2.3003799915e+00
    1.8500201416e+02    2.2992999554e+00
    1.8510145569e+02    2.2982299328e+00
    1.8520176697e+02    2.2971301079e+00
    1.8530145264e+02    2.2960300446e+00
    1.8540156555e+02    2.2949099541e+00
    1.8550141907e+02    2.2937901020e+00
    1.8560156250e+02    2.2926399708e+00
    1.8570210266e+02    2.2914800644e+00
    1.8580177307e+02    2.2903199196e+00
    1.8590199280e+02    2.2891399860e+00
    1.8600187683e+02    2.2879500389e+00
    1.8610154724e+02    2.2867600918e+00
    1.8620187378e+02    2.2855401039e+00
    1.8630163574e+02    2.2843201160e+00
    1.8640202332e+02    2.2830700874e+00
    1.8650170898e+02    2.2818200588e+00
    1.8660214233e+02    2.2805500031e+00
    1.8670207214e+02    2.2792699337e+00
    1.8680184937e+02    2.2779901028e+00
    1.8690165710e+02    2.2766799927e+00
    1.8700221252e+02    2.2753601074e+00
    1.8710208130e+02    2.2740299702e+00
    1.8720199585e+02    2.2726800442e+00
    1.8730194092e+02    2.2713301182e+00
    1.8740191650e+02    2.2699599266e+00
    1.8750193787e+02    2.2685899734e+00
    1.8760198975e+02    2.2671999931e+00
    1.8770208740e+02    2.2657999992e+00
    1.8780220032e+02    2.2643899918e+00
    1.8790165710e+02    2.2629799843e+00
    1.8800184631e+02    2.2615399361e+00
    1.8810206604e+02    2.2600998878e+00
    1.8820162964e+02    2.2586500645e+00
    1.8830192566e+02    2.2571799755e+00
    1.8840226746e+02    2.2557001114e+00
    1.8850192261e+02    2.2542200089e+00
    1.8860162354e+02    2.2527201176e+00
    1.8870207214e+02    2.2511999607e+00
    1.8880183411e+02    2.2496800423e+00
    1.8890164185e+02    2.2481400967e+00
    1.8900219727e+02    2.2465798855e+00
    1.8910206604e+02    2.2450199127e+00
    1.8920196533e+02    2.2434499264e+00
    1.8930191040e+02    2.2418498993e+00
    1.8940190125e+02    2.2402501106e+00
    1.8950192261e+02    2.2386300564e+00
    1.8960197449e+02    2.2369999886e+00
    1.8970208740e+02    2.2353498936e+00
    1.8980221558e+02    2.2336900234e+00
    1.8990168762e+02    2.2320199013e+00
    1.9000190735e+02    2.2303299904e+00
    1.9010234070e+02    2.2286200523e+00
    1.9020201111e+02    2.2269101143e+00
    1.9030235291e+02    2.2251698971e+00
    1.9040191650e+02    2.2234299183e+00
    1.9050230408e+02    2.2216598988e+00
    1.9060203552e+02    2.2198801041e+00
    1.9070176697e+02    2.2180900574e+00
    1.9080224609e+02    2.2162699699e+00
    1.9090202332e+02    2.2144498825e+00
    1.9100183105e+02    2.2126200199e+00
    1.9110237122e+02    2.2107501030e+00
    1.9120222473e+02    2.2088799477e+00
    1.9130209351e+02    2.2070000172e+00
    1.9140199280e+02    2.2051000595e+00
    1.9150190735e+02    2.2031800747e+00
    1.9160185242e+02    2.2012500763e+00
    1.9170181274e+02    2.1993000507e+00
    1.9180195618e+02    2.1973299980e+00
    1.9190196228e+02    2.1953499317e+00
    1.9200201416e+02    2.1933500767e+00
    1.9210206604e+02    2.1913299561e+00
    1.9220216370e+02    2.1892900467e+00
    1.9230226135e+02    2.1872398853e+00
    1.9240237427e+02    2.1851599216e+00
    1.9250251770e+02    2.1830699444e+00
    1.9260195923e+02    2.1809799671e+00
    1.9270213318e+02    2.1788499355e+00
    1.9280232239e+02    2.1767098904e+00
    1.9290255737e+02    2.1745500565e+00
    1.9300207520e+02    2.1723899841e+00
    1.9310232544e+02    2.1701900959e+00
    1.9320187378e+02    2.1679899693e+00
    1.9330218506e+02    2.1657600403e+00
    1.9340249634e+02    2.1635000706e+00
    1.9350213623e+02    2.1612501144e+00
    1.9360250854e+02    2.1589601040e+00
    1.9370219421e+02    2.1566801071e+00
    1.9380262756e+02    2.1543500423e+00
    1.9390235901e+02    2.1520299911e+00
    1.9400212097e+02    2.1496798992e+00
    1.9410191345e+02    2.1473300457e+00
    1.9420248413e+02    2.1449398994e+00
    1.9430235291e+02    2.1425600052e+00
    1.9440228271e+02    2.1401600838e+00
    1.9450222778e+02    2.1377499104e+00
    1.9460223389e+02    2.1353199482e+00
    1.9470227051e+02    2.1328899860e+00
    1.9480235291e+02    2.1304399967e+00
    1.9490249634e+02    2.1279799938e+00
    1.9500195312e+02    2.1255300045e+00
    1.9510221863e+02    2.1230399609e+00
    1.9520252991e+02    2.1205399036e+00
    1.9530218506e+02    2.1180500984e+00
    1.9540260315e+02    2.1155300140e+00
    1.9550236511e+02    2.1130099297e+00
    1.9560220337e+02    2.1104900837e+00
    1.9570207214e+02    2.1079499722e+00
    1.9580201721e+02    2.1054000854e+00
    1.9590274048e+02    2.1028199196e+00
    1.9600205994e+02    2.1002700329e+00
    1.9610215759e+02    2.0976800919e+00
    1.9620231628e+02    2.0950899124e+00
    1.9630253601e+02    2.0924799442e+00
    1.9640206909e+02    2.0898799896e+00
    1.9650241089e+02    2.0872600079e+00
    1.9660206604e+02    2.0846400261e+00
    1.9670254517e+02    2.0819900036e+00
    1.9680232239e+02    2.0793499947e+00
    1.9690220642e+02    2.0767099857e+00
    1.9700213623e+02    2.0740499496e+00
    1.9710215759e+02    2.0713799000e+00
    1.9720222473e+02    2.0687100887e+00
    1.9730238342e+02    2.0660200119e+00
    1.9740260315e+02    2.0633299351e+00
    1.9750216675e+02    2.0606400967e+00
    1.9760252380e+02    2.0579299927e+00
    1.9770220947e+02    2.0552198887e+00
    1.9780270386e+02    2.0524899960e+00
    1.9790252686e+02    2.0497701168e+00
    1.9800242615e+02    2.0470299721e+00
    1.9810238647e+02    2.0442900658e+00
    1.9820240784e+02    2.0415399075e+00
    1.9830250549e+02    2.0387799740e+00
    1.9840266418e+02    2.0360100269e+00
    1.9850216675e+02    2.0332500935e+00
    1.9860247803e+02    2.0304598808e+00
    1.9870286560e+02    2.0276598930e+00
    1.9880258179e+02    2.0248799324e+00
    1.9890237427e+02    2.0220799446e+00
    1.9900221252e+02    2.0192699432e+00
    1.9910290527e+02    2.0164299011e+00
    1.9920289612e+02    2.0136001110e+00
    1.9930221558e+02    2.0107800961e+00
    1.9940234375e+02    2.0079300404e+00
    1.9950253296e+02    2.0050699711e+00
    1.9960281372e+02    2.0021901131e+00
    1.9970239258e+02    1.9993300438e+00
    1.9980279541e+02    1.9964300394e+00
    1.9990251160e+02    1.9935400486e+00
endcurve
