Curveplot
LS-DYNA keyword deck by LS-PrePost
Abscissa
Ordinate
XY data
NBDLHeadzCoo-1 #pts=2000
* Minval=    -6.2366798401e+01 at time=       175.4014129639
* Maxval=     1.5358110046e+02 at time=         0.0000000000
    0.0000000000e+00    1.5358110046e+02
    9.9515393376e-02    1.5358110046e+02
    1.9903078675e-01    1.5358110046e+02
    2.9854616523e-01    1.5358110046e+02
    3.9919695258e-01    1.5358110046e+02
    4.9998536706e-01    1.5358110046e+02
    5.9916532040e-01    1.5358110046e+02
    6.9868075848e-01    1.5358110046e+02
    7.9972714186e-01    1.5358110046e+02
    8.9924252033e-01    1.5358110046e+02
    9.9875795841e-01    1.5358110046e+02
    1.0998042822e+00    1.5358110046e+02
    1.1993197203e+00    1.5358110046e+02
    1.2988351583e+00    1.5358110046e+02
    1.3998814821e+00    1.5358110046e+02
    1.4993969202e+00    1.5358110046e+02
    1.5989123583e+00    1.5358110046e+02
    1.6999586821e+00    1.5358110046e+02
    1.7994741201e+00    1.5358110046e+02
    1.8989895582e+00    1.5358110046e+02
    1.9987715483e+00    1.5358110046e+02
    2.0997836590e+00    1.5358110046e+02
    2.1987915039e+00    1.5358110046e+02
    2.2992186546e+00    1.5358110046e+02
    2.3984160423e+00    1.5358110046e+02
    2.4986541271e+00    1.5358110046e+02
    2.5992875099e+00    1.5358110046e+02
    2.6992416382e+00    1.5358110046e+02
    2.7999699116e+00    1.5358110046e+02
    2.8991670609e+00    1.5358110046e+02
    2.9999897480e+00    1.5358110046e+02
    3.0990922451e+00    1.5358110046e+02
    3.1985731125e+00    1.5358110046e+02
    3.2984328270e+00    1.5358110046e+02
    3.3992559910e+00    1.5358110046e+02
    3.4990212917e+00    1.5358110046e+02
    3.5985026360e+00    1.5358110046e+02
    3.6992311478e+00    1.5358110046e+02
    3.7998652458e+00    1.5358110046e+02
    3.8988740444e+00    1.5358110046e+02
    3.9990353584e+00    1.5358110046e+02
    4.0985174179e+00    1.5358110046e+02
    4.1999258995e+00    1.5358110046e+02
    4.2999753952e+00    1.5358110046e+02
    4.3995518684e+00    1.5358110046e+02
    4.4986557961e+00    1.5358110046e+02
    4.5997633934e+00    1.5358110046e+02
    4.6992454529e+00    1.5358110046e+02
    4.7986330986e+00    1.5358110046e+02
    4.8989844322e+00    1.5358110046e+02
    4.9990515709e+00    1.5358110046e+02
    5.0992908478e+00    1.5358110046e+02
    5.1989626884e+00    1.5358110046e+02
    5.2987284660e+00    1.5358110046e+02
    5.3996472359e+00    1.5358110046e+02
    5.4989404678e+00    1.5358110046e+02
    5.5998592377e+00    1.5358110046e+02
    5.6996421814e+00    1.5358110046e+02
    5.7985396385e+00    1.5358110046e+02
    5.8993639946e+00    1.5358110046e+02
    5.9997148514e+00    1.5358110046e+02
    6.0993862152e+00    1.5358110046e+02
    6.1994366646e+00    1.5358110046e+02
    6.2985405922e+00    1.5358110046e+02
    6.3990807533e+00    1.5358110046e+02
    6.4991307259e+00    1.5358110046e+02
    6.5986304283e+00    1.5358110046e+02
    6.6988697052e+00    1.5358110046e+02
    6.7985410690e+00    1.5358110046e+02
    6.8990817070e+00    1.5358110046e+02
    6.9992432594e+00    1.5358110046e+02
    7.0990095139e+00    1.5358110046e+02
    7.1990590096e+00    1.5358110046e+02
    7.2999773026e+00    1.5358110046e+02
    7.3987021446e+00    1.5358110046e+02
    7.4998097420e+00    1.5358110046e+02
    7.5993862152e+00    1.5358110046e+02
    7.6986780167e+00    1.5358110046e+02
    7.7997856140e+00    1.5358110046e+02
    7.8989834785e+00    1.5358110046e+02
    7.9985599518e+00    1.5358110046e+02
    8.0992889404e+00    1.5358110046e+02
    8.1986761093e+00    1.5358110046e+02
    8.2988376617e+00    1.5358110046e+02
    8.3997554779e+00    1.5358110046e+02
    8.4995212555e+00    1.5358110046e+02
    8.5999670029e+00    1.5358110046e+02
    8.6998271942e+00    1.5358110046e+02
    8.7996873856e+00    1.5358110046e+02
    8.8994703293e+00    1.5358110046e+02
    8.9987630844e+00    1.5358110046e+02
    9.0990009308e+00    1.5358110046e+02
    9.1986722946e+00    1.5358110046e+02
    9.2994966507e+00    1.5358110046e+02
    9.3985052109e+00    1.5358110046e+02
    9.4999904633e+00    1.5358110046e+02
    9.5994729996e+00    1.5358110046e+02
    9.6989545822e+00    1.5358110046e+02
    9.7997779846e+00    1.5358110046e+02
    9.8986930847e+00    1.5358110046e+02
    9.9994220734e+00    1.5358110046e+02
    1.0099582672e+01    1.5358110046e+02
    1.0198969841e+01    1.5358110046e+02
    1.0299414635e+01    1.5358110046e+02
    1.0398991585e+01    1.5358110046e+02
    1.0499041557e+01    1.5358110046e+02
    1.0599014282e+01    1.5358110046e+02
    1.0698495865e+01    1.5358110046e+02
    1.0799792290e+01    1.5358110046e+02
    1.0899180412e+01    1.5358110046e+02
    1.0999530792e+01    1.5358110046e+02
    1.1099390984e+01    1.5358110046e+02
    1.1199252129e+01    1.5358110046e+02
    1.1298733711e+01    1.5358110046e+02
    1.1399935722e+01    1.5358110046e+02
    1.1498945236e+01    1.5358110046e+02
    1.1598805428e+01    1.5358110046e+02
    1.1698571205e+01    1.5358110046e+02
    1.1799016953e+01    1.5358110046e+02
    1.1898688316e+01    1.5358110046e+02
    1.1998643875e+01    1.5358110046e+02
    1.2098995209e+01    1.5358110046e+02
    1.2199251175e+01    1.5358110046e+02
    1.2299867630e+01    1.5358110046e+02
    1.2399635315e+01    1.5358110046e+02
    1.2498832703e+01    1.5358110046e+02
    1.2599088669e+01    1.5358110046e+02
    1.2699611664e+01    1.5358110046e+02
    1.2798906326e+01    1.5358110046e+02
    1.2899145126e+01    1.5358110046e+02
    1.2998533249e+01    1.5358110046e+02
    1.3099167824e+01    1.5358110046e+02
    1.3198857307e+01    1.5358110046e+02
    1.3299491882e+01    1.5358110046e+02
    1.3398673058e+01    1.5358110046e+02
    1.3499291420e+01    1.5358110046e+02
    1.3598773003e+01    1.5358110046e+02
    1.3698634148e+01    1.5358110046e+02
    1.3799268723e+01    1.5358110046e+02
    1.3899998665e+01    1.5358110046e+02
    1.3999101639e+01    1.5358110046e+02
    1.4099246979e+01    1.5358110046e+02
    1.4199881554e+01    1.5358110046e+02
    1.4298986435e+01    1.5358110046e+02
    1.4399998665e+01    1.5358110046e+02
    1.4499386787e+01    1.5358110046e+02
    1.4599926949e+01    1.5358110046e+02
    1.4698746681e+01    1.5358110046e+02
    1.4798418999e+01    1.5358110046e+02
    1.4899717331e+01    1.5358110046e+02
    1.4999690056e+01    1.5358110046e+02
    1.5098698616e+01    1.5358110046e+02
    1.5199808121e+01    1.5358110046e+02
    1.5298722267e+01    1.5358110046e+02
    1.5399736404e+01    1.5358110046e+02
    1.5499786377e+01    1.5358110046e+02
    1.5598494530e+01    1.5358110046e+02
    1.5699130058e+01    1.5358110046e+02
    1.5799481392e+01    1.5358110046e+02
    1.5899341583e+01    1.5358110046e+02
    1.5999202728e+01    1.5358110046e+02
    1.6098873138e+01    1.5358110046e+02
    1.6199869156e+01    1.5358110046e+02
    1.6298784256e+01    1.5358110046e+02
    1.6399703979e+01    1.5358110046e+02
    1.6498901367e+01    1.5358110046e+02
    1.6599630356e+01    1.5358110046e+02
    1.6699113846e+01    1.5358110046e+02
    1.6798973083e+01    1.5358110046e+02
    1.6898473740e+01    1.5358110046e+02
    1.6999675751e+01    1.5358110046e+02
    1.7099836349e+01    1.5358110046e+02
    1.7199035645e+01    1.5358110046e+02
    1.7298894882e+01    1.5358110046e+02
    1.7399719238e+01    1.5358110046e+02
    1.7498538971e+01    1.5358110046e+02
    1.7599552155e+01    1.5358110046e+02
    1.7698938370e+01    1.5358110046e+02
    1.7799478531e+01    1.5358110046e+02
    1.7898771286e+01    1.5358110046e+02
    1.7998743057e+01    1.5358110046e+02
    1.8098791122e+01    1.5358110046e+02
    1.8199710846e+01    1.5358110046e+02
    1.8299190521e+01    1.5358110046e+02
    1.8399919510e+01    1.5358110046e+02
    1.8499591827e+01    1.5358110046e+02
    1.8599260330e+01    1.5358110046e+02
    1.8698553085e+01    1.5358110046e+02
    1.8799566269e+01    1.5358110046e+02
    1.8898859024e+01    1.5358110046e+02
    1.8999588013e+01    1.5358110046e+02
    1.9099353790e+01    1.5358110046e+02
    1.9199970245e+01    1.5358110046e+02
    1.9299640656e+01    1.5358110046e+02
    1.9399122238e+01    1.5358110046e+02
    1.9498510361e+01    1.5358110046e+02
    1.9598955154e+01    1.5358110046e+02
    1.9698722839e+01    1.5358110046e+02
    1.9798582077e+01    1.5358110046e+02
    1.9899501801e+01    1.5358110046e+02
    1.9999662399e+01    1.5358110046e+02
    2.0099050522e+01    1.5358110046e+02
    2.0199874878e+01    1.5358110046e+02
    2.0299072266e+01    1.5358110046e+02
    2.0398460388e+01    1.5358110046e+02
    2.0499473572e+01    1.5358110046e+02
    2.0599523544e+01    1.5358110046e+02
    2.0698909760e+01    1.5358110046e+02
    2.0799734116e+01    1.5358110046e+02
    2.0898649216e+01    1.5358110046e+02
    2.0999851227e+01    1.5358110046e+02
    2.1099428177e+01    1.5358110046e+02
    2.1199968338e+01    1.5358110046e+02
    2.1299072266e+01    1.5358110046e+02
    2.1399801254e+01    1.5358110046e+02
    2.1498809814e+01    1.5358110046e+02
    2.1599916458e+01    1.5358110046e+02
    2.1699588776e+01    1.5358110046e+02
    2.1798879623e+01    1.5358110046e+02
    2.1898551941e+01    1.5358110046e+02
    2.1998712540e+01    1.5358110046e+02
    2.2099534988e+01    1.5358110046e+02
    2.2199394226e+01    1.5358110046e+02
    2.2298591614e+01    1.5358110046e+02
    2.2399604797e+01    1.5358110046e+02
    2.2499671936e+01    1.5358110046e+02
    2.2598567963e+01    1.5358110046e+02
    2.2698917389e+01    1.5358110046e+02
    2.2799835205e+01    1.5358110046e+02
    2.2898939133e+01    1.5358110046e+02
    2.2999288559e+01    1.5358110046e+02
    2.3098676682e+01    1.5358110046e+02
    2.3199403763e+01    1.5358110046e+02
    2.3298980713e+01    1.5358110046e+02
    2.3399803162e+01    1.5358110046e+02
    2.3498905182e+01    1.5358110046e+02
    2.3599067688e+01    1.5358110046e+02
    2.3698453903e+01    1.5358110046e+02
    2.3799560547e+01    1.5358110046e+02
    2.3899797440e+01    1.5358110046e+02
    2.3998994827e+01    1.5358110046e+02
    2.4099439621e+01    1.5358110046e+02
    2.4198825836e+01    1.5358110046e+02
    2.4299837112e+01    1.5358110046e+02
    2.4399713516e+01    1.5358110046e+02
    2.4499780655e+01    1.5358110046e+02
    2.4599828720e+01    1.5358110046e+02
    2.4699403763e+01    1.5358110046e+02
    2.4799470901e+01    1.5358110046e+02
    2.4899913788e+01    1.5358110046e+02
    2.4998714447e+01    1.5358110046e+02
    2.5099727631e+01    1.5358110046e+02
    2.5199869156e+01    1.5358110046e+02
    2.5298593521e+01    1.5358110046e+02
    2.5398847580e+01    1.5358110046e+02
    2.5499101639e+01    1.5358110046e+02
    2.5598770142e+01    1.5358110046e+02
    2.5699592590e+01    1.5358110046e+02
    2.5799072266e+01    1.5358110046e+02
    2.5899423599e+01    1.5358110046e+02
    2.5999961853e+01    1.5358110046e+02
    2.6099536896e+01    1.5358110046e+02
    2.6199489594e+01    1.5358110046e+02
    2.6298969269e+01    1.5358110046e+02
    2.6398544312e+01    1.5358110046e+02
    2.6499082565e+01    1.5358110046e+02
    2.6598941803e+01    1.5358110046e+02
    2.6699100494e+01    1.5358110046e+02
    2.6799337387e+01    1.5358110046e+02
    2.6898817062e+01    1.5358110046e+02
    2.6999450684e+01    1.5358009338e+02
    2.7098741531e+01    1.5358009338e+02
    2.7199373245e+01    1.5358009338e+02
    2.7298759460e+01    1.5358009338e+02
    2.7399581909e+01    1.5358009338e+02
    2.7499628067e+01    1.5358009338e+02
    2.7598823547e+01    1.5358009338e+02
    2.7698587418e+01    1.5358009338e+02
    2.7799692154e+01    1.5358009338e+02
    2.7899946213e+01    1.5358009338e+02
    2.7999805450e+01    1.5358009338e+02
    2.8099189758e+01    1.5358009338e+02
    2.8198669434e+01    1.5358009338e+02
    2.8298830032e+01    1.5358009338e+02
    2.8398799896e+01    1.5358009338e+02
    2.8499620438e+01    1.5358009338e+02
    2.8599384308e+01    1.5358009338e+02
    2.8699241638e+01    1.5358009338e+02
    2.8800064087e+01    1.5358009338e+02
    2.8898485184e+01    1.5358009338e+02
    2.8999307632e+01    1.5358009338e+02
    2.9099559784e+01    1.5358009338e+02
    2.9198755264e+01    1.5358009338e+02
    2.9298612595e+01    1.5358009338e+02
    2.9399623871e+01    1.5358009338e+02
    2.9498723984e+01    1.5358009338e+02
    2.9599639893e+01    1.5358009338e+02
    2.9698928833e+01    1.5358009338e+02
    2.9799938202e+01    1.5358009338e+02
    2.9898851395e+01    1.5358009338e+02
    2.9999860764e+01    1.5358009338e+02
    3.0099245071e+01    1.5358009338e+02
    3.0198818207e+01    1.5358009338e+02
    3.0299165726e+01    1.5358009338e+02
    3.0399419785e+01    1.5358009338e+02
    3.0498897552e+01    1.5358009338e+02
    3.0599813461e+01    1.5358009338e+02
    3.0699970245e+01    1.5358009338e+02
    3.0799070358e+01    1.5358009338e+02
    3.0899986267e+01    1.5358009338e+02
    3.0999954224e+01    1.5358009338e+02
    3.1098566055e+01    1.5358009338e+02
    3.1199972153e+01    1.5358009338e+02
    3.1300018311e+01    1.5358009338e+02
    3.1398740768e+01    1.5358009338e+02
    3.1499656677e+01    1.5358009338e+02
    3.1598850250e+01    1.5358009338e+02
    3.1699180603e+01    1.5358009338e+02
    3.1798566818e+01    1.5358009338e+02
    3.1899387360e+01    1.5358009338e+02
    3.1999338150e+01    1.5358009338e+02
    3.2099006653e+01    1.5358009338e+02
    3.2198581696e+01    1.5358009338e+02
    3.2299400330e+01    1.5358009338e+02
    3.2399749756e+01    1.5358009338e+02
    3.2498928070e+01    1.5358009338e+02
    3.2599273682e+01    1.5358009338e+02
    3.2698657990e+01    1.5358009338e+02
    3.2799385071e+01    1.5358009338e+02
    3.2900016785e+01    1.5358009338e+02
    3.2998546600e+01    1.5358009338e+02
    3.3099838257e+01    1.5358009338e+02
    3.3198562622e+01    1.5358009338e+02
    3.3299758911e+01    1.5358009338e+02
    3.3398670197e+01    1.5358009338e+02
    3.3498638153e+01    1.5358009338e+02
    3.3599079132e+01    1.5358009338e+02
    3.3698951721e+01    1.5357910156e+02
    3.3798431396e+01    1.5357910156e+02
    3.3899627686e+01    1.5357910156e+02
    3.3998821259e+01    1.5357910156e+02
    3.4099548340e+01    1.5357910156e+02
    3.4198932648e+01    1.5357910156e+02
    3.4299560547e+01    1.5357910156e+02
    3.4398563385e+01    1.5357910156e+02
    3.4499668121e+01    1.5357910156e+02
    3.4599334717e+01    1.5357910156e+02
    3.4699398041e+01    1.5357910156e+02
    3.4798496246e+01    1.5357910156e+02
    3.4898841858e+01    1.5357910156e+02
    3.4999565125e+01    1.5357910156e+02
    3.5099231720e+01    1.5357910156e+02
    3.5198425293e+01    1.5357910156e+02
    3.5299053192e+01    1.5357910156e+02
    3.5398719788e+01    1.5357910156e+02
    3.5499538422e+01    1.5357910156e+02
    3.5599014282e+01    1.5357910156e+02
    3.5699077606e+01    1.5357910156e+02
    3.5799800873e+01    1.5357910156e+02
    3.5898616791e+01    1.5357910156e+02
    3.5999435425e+01    1.5357910156e+02
    3.6099006653e+01    1.5357910156e+02
    3.6199161530e+01    1.5357910156e+02
    3.6299301147e+01    1.5357910156e+02
    3.6399154663e+01    1.5357910156e+02
    3.6499691010e+01    1.5357910156e+02
    3.6599826813e+01    1.5357910156e+02
    3.6698833466e+01    1.5357910156e+02
    3.6799461365e+01    1.5357910156e+02
    3.6899993896e+01    1.5357910156e+02
    3.6999942780e+01    1.5357809448e+02
    3.7099327087e+01    1.5357809448e+02
    3.7199275970e+01    1.5357809448e+02
    3.7298751831e+01    1.5357809448e+02
    3.7399192810e+01    1.5357809448e+02
    3.7499252319e+01    1.5357809448e+02
    3.7599407196e+01    1.5357809448e+02
    3.7699451447e+01    1.5357809448e+02
    3.7799777985e+01    1.5357809448e+02
    3.7898876190e+01    1.5357809448e+02
    3.7999885559e+01    1.5357809448e+02
    3.8099170685e+01    1.5357809448e+02
    3.8199310303e+01    1.5357809448e+02
    3.8299068451e+01    1.5357809448e+02
    3.8399036407e+01    1.5357809448e+02
    3.8499191284e+01    1.5357809448e+02
    3.8598476410e+01    1.5357809448e+02
    3.8699672699e+01    1.5357809448e+02
    3.8798580170e+01    1.5357809448e+02
    3.8898906708e+01    1.5357809448e+02
    3.8999046326e+01    1.5357809448e+02
    3.9098823547e+01    1.5357809448e+02
    3.9199245453e+01    1.5357809448e+02
    3.9299682617e+01    1.5357809448e+02
    3.9398479462e+01    1.5357710266e+02
    3.9499393463e+01    1.5357710266e+02
    3.9599830627e+01    1.5357710266e+02
    3.9699115753e+01    1.5357710266e+02
    3.9799934387e+01    1.5357710266e+02
    3.9898559570e+01    1.5357710266e+02
    3.9999374390e+01    1.5357710266e+02
    4.0098472595e+01    1.5357710266e+02
    4.0198894501e+01    1.5357710266e+02
    4.0299522400e+01    1.5357710266e+02
    4.0399772644e+01    1.5357710266e+02
    4.0498867035e+01    1.5357710266e+02
    4.0599777222e+01    1.5357710266e+02
    4.0698593140e+01    1.5357710266e+02
    4.0799407959e+01    1.5357710266e+02
    4.0899356842e+01    1.5357710266e+02
    4.0998737335e+01    1.5357710266e+02
    4.1099365234e+01    1.5357710266e+02
    4.1198650360e+01    1.5357609558e+02
    4.1299182892e+01    1.5357609558e+02
    4.1399623871e+01    1.5357609558e+02
    4.1498718262e+01    1.5357609558e+02
    4.1599914551e+01    1.5357609558e+02
    4.1699768066e+01    1.5357609558e+02
    4.1799335480e+01    1.5357609558e+02
    4.1898998260e+01    1.5357609558e+02
    4.1999061584e+01    1.5357609558e+02
    4.2098346710e+01    1.5357609558e+02
    4.2198879242e+01    1.5357609558e+02
    4.2299804688e+01    1.5357609558e+02
    4.2398601532e+01    1.5357609558e+02
    4.2499416351e+01    1.5357609558e+02
    4.2599082947e+01    1.5357609558e+02
    4.2698951721e+01    1.5357609558e+02
    4.2799392700e+01    1.5357510376e+02
    4.2898960114e+01    1.5357510376e+02
    4.2999210358e+01    1.5357510376e+02
    4.3098777771e+01    1.5357510376e+02
    4.3199687958e+01    1.5357510376e+02
    4.3298877716e+01    1.5357510376e+02
    4.3399696350e+01    1.5357510376e+02
    4.3499641418e+01    1.5357510376e+02
    4.3599212646e+01    1.5357510376e+02
    4.3699554443e+01    1.5357510376e+02
    4.3798934937e+01    1.5357510376e+02
    4.3899654388e+01    1.5357510376e+02
    4.3999221802e+01    1.5357510376e+02
    4.4098506927e+01    1.5357409668e+02
    4.4199607849e+01    1.5357409668e+02
    4.4298606873e+01    1.5357409668e+02
    4.4398460388e+01    1.5357409668e+02
    4.4499748230e+01    1.5357409668e+02
    4.4599220276e+01    1.5357409668e+02
    4.4699848175e+01    1.5357409668e+02
    4.4799129486e+01    1.5357409668e+02
    4.4898319244e+01    1.5357409668e+02
    4.4999607086e+01    1.5357409668e+02
    4.5098796844e+01    1.5357409668e+02
    4.5199234009e+01    1.5357409668e+02
    4.5298706055e+01    1.5357310486e+02
    4.5399803162e+01    1.5357310486e+02
    4.5498710632e+01    1.5357310486e+02
    4.5599807739e+01    1.5357310486e+02
    4.5699848175e+01    1.5357310486e+02
    4.5799320221e+01    1.5357310486e+02
    4.5899379730e+01    1.5357310486e+02
    4.5999511719e+01    1.5357310486e+02
    4.6099174500e+01    1.5357310486e+02
    4.6199310303e+01    1.5357310486e+02
    4.6298686981e+01    1.5357310486e+02
    4.6399215698e+01    1.5357209778e+02
    4.6498405457e+01    1.5357209778e+02
    4.6598541260e+01    1.5357209778e+02
    4.6699733734e+01    1.5357209778e+02
    4.6798824310e+01    1.5357209778e+02
    4.6899829865e+01    1.5357209778e+02
    4.6998733521e+01    1.5357209778e+02
    4.7098583221e+01    1.5357209778e+02
    4.7199489594e+01    1.5357209778e+02
    4.7298679352e+01    1.5357209778e+02
    4.7399112701e+01    1.5357110596e+02
    4.7498397827e+01    1.5357110596e+02
    4.7599681854e+01    1.5357110596e+02
    4.7699344635e+01    1.5357110596e+02
    4.7799003601e+01    1.5357110596e+02
    4.7899059296e+01    1.5357110596e+02
    4.7998832703e+01    1.5357110596e+02
    4.8098682404e+01    1.5357110596e+02
    4.8198436737e+01    1.5357110596e+02
    4.8298870087e+01    1.5357009888e+02
    4.8399776459e+01    1.5357009888e+02
    4.8499343872e+01    1.5357009888e+02
    4.8598529816e+01    1.5357009888e+02
    4.8699340820e+01    1.5357009888e+02
    4.8799381256e+01    1.5357009888e+02
    4.8899814606e+01    1.5357009888e+02
    4.8999095917e+01    1.5357009888e+02
    4.9099243164e+01    1.5356910706e+02
    4.9198432922e+01    1.5356910706e+02
    4.9299133301e+01    1.5356910706e+02
    4.9399658203e+01    1.5356910706e+02
    4.9499221802e+01    1.5356910706e+02
    4.9598976135e+01    1.5356910706e+02
    4.9699218750e+01    1.5356910706e+02
    4.9798217773e+01    1.5356910706e+02
    4.9899501801e+01    1.5356809998e+02
    4.9998592377e+01    1.5356809998e+02
    5.0099121094e+01    1.5356809998e+02
    5.0199550629e+01    1.5356809998e+02
    5.0299209595e+01    1.5356809998e+02
    5.0399738312e+01    1.5356809998e+02
    5.0499015808e+01    1.5356809998e+02
    5.0598392487e+01    1.5356709290e+02
    5.0699485779e+01    1.5356709290e+02
    5.0798198700e+01    1.5356709290e+02
    5.0899196625e+01    1.5356709290e+02
    5.0998287201e+01    1.5356709290e+02
    5.1099380493e+01    1.5356709290e+02
    5.1198562622e+01    1.5356709290e+02
    5.1299263000e+01    1.5356610107e+02
    5.1398841858e+01    1.5356610107e+02
    5.1498310089e+01    1.5356610107e+02
    5.1598628998e+01    1.5356610107e+02
    5.1698474884e+01    1.5356610107e+02
    5.1798999786e+01    1.5356610107e+02
    5.1898277283e+01    1.5356509399e+02
    5.1999561310e+01    1.5356509399e+02
    5.2098461151e+01    1.5356509399e+02
    5.2199459076e+01    1.5356509399e+02
    5.2299320221e+01    1.5356509399e+02
    5.2398788452e+01    1.5356509399e+02
    5.2499217987e+01    1.5356410217e+02
    5.2598590851e+01    1.5356410217e+02
    5.2699115753e+01    1.5356410217e+02
    5.2799732208e+01    1.5356410217e+02
    5.2899295807e+01    1.5356410217e+02
    5.2998855591e+01    1.5356410217e+02
    5.3098716736e+01    1.5356309509e+02
    5.3199050903e+01    1.5356309509e+02
    5.3298706055e+01    1.5356309509e+02
    5.3399307251e+01    1.5356309509e+02
    5.3499450684e+01    1.5356309509e+02
    5.3599216461e+01    1.5356309509e+02
    5.3699153900e+01    1.5356210327e+02
    5.3798336029e+01    1.5356210327e+02
    5.3899143219e+01    1.5356210327e+02
    5.3998813629e+01    1.5356210327e+02
    5.4098182678e+01    1.5356210327e+02
    5.4199180603e+01    1.5356109619e+02
    5.4299037933e+01    1.5356109619e+02
    5.4399276733e+01    1.5356109619e+02
    5.4498458862e+01    1.5356109619e+02
    5.4599452972e+01    1.5356109619e+02
    5.4699501038e+01    1.5356010437e+02
    5.4799358368e+01    1.5356010437e+02
    5.4898635864e+01    1.5356010437e+02
    5.4999721527e+01    1.5356010437e+02
    5.5098430634e+01    1.5356010437e+02
    5.5198947906e+01    1.5355909729e+02
    5.5298599243e+01    1.5355909729e+02
    5.5399593353e+01    1.5355909729e+02
    5.5499153137e+01    1.5355909729e+02
    5.5599292755e+01    1.5355909729e+02
    5.5699054718e+01    1.5355810547e+02
    5.5799385071e+01    1.5355810547e+02
    5.5899620056e+01    1.5355810547e+02
    5.5999271393e+01    1.5355810547e+02
    5.6098258972e+01    1.5355709839e+02
    5.6199535370e+01    1.5355709839e+02
    5.6298995972e+01    1.5355709839e+02
    5.6399326324e+01    1.5355709839e+02
    5.6498691559e+01    1.5355610657e+02
    5.6598247528e+01    1.5355610657e+02
    5.6698856354e+01    1.5355610657e+02
    5.6798789978e+01    1.5355610657e+02
    5.6898628235e+01    1.5355509949e+02
    5.6998863220e+01    1.5355509949e+02
    5.7098621368e+01    1.5355509949e+02
    5.7199138641e+01    1.5355509949e+02
    5.7299072266e+01    1.5355410767e+02
    5.7398738861e+01    1.5355410767e+02
    5.7499347687e+01    1.5355410767e+02
    5.7598522186e+01    1.5355410767e+02
    5.7698379517e+01    1.5355310059e+02
    5.7798229218e+01    1.5355310059e+02
    5.7899520874e+01    1.5355310059e+02
    5.7999263763e+01    1.5355310059e+02
    5.8098831177e+01    1.5355209351e+02
    5.8199062347e+01    1.5355209351e+02
    5.8298709869e+01    1.5355209351e+02
    5.8398559570e+01    1.5355209351e+02
    5.8498222351e+01    1.5355110168e+02
    5.8598056793e+01    1.5355110168e+02
    5.8698856354e+01    1.5355110168e+02
    5.8798988342e+01    1.5355009460e+02
    5.8899501801e+01    1.5355009460e+02
    5.8999050140e+01    1.5355009460e+02
    5.9098602295e+01    1.5354910278e+02
    5.9198642731e+01    1.5354910278e+02
    5.9298397064e+01    1.5354910278e+02
    5.9399475098e+01    1.5354910278e+02
    5.9498359680e+01    1.5354809570e+02
    5.9599155426e+01    1.5354809570e+02
    5.9698909760e+01    1.5354809570e+02
    5.9798171997e+01    1.5354710388e+02
    5.9898681641e+01    1.5354710388e+02
    5.9999000549e+01    1.5354710388e+02
    6.0098262787e+01    1.5354609680e+02
    6.0198204041e+01    1.5354609680e+02
    6.0298240662e+01    1.5354609680e+02
    6.0398937225e+01    1.5354510498e+02
    6.0498577118e+01    1.5354510498e+02
    6.0599178314e+01    1.5354510498e+02
    6.0699592590e+01    1.5354409790e+02
    6.0798377991e+01    1.5354409790e+02
    6.0899074554e+01    1.5354310608e+02
    6.0998443604e+01    1.5354310608e+02
    6.1098476410e+01    1.5354310608e+02
    6.1198600769e+01    1.5354209900e+02
    6.1299106598e+01    1.5354209900e+02
    6.1399612427e+01    1.5354209900e+02
    6.1498882294e+01    1.5354110718e+02
    6.1598140717e+01    1.5354110718e+02
    6.1698738098e+01    1.5354010010e+02
    6.1798957825e+01    1.5354010010e+02
    6.1899269104e+01    1.5354010010e+02
    6.1998050690e+01    1.5353909302e+02
    6.2099304199e+01    1.5353909302e+02
    6.2199333191e+01    1.5353810120e+02
    6.2298397064e+01    1.5353810120e+02
    6.2398803711e+01    1.5353810120e+02
    6.2498924255e+01    1.5353709412e+02
    6.2598663330e+01    1.5353709412e+02
    6.2698974609e+01    1.5353610229e+02
    6.2798431396e+01    1.5353610229e+02
    6.2899211884e+01    1.5353509521e+02
    6.2999137878e+01    1.5353509521e+02
    6.3098785400e+01    1.5353410339e+02
    6.3198616028e+01    1.5353410339e+02
    6.3298828125e+01    1.5353309631e+02
    6.3398468018e+01    1.5353309631e+02
    6.3498867035e+01    1.5353210449e+02
    6.3598884583e+01    1.5353210449e+02
    6.3698619843e+01    1.5353210449e+02
    6.3798069000e+01    1.5353109741e+02
    6.3899238586e+01    1.5353010559e+02
    6.3999160767e+01    1.5353010559e+02
    6.4098510742e+01    1.5352909851e+02
    6.4198432922e+01    1.5352909851e+02
    6.4299110413e+01    1.5352810669e+02
    6.4398269653e+01    1.5352810669e+02
    6.4498748779e+01    1.5352709961e+02
    6.4599136353e+01    1.5352709961e+02
    6.4699546814e+01    1.5352610779e+02
    6.4798210144e+01    1.5352610779e+02
    6.4899467468e+01    1.5352510071e+02
    6.4998886108e+01    1.5352510071e+02
    6.5099365234e+01    1.5352409363e+02
    6.5199180603e+01    1.5352310181e+02
    6.5298225403e+01    1.5352310181e+02
    6.5397949219e+01    1.5352209473e+02
    6.5498893738e+01    1.5352209473e+02
    6.5599288940e+01    1.5352110291e+02
    6.5699012756e+01    1.5352009583e+02
    6.5798347473e+01    1.5352009583e+02
    6.5898254395e+01    1.5351910400e+02
    6.5998626709e+01    1.5351809692e+02
    6.6099098206e+01    1.5351809692e+02
    6.6198532104e+01    1.5351710510e+02
    6.6298622131e+01    1.5351609802e+02
    6.6398422241e+01    1.5351609802e+02
    6.6498611450e+01    1.5351510620e+02
    6.6598983765e+01    1.5351409912e+02
    6.6698402405e+01    1.5351409912e+02
    6.6798774719e+01    1.5351310730e+02
    6.6898391724e+01    1.5351210022e+02
    6.6998947144e+01    1.5351109314e+02
    6.7099044800e+01    1.5351109314e+02
    6.7198448181e+01    1.5351010132e+02
    6.7298629761e+01    1.5350909424e+02
    6.7399482727e+01    1.5350810242e+02
    6.7498519897e+01    1.5350810242e+02
    6.7598220825e+01    1.5350709534e+02
    6.7698791504e+01    1.5350610352e+02
    6.7798965454e+01    1.5350509644e+02
    6.7899322510e+01    1.5350410461e+02
    6.7998245239e+01    1.5350309753e+02
    6.8098983765e+01    1.5350309753e+02
    6.8199340820e+01    1.5350210571e+02
    6.8299316406e+01    1.5350109863e+02
    6.8398803711e+01    1.5350010681e+02
    6.8498023987e+01    1.5349909973e+02
    6.8598091125e+01    1.5349810791e+02
    6.8698745728e+01    1.5349710083e+02
    6.8799285889e+01    1.5349609375e+02
    6.8898880005e+01    1.5349510193e+02
    6.8998565674e+01    1.5349409485e+02
    6.9099403381e+01    1.5349310303e+02
    6.9199188232e+01    1.5349209595e+02
    6.9298301697e+01    1.5349110413e+02
    6.9398834229e+01    1.5349009705e+02
    6.9498519897e+01    1.5348910522e+02
    6.9597900391e+01    1.5348809814e+02
    6.9698051453e+01    1.5348710632e+02
    6.9799354553e+01    1.5348609924e+02
    6.9897895813e+01    1.5348510742e+02
    6.9998916626e+01    1.5348410034e+02
    7.0098304749e+01    1.5348309326e+02
    7.0199317932e+01    1.5348210144e+02
    7.0298896790e+01    1.5348010254e+02
    7.0398094177e+01    1.5347909546e+02
    7.0498420715e+01    1.5347810364e+02
    7.0598747253e+01    1.5347709656e+02
    7.0698135376e+01    1.5347610474e+02
    7.0799133301e+01    1.5347410583e+02
    7.0898124695e+01    1.5347309875e+02
    7.0998649597e+01    1.5347210693e+02
    7.1099174500e+01    1.5347109985e+02
    7.1199302673e+01    1.5346910095e+02
    7.1298866272e+01    1.5346809387e+02
    7.1399085999e+01    1.5346710205e+02
    7.1498741150e+01    1.5346510315e+02
    7.1598373413e+01    1.5346409607e+02
    7.1698402405e+01    1.5346209717e+02
    7.1798042297e+01    1.5346110535e+02
    7.1899314880e+01    1.5345910645e+02
    7.1998390198e+01    1.5345809937e+02
    7.2098220825e+01    1.5345710754e+02
    7.2199195862e+01    1.5345509338e+02
    7.2298835754e+01    1.5345309448e+02
    7.2398849487e+01    1.5345210266e+02
    7.2498008728e+01    1.5345010376e+02
    7.2598205566e+01    1.5344909668e+02
    7.2698883057e+01    1.5344709778e+02
    7.2798225403e+01    1.5344509888e+02
    7.2898323059e+01    1.5344410706e+02
    7.2999092102e+01    1.5344209290e+02
    7.3098236084e+01    1.5344009399e+02
    7.3197952271e+01    1.5343809509e+02
    7.3298034668e+01    1.5343710327e+02
    7.3398414612e+01    1.5343510437e+02
    7.3499084473e+01    1.5343310547e+02
    7.3597930908e+01    1.5343110657e+02
    7.3699340820e+01    1.5342910767e+02
    7.3798187256e+01    1.5342709351e+02
    7.3899215698e+01    1.5342509460e+02
    7.3997962952e+01    1.5342309570e+02
    7.4099273682e+01    1.5342109680e+02
    7.4198669434e+01    1.5341909790e+02
    7.4298820496e+01    1.5341709900e+02
    7.4398117065e+01    1.5341510010e+02
    7.4498947144e+01    1.5341310120e+02
    7.4598617554e+01    1.5341110229e+02
    7.4699150085e+01    1.5340809631e+02
    7.4798454285e+01    1.5340609741e+02
    7.4898696899e+01    1.5340409851e+02
    7.4998359680e+01    1.5340209961e+02
    7.5098503113e+01    1.5339909363e+02
    7.5198341370e+01    1.5339709473e+02
    7.5298477173e+01    1.5339410400e+02
    7.5398048401e+01    1.5339210510e+02
    7.5498085022e+01    1.5339010620e+02
    7.5598007202e+01    1.5338710022e+02
    7.5698600769e+01    1.5338409424e+02
    7.5799194336e+01    1.5338209534e+02
    7.5899215698e+01    1.5337910461e+02
    7.5998077393e+01    1.5337609863e+02
    7.6097808838e+01    1.5337409973e+02
    7.6198104858e+01    1.5337109375e+02
    7.6298866272e+01    1.5336810303e+02
    7.6398773193e+01    1.5336509705e+02
    7.6497901917e+01    1.5336210632e+02
    7.6599029541e+01    1.5335910034e+02
    7.6698921204e+01    1.5335609436e+02
    7.6798233032e+01    1.5335310364e+02
    7.6898208618e+01    1.5335009766e+02
    7.6998657227e+01    1.5334710693e+02
    7.7098327637e+01    1.5334309387e+02
    7.7198387146e+01    1.5334010315e+02
    7.7297950745e+01    1.5333709717e+02
    7.7398284912e+01    1.5333309937e+02
    7.7498893738e+01    1.5333009338e+02
    7.7598258972e+01    1.5332609558e+02
    7.7697799683e+01    1.5332310486e+02
    7.7798881531e+01    1.5331910706e+02
    7.7898223877e+01    1.5331610107e+02
    7.7998237610e+01    1.5331210327e+02
    7.8098999023e+01    1.5330810547e+02
    7.8198234558e+01    1.5330410767e+02
    7.8298980713e+01    1.5330009460e+02
    7.8398391724e+01    1.5329609680e+02
    7.8499046326e+01    1.5329209900e+02
    7.8599212646e+01    1.5328810120e+02
    7.8699272156e+01    1.5328410339e+02
    7.8798950195e+01    1.5327909851e+02
    7.8899093628e+01    1.5327510071e+02
    7.8999038696e+01    1.5327110291e+02
    7.9098014832e+01    1.5326609802e+02
    7.9197944641e+01    1.5326210022e+02
    7.9297866821e+01    1.5325709534e+02
    7.9398246765e+01    1.5325210571e+02
    7.9499000549e+01    1.5324810791e+02
    7.9598327637e+01    1.5324310303e+02
    7.9698310852e+01    1.5323809814e+02
    7.9798286438e+01    1.5323309326e+02
    7.9898155212e+01    1.5322810364e+02
    7.9998199463e+01    1.5322210693e+02
    8.0099082947e+01    1.5321710205e+02
    8.0197875977e+01    1.5321209717e+02
    8.0298553467e+01    1.5320610046e+02
    8.0398094177e+01    1.5320109558e+02
    8.0497901917e+01    1.5319509888e+02
    8.0599227905e+01    1.5318910217e+02
    8.0698921204e+01    1.5318310547e+02
    8.0798324585e+01    1.5317709351e+02
    8.0898658752e+01    1.5317109680e+02
    8.0998023987e+01    1.5316510010e+02
    8.1098052979e+01    1.5315910339e+02
    8.1198921204e+01    1.5315209961e+02
    8.1297988892e+01    1.5314610291e+02
    8.1398376465e+01    1.5313909912e+02
    8.1498260498e+01    1.5313209534e+02
    8.1599189758e+01    1.5312609863e+02
    8.1698097229e+01    1.5311909485e+02
    8.1799278259e+01    1.5311210632e+02
    8.1899101257e+01    1.5310409546e+02
    8.1997871399e+01    1.5309710693e+02
    8.2098739624e+01    1.5309010315e+02
    8.2199005127e+01    1.5308210754e+02
    8.2297927856e+01    1.5307409668e+02
    8.2398933411e+01    1.5306709290e+02
    8.2497825623e+01    1.5305909729e+02
    8.2598800659e+01    1.5305009460e+02
    8.2699012756e+01    1.5304209900e+02
    8.2797859192e+01    1.5303410339e+02
    8.2898681641e+01    1.5302510071e+02
    8.2999206543e+01    1.5301710510e+02
    8.3098777771e+01    1.5300810242e+02
    8.3198509216e+01    1.5299909973e+02
    8.3298896790e+01    1.5299009705e+02
    8.3398971558e+01    1.5298010254e+02
    8.3499130249e+01    1.5297109985e+02
    8.3598800659e+01    1.5296110535e+02
    8.3698638916e+01    1.5295210266e+02
    8.3798835754e+01    1.5294209290e+02
    8.3899108887e+01    1.5293209839e+02
    8.3998611450e+01    1.5292109680e+02
    8.4098548889e+01    1.5291110229e+02
    8.4198760986e+01    1.5290010071e+02
    8.4298675537e+01    1.5289010620e+02
    8.4398666382e+01    1.5287910461e+02
    8.4498428345e+01    1.5286709595e+02
    8.4599121094e+01    1.5285609436e+02
    8.4698013306e+01    1.5284510803e+02
    8.4798477173e+01    1.5283309937e+02
    8.4898826599e+01    1.5282110596e+02
    8.4997848511e+01    1.5280909729e+02
    8.5098434448e+01    1.5279609680e+02
    8.5197669983e+01    1.5278410339e+02
    8.5298408508e+01    1.5277110291e+02
    8.5398460388e+01    1.5275810242e+02
    8.5499229431e+01    1.5274409485e+02
    8.5598747253e+01    1.5273109436e+02
    8.5699096680e+01    1.5271710205e+02
    8.5798667908e+01    1.5270309448e+02
    8.5898406982e+01    1.5268910217e+02
    8.5998764038e+01    1.5267509460e+02
    8.6098640442e+01    1.5266009521e+02
    8.6199127197e+01    1.5264509583e+02
    8.6297714233e+01    1.5263009644e+02
    8.6398063660e+01    1.5261509705e+02
    8.6497817993e+01    1.5259910583e+02
    8.6598289490e+01    1.5258309937e+02
    8.6697784424e+01    1.5256709290e+02
    8.6797821045e+01    1.5255110168e+02
    8.6898483276e+01    1.5253410339e+02
    8.6998825073e+01    1.5251710510e+02
    8.7098381042e+01    1.5250010681e+02
    8.7198570251e+01    1.5248210144e+02
    8.7297760010e+01    1.5246510315e+02
    8.7398811340e+01    1.5244610596e+02
    8.7498504639e+01    1.5242810059e+02
    8.7597984314e+01    1.5240910339e+02
    8.7697906494e+01    1.5239010620e+02
    8.7798423767e+01    1.5237109375e+02
    8.7897865295e+01    1.5235110474e+02
    8.7998321533e+01    1.5233110046e+02
    8.8097686768e+01    1.5231109619e+02
    8.8197677612e+01    1.5229010010e+02
    8.8298194885e+01    1.5226910400e+02
    8.8398010254e+01    1.5224810791e+02
    8.8498725891e+01    1.5222610474e+02
    8.8598365784e+01    1.5220410156e+02
    8.8697776794e+01    1.5218209839e+02
    8.8798164368e+01    1.5215910339e+02
    8.8898025513e+01    1.5213609314e+02
    8.8998703003e+01    1.5211309814e+02
    8.9098030090e+01    1.5208909607e+02
    8.9198982239e+01    1.5206410217e+02
    8.9297737122e+01    1.5204010010e+02
    8.9398307800e+01    1.5201510620e+02
    8.9498725891e+01    1.5199009705e+02
    8.9598648071e+01    1.5196409607e+02
    8.9698509216e+01    1.5193809509e+02
    8.9798233032e+01    1.5191110229e+02
    8.9897628784e+01    1.5188409424e+02
    8.9998825073e+01    1.5185710144e+02
    9.0098022461e+01    1.5182910156e+02
    9.0197715759e+01    1.5180110168e+02
    9.0298385620e+01    1.5177209473e+02
    9.0397789001e+01    1.5174310303e+02
    9.0498703003e+01    1.5171310425e+02
    9.0598541260e+01    1.5168310547e+02
    9.0699050903e+01    1.5165209961e+02
    9.0798500061e+01    1.5162210083e+02
    9.0897888184e+01    1.5159010315e+02
    9.0998870850e+01    1.5155810547e+02
    9.1098236084e+01    1.5152610779e+02
    9.1197898865e+01    1.5149310303e+02
    9.1298881531e+01    1.5146009827e+02
    9.1398963928e+01    1.5142610168e+02
    9.1498985291e+01    1.5139109802e+02
    9.1598945618e+01    1.5135710144e+02
    9.1698837280e+01    1.5132110596e+02
    9.1798309326e+01    1.5128610229e+02
    9.1898902893e+01    1.5124909973e+02
    9.1997962952e+01    1.5121209717e+02
    9.2098960876e+01    1.5117509460e+02
    9.2197799683e+01    1.5113710022e+02
    9.2298210144e+01    1.5109809875e+02
    9.2398826599e+01    1.5105909729e+02
    9.2498176575e+01    1.5102009583e+02
    9.2599006653e+01    1.5097909546e+02
    9.2698219299e+01    1.5093910217e+02
    9.2798904419e+01    1.5089709473e+02
    9.2897972107e+01    1.5085510254e+02
    9.2998153687e+01    1.5081309509e+02
    9.3098617554e+01    1.5077009583e+02
    9.3199012756e+01    1.5072610474e+02
    9.3297782898e+01    1.5068209839e+02
    9.3398025513e+01    1.5063710022e+02
    9.3498199463e+01    1.5059109497e+02
    9.3598289490e+01    1.5054510498e+02
    9.3698303223e+01    1.5049909973e+02
    9.3798240662e+01    1.5045109558e+02
    9.3897956848e+01    1.5040310669e+02
    9.3998817444e+01    1.5035409546e+02
    9.4097763062e+01    1.5030610657e+02
    9.4197845459e+01    1.5025610352e+02
    9.4299049377e+01    1.5020509338e+02
    9.4398361206e+01    1.5015409851e+02
    9.4498786926e+01    1.5010209656e+02
    9.4598716736e+01    1.5004910278e+02
    9.4698371887e+01    1.4999609375e+02
    9.4798904419e+01    1.4994209290e+02
    9.4897796631e+01    1.4988810730e+02
    9.4997779846e+01    1.4983309937e+02
    9.5098854065e+01    1.4977610779e+02
    9.5198081970e+01    1.4972010803e+02
    9.5298385620e+01    1.4966209412e+02
    9.5398315430e+01    1.4960409546e+02
    9.5497871399e+01    1.4954609680e+02
    9.5598480225e+01    1.4948609924e+02
    9.5698661804e+01    1.4942610168e+02
    9.5798522949e+01    1.4936509705e+02
    9.5898017883e+01    1.4930310059e+02
    9.5998558044e+01    1.4924009705e+02
    9.6098724365e+01    1.4917709351e+02
    9.6198524475e+01    1.4911309814e+02
    9.6297958374e+01    1.4904910278e+02
    9.6398422241e+01    1.4898309326e+02
    9.6498519897e+01    1.4891709900e+02
    9.6598258972e+01    1.4885009766e+02
    9.6699012756e+01    1.4878210449e+02
    9.6798034668e+01    1.4871409607e+02
    9.6898078918e+01    1.4864509583e+02
    9.6997764587e+01    1.4857510376e+02
    9.7098457336e+01    1.4850410461e+02
    9.7198791504e+01    1.4843209839e+02
    9.7298774719e+01    1.4835910034e+02
    9.7398414612e+01    1.4828610229e+02
    9.7499046326e+01    1.4821209717e+02
    9.7597999573e+01    1.4813810730e+02
    9.7697944641e+01    1.4806210327e+02
    9.7798866272e+01    1.4798510742e+02
    9.7898132324e+01    1.4790809631e+02
    9.7998367310e+01    1.4783009338e+02
    9.8098274231e+01    1.4775109863e+02
    9.8197837830e+01    1.4767109680e+02
    9.8298377991e+01    1.4759010315e+02
    9.8398574829e+01    1.4750909424e+02
    9.8498443604e+01    1.4742709351e+02
    9.8597976685e+01    1.4734410095e+02
    9.8698471069e+01    1.4725909424e+02
    9.8798637390e+01    1.4717410278e+02
    9.8898468018e+01    1.4708909607e+02
    9.8997978210e+01    1.4700309753e+02
    9.9098442078e+01    1.4691510010e+02
    9.9198570251e+01    1.4682611084e+02
    9.9298377991e+01    1.4673709106e+02
    9.9397857666e+01    1.4664810181e+02
    9.9498283386e+01    1.4655609131e+02
    9.9598381042e+01    1.4646411133e+02
    9.9698158264e+01    1.4637210083e+02
    9.9798866272e+01    1.4627810669e+02
    9.9898010254e+01    1.4618409729e+02
    9.9998077393e+01    1.4608810425e+02
    1.0009783173e+02    1.4599209595e+02
    1.0019850159e+02    1.4589511108e+02
    1.0029885101e+02    1.4579609680e+02
    1.0039888763e+02    1.4569709778e+02
    1.0049861908e+02    1.4559710693e+02
    1.0059803772e+02    1.4549710083e+02
    1.0069835663e+02    1.4539511108e+02
    1.0079837036e+02    1.4529309082e+02
    1.0089807892e+02    1.4518910217e+02
    1.0099868011e+02    1.4508410645e+02
    1.0109896851e+02    1.4497810364e+02
    1.0119895172e+02    1.4487210083e+02
    1.0129862976e+02    1.4476510620e+02
    1.0139801025e+02    1.4465811157e+02
    1.0149826050e+02    1.4454809570e+02
    1.0159822083e+02    1.4443811035e+02
    1.0169788361e+02    1.4432710266e+02
    1.0179840851e+02    1.4421510315e+02
    1.0189862823e+02    1.4410211182e+02
    1.0199855804e+02    1.4398809814e+02
    1.0209819794e+02    1.4387310791e+02
    1.0219869232e+02    1.4375711060e+02
    1.0229888916e+02    1.4364010620e+02
    1.0239878845e+02    1.4352209473e+02
    1.0249841309e+02    1.4340409851e+02
    1.0259886932e+02    1.4328410339e+02
    1.0269789886e+02    1.4316409302e+02
    1.0279891968e+02    1.4304209900e+02
    1.0289852142e+02    1.4292010498e+02
    1.0299894714e+02    1.4279609680e+02
    1.0309797668e+02    1.4267210388e+02
    1.0319895935e+02    1.4254510498e+02
    1.0329853821e+02    1.4242010498e+02
    1.0339894867e+02    1.4229209900e+02
    1.0349796295e+02    1.4216409302e+02
    1.0359892273e+02    1.4203410339e+02
    1.0369847870e+02    1.4190409851e+02
    1.0379886627e+02    1.4177209473e+02
    1.0389897919e+02    1.4163909912e+02
    1.0399880981e+02    1.4150610352e+02
    1.0409835815e+02    1.4137210083e+02
    1.0419873047e+02    1.4123709106e+02
    1.0429882812e+02    1.4110009766e+02
    1.0439865112e+02    1.4096310425e+02
    1.0449819946e+02    1.4082510376e+02
    1.0459855652e+02    1.4068508911e+02
    1.0469866180e+02    1.4054510498e+02
    1.0479847717e+02    1.4040409851e+02
    1.0489803314e+02    1.4026210022e+02
    1.0499839020e+02    1.4011810303e+02
    1.0509848022e+02    1.3997309875e+02
    1.0519830322e+02    1.3982809448e+02
    1.0529892731e+02    1.3968109131e+02
    1.0539823151e+02    1.3953410339e+02
    1.0549832916e+02    1.3938510132e+02
    1.0559816742e+02    1.3923609924e+02
    1.0569880676e+02    1.3908509827e+02
    1.0579814148e+02    1.3893409729e+02
    1.0589826202e+02    1.3878109741e+02
    1.0599813080e+02    1.3862809753e+02
    1.0609877777e+02    1.3847210693e+02
    1.0619815063e+02    1.3831710815e+02
    1.0629830933e+02    1.3816009521e+02
    1.0639821625e+02    1.3800309753e+02
    1.0649890900e+02    1.3784310913e+02
    1.0659832764e+02    1.3768409729e+02
    1.0669853973e+02    1.3752209473e+02
    1.0679850006e+02    1.3736010742e+02
    1.0689821625e+02    1.3719808960e+02
    1.0699871826e+02    1.3703311157e+02
    1.0709796906e+02    1.3686911011e+02
    1.0719799805e+02    1.3670309448e+02
    1.0729879761e+02    1.3653410339e+02
    1.0739836121e+02    1.3636709595e+02
    1.0749870300e+02    1.3619709778e+02
    1.0759880066e+02    1.3602709961e+02
    1.0769867706e+02    1.3585510254e+02
    1.0779833221e+02    1.3568310547e+02
    1.0789875031e+02    1.3550909424e+02
    1.0799796295e+02    1.3533609009e+02
    1.0809793854e+02    1.3516009521e+02
    1.0819869232e+02    1.3498210144e+02
    1.0829823303e+02    1.3480609131e+02
    1.0839855194e+02    1.3462609863e+02
    1.0849864197e+02    1.3444610596e+02
    1.0859851837e+02    1.3426510620e+02
    1.0869818878e+02    1.3408410645e+02
    1.0879862213e+02    1.3390010071e+02
    1.0889884186e+02    1.3371609497e+02
    1.0899884796e+02    1.3353109741e+02
    1.0909864807e+02    1.3334509277e+02
    1.0919824219e+02    1.3315811157e+02
    1.0929857635e+02    1.3296910095e+02
    1.0939872742e+02    1.3277909851e+02
    1.0949865723e+02    1.3258911133e+02
    1.0959838867e+02    1.3239810181e+02
    1.0969886780e+02    1.3220510864e+02
    1.0979818726e+02    1.3201210022e+02
    1.0989826202e+02    1.3181710815e+02
    1.0999813080e+02    1.3162210083e+02
    1.1009874725e+02    1.3142410278e+02
    1.1019821167e+02    1.3122711182e+02
    1.1029842377e+02    1.3102709961e+02
    1.1039842987e+02    1.3082710266e+02
    1.1049823761e+02    1.3062609863e+02
    1.1059879303e+02    1.3042309570e+02
    1.1069819641e+02    1.3022109985e+02
    1.1079834747e+02    1.3001609802e+02
    1.1089829254e+02    1.2981109619e+02
    1.1099803925e+02    1.2960510254e+02
    1.1109851837e+02    1.2939610291e+02
    1.1119879913e+02    1.2918710327e+02
    1.1129795074e+02    1.2897909546e+02
    1.1139875793e+02    1.2876609802e+02
    1.1149845123e+02    1.2855509949e+02
    1.1159884644e+02    1.2834109497e+02
    1.1169815063e+02    1.2812908936e+02
    1.1179815674e+02    1.2791410065e+02
    1.1189797974e+02    1.2769809723e+02
    1.1199851227e+02    1.2748010254e+02
    1.1209884644e+02    1.2726110077e+02
    1.1219808197e+02    1.2704309845e+02
    1.1229801941e+02    1.2682309723e+02
    1.1239868164e+02    1.2660009766e+02
    1.1249823761e+02    1.2637809753e+02
    1.1259851074e+02    1.2615409851e+02
    1.1269857788e+02    1.2592910004e+02
    1.1279846191e+02    1.2570310211e+02
    1.1289814758e+02    1.2547710419e+02
    1.1299855042e+02    1.2524810028e+02
    1.1309874725e+02    1.2501910400e+02
    1.1319876862e+02    1.2478910065e+02
    1.1329859161e+02    1.2455809784e+02
    1.1339823151e+02    1.2432710266e+02
    1.1349857330e+02    1.2409210205e+02
    1.1359871674e+02    1.2385810089e+02
    1.1369869232e+02    1.2362210083e+02
    1.1379846954e+02    1.2338610077e+02
    1.1389807129e+02    1.2315010071e+02
    1.1399835968e+02    1.2291110229e+02
    1.1409847260e+02    1.2267109680e+02
    1.1419840240e+02    1.2243009949e+02
    1.1429814911e+02    1.2218910217e+02
    1.1439859772e+02    1.2194509888e+02
    1.1449800110e+02    1.2170210266e+02
    1.1459809113e+02    1.2145709991e+02
    1.1469799805e+02    1.2121109772e+02
    1.1479860687e+02    1.2096310425e+02
    1.1489817810e+02    1.2071610260e+02
    1.1499844360e+02    1.2046610260e+02
    1.1509853363e+02    1.2021510315e+02
    1.1519844818e+02    1.1996410370e+02
    1.1529821014e+02    1.1971209717e+02
    1.1539865112e+02    1.1945809937e+02
    1.1549806976e+02    1.1920510101e+02
    1.1559818268e+02    1.1894889832e+02
    1.1569812775e+02    1.1869239807e+02
    1.1579876709e+02    1.1843309784e+02
    1.1589839935e+02    1.1817539978e+02
    1.1599871826e+02    1.1791480255e+02
    1.1609803772e+02    1.1765579987e+02
    1.1619803619e+02    1.1739389801e+02
    1.1629873657e+02    1.1712920380e+02
    1.1639843750e+02    1.1686610413e+02
    1.1649797821e+02    1.1660230255e+02
    1.1659822083e+02    1.1633570099e+02
    1.1669847107e+02    1.1606800079e+02
    1.1679840851e+02    1.1580010223e+02
    1.1689820099e+02    1.1553150177e+02
    1.1699868011e+02    1.1526010132e+02
    1.1709819031e+02    1.1499020386e+02
    1.1719838715e+02    1.1471749878e+02
    1.1729844666e+02    1.1444409943e+02
    1.1739852142e+02    1.1416960144e+02
    1.1749830627e+02    1.1389489746e+02
    1.1759806061e+02    1.1361930084e+02
    1.1769869995e+02    1.1334020233e+02
    1.1779853821e+02    1.1306230164e+02
    1.1789871979e+02    1.1278240204e+02
    1.1799844360e+02    1.1250279999e+02
    1.1809844208e+02    1.1222139740e+02
    1.1819805908e+02    1.1194000244e+02
    1.1829872894e+02    1.1165470123e+02
    1.1839795685e+02    1.1137249756e+02
    1.1849873352e+02    1.1108480072e+02
    1.1859832001e+02    1.1079949951e+02
    1.1869848633e+02    1.1051159668e+02
    1.1879875183e+02    1.1022239685e+02
    1.1889807892e+02    1.0993489838e+02
    1.1899845123e+02    1.0964330292e+02
    1.1909864807e+02    1.0935130310e+02
    1.1919822693e+02    1.0906009674e+02
    1.1929805756e+02    1.0876709747e+02
    1.1939833069e+02    1.0847190094e+02
    1.1949845123e+02    1.0817620087e+02
    1.1959854126e+02    1.0787950134e+02
    1.1969853210e+02    1.0758219910e+02
    1.1979856110e+02    1.0728369904e+02
    1.1989874268e+02    1.0698380280e+02
    1.1999822235e+02    1.0668509674e+02
    1.2009838867e+02    1.0638330078e+02
    1.2019835663e+02    1.0608110046e+02
    1.2029833221e+02    1.0577799988e+02
    1.2039859772e+02    1.0547299957e+02
    1.2049851227e+02    1.0516809845e+02
    1.2059828186e+02    1.0486270142e+02
    1.2069795227e+02    1.0455660248e+02
    1.2079862976e+02    1.0424659729e+02
    1.2089849854e+02    1.0393800354e+02
    1.2099861908e+02    1.0362770081e+02
    1.2109844971e+02    1.0331729889e+02
    1.2119838715e+02    1.0300569916e+02
    1.2129798126e+02    1.0269419861e+02
    1.2139852142e+02    1.0237879944e+02
    1.2149842072e+02    1.0206449890e+02
    1.2159797668e+02    1.0175029755e+02
    1.2169828796e+02    1.0143280029e+02
    1.2179844666e+02    1.0111489868e+02
    1.2189856720e+02    1.0079609680e+02
    1.2199859619e+02    1.0047679901e+02
    1.2209854126e+02    1.0015679932e+02
    1.2219837952e+02    9.9836097717e+01
    1.2229812622e+02    9.9514900208e+01
    1.2239862823e+02    9.9190299988e+01
    1.2249819183e+02    9.8867897034e+01
    1.2259851074e+02    9.8542098999e+01
    1.2269789124e+02    9.8218399048e+01
    1.2279801941e+02    9.7891502380e+01
    1.2289804840e+02    9.7563903809e+01
    1.2299800110e+02    9.7235702515e+01
    1.2309838867e+02    9.6905097961e+01
    1.2319805908e+02    9.6576103210e+01
    1.2329856873e+02    9.6243400574e+01
    1.2339814758e+02    9.5912803650e+01
    1.2349848175e+02    9.5579002380e+01
    1.2359787750e+02    9.5247299194e+01
    1.2369802094e+02    9.4912300110e+01
    1.2379808044e+02    9.4576698303e+01
    1.2389804840e+02    9.4240501404e+01
    1.2399791718e+02    9.3903800964e+01
    1.2409854126e+02    9.3563697815e+01
    1.2419824219e+02    9.3225799561e+01
    1.2429785156e+02    9.2887397766e+01
    1.2439820099e+02    9.2545700073e+01
    1.2449846649e+02    9.2203399658e+01
    1.2459864044e+02    9.1860504150e+01
    1.2469790649e+02    9.1519897461e+01
    1.2479792023e+02    9.1175903320e+01
    1.2489865875e+02    9.0828598022e+01
    1.2499849701e+02    9.0483596802e+01
    1.2509825897e+02    9.0138000488e+01
    1.2519792938e+02    8.9791801453e+01
    1.2529834747e+02    8.9442298889e+01
    1.2539785767e+02    8.9095100403e+01
    1.2549810791e+02    8.8744499207e+01
    1.2559828186e+02    8.8393402100e+01
    1.2569837952e+02    8.8041801453e+01
    1.2579839325e+02    8.7689598083e+01
    1.2589833069e+02    8.7336898804e+01
    1.2599819183e+02    8.6983703613e+01
    1.2609797668e+02    8.6629898071e+01
    1.2619850159e+02    8.6272804260e+01
    1.2629812622e+02    8.5917999268e+01
    1.2639849854e+02    8.5559799194e+01
    1.2649799347e+02    8.5204002380e+01
    1.2659821320e+02    8.4844802856e+01
    1.2669837189e+02    8.4485099792e+01
    1.2679844666e+02    8.4124801636e+01
    1.2689846039e+02    8.3764099121e+01
    1.2699839783e+02    8.3402801514e+01
    1.2709826660e+02    8.3041099548e+01
    1.2719806671e+02    8.2678802490e+01
    1.2729862213e+02    8.2313201904e+01
    1.2739829254e+02    8.1949905396e+01
    1.2749788666e+02    8.1586196899e+01
    1.2759824371e+02    8.1219001770e+01
    1.2769851685e+02    8.0851303101e+01
    1.2779794312e+02    8.0486000061e+01
    1.2789810181e+02    8.0117401123e+01
    1.2799819946e+02    7.9748199463e+01
    1.2809823608e+02    7.9378501892e+01
    1.2819822693e+02    7.9008399963e+01
    1.2829812622e+02    7.8637695312e+01
    1.2839799500e+02    7.8266601562e+01
    1.2849859619e+02    7.7891998291e+01
    1.2859834290e+02    7.7519897461e+01
    1.2869802856e+02    7.7147399902e+01
    1.2879846191e+02    7.6771400452e+01
    1.2889804077e+02    7.6397903442e+01
    1.2899836731e+02    7.6020904541e+01
    1.2909863281e+02    7.5643501282e+01
    1.2919804382e+02    7.5268600464e+01
    1.2929821777e+02    7.4890197754e+01
    1.2939833069e+02    7.4511299133e+01
    1.2949838257e+02    7.4132003784e+01
    1.2959840393e+02    7.3752304077e+01
    1.2969837952e+02    7.3372001648e+01
    1.2979829407e+02    7.2991401672e+01
    1.2989816284e+02    7.2610198975e+01
    1.2999800110e+02    7.2228599548e+01
    1.3009858704e+02    7.1843505859e+01
    1.3019831848e+02    7.1460998535e+01
    1.3029801941e+02    7.1078002930e+01
    1.3039845276e+02    7.0691604614e+01
    1.3049807739e+02    7.0307701111e+01
    1.3059843445e+02    6.9920394897e+01
    1.3069876099e+02    6.9532600403e+01
    1.3079824829e+02    6.9147399902e+01
    1.3089848328e+02    6.8758804321e+01
    1.3099868774e+02    6.8369705200e+01
    1.3109806824e+02    6.7983299255e+01
    1.3119819641e+02    6.7593299866e+01
    1.3129826355e+02    6.7203002930e+01
    1.3139831543e+02    6.6812194824e+01
    1.3149833679e+02    6.6421005249e+01
    1.3159829712e+02    6.6029403687e+01
    1.3169824219e+02    6.5637405396e+01
    1.3179814148e+02    6.5244995117e+01
    1.3189878845e+02    6.4849105835e+01
    1.3199862671e+02    6.4455902100e+01
    1.3209841919e+02    6.4062301636e+01
    1.3219818115e+02    6.3668399811e+01
    1.3229870605e+02    6.3270900726e+01
    1.3239839172e+02    6.2876098633e+01
    1.3249884033e+02    6.2477901459e+01
    1.3259846497e+02    6.2082401276e+01
    1.3269885254e+02    6.1683399200e+01
    1.3279841614e+02    6.1287200928e+01
    1.3289872742e+02    6.0887500763e+01
    1.3299821472e+02    6.0490600586e+01
    1.3309846497e+02    6.0090202332e+01
    1.3319865417e+02    5.9689498901e+01
    1.3329884338e+02    5.9288501740e+01
    1.3339819336e+02    5.8890300751e+01
    1.3349829102e+02    5.8488601685e+01
    1.3359835815e+02    5.8086601257e+01
    1.3369839478e+02    5.7684299469e+01
    1.3379838562e+02    5.7281700134e+01
    1.3389834595e+02    5.6878799438e+01
    1.3399827576e+02    5.6475700378e+01
    1.3409893799e+02    5.6069099426e+01
    1.3419879150e+02    5.5665401459e+01
    1.3429859924e+02    5.5261402130e+01
    1.3439837646e+02    5.4857101440e+01
    1.3449890137e+02    5.4449501038e+01
    1.3459861755e+02    5.4044700623e+01
    1.3469827271e+02    5.3639701843e+01
    1.3479870605e+02    5.3231300354e+01
    1.3489830017e+02    5.2825801849e+01
    1.3499864197e+02    5.2416900635e+01
    1.3509895325e+02    5.2007801056e+01
    1.3519844055e+02    5.1601600647e+01
    1.3529867554e+02    5.1192100525e+01
    1.3539886475e+02    5.0782402039e+01
    1.3549902344e+02    5.0372398376e+01
    1.3559837341e+02    4.9965499878e+01
    1.3569847107e+02    4.9555099487e+01
    1.3579852295e+02    4.9144599915e+01
    1.3589854431e+02    4.8733901978e+01
    1.3599851990e+02    4.8323101044e+01
    1.3609846497e+02    4.7912002563e+01
    1.3619837952e+02    4.7500801086e+01
    1.3629904175e+02    4.7086200714e+01
    1.3639889526e+02    4.6674697876e+01
    1.3649870300e+02    4.6263000488e+01
    1.3659849548e+02    4.5851100922e+01
    1.3669902039e+02    4.5435897827e+01
    1.3679873657e+02    4.5023799896e+01
    1.3689843750e+02    4.4611499786e+01
    1.3699887085e+02    4.4195899963e+01
    1.3709851074e+02    4.3783302307e+01
    1.3719888306e+02    4.3367401123e+01
    1.3729847717e+02    4.2954498291e+01
    1.3739880371e+02    4.2538398743e+01
    1.3749909973e+02    4.2122100830e+01
    1.3759860229e+02    4.1708900452e+01
    1.3769883728e+02    4.1292400360e+01
    1.3779907227e+02    4.0875801086e+01
    1.3789848328e+02    4.0462303162e+01
    1.3799865723e+02    4.0045501709e+01
    1.3809881592e+02    3.9628601074e+01
    1.3819894409e+02    3.9211502075e+01
    1.3829904175e+02    3.8794403076e+01
    1.3839912415e+02    3.8377300262e+01
    1.3849917603e+02    3.7959999084e+01
    1.3859921265e+02    3.7542602539e+01
    1.3869923401e+02    3.7125198364e+01
    1.3879924011e+02    3.6707801819e+01
    1.3889921570e+02    3.6290199280e+01
    1.3899917603e+02    3.5872600555e+01
    1.3909910583e+02    3.5455001831e+01
    1.3919903564e+02    3.5037300110e+01
    1.3929893494e+02    3.4619598389e+01
    1.3939881897e+02    3.4201801300e+01
    1.3949868774e+02    3.3784000397e+01
    1.3959930420e+02    3.3362899780e+01
    1.3969914246e+02    3.2945098877e+01
    1.3979896545e+02    3.2527198792e+01
    1.3989877319e+02    3.2109298706e+01
    1.3999931335e+02    3.1688100815e+01
    1.4009910583e+02    3.1270200729e+01
    1.4019885254e+02    3.0852300644e+01
    1.4029861450e+02    3.0434299469e+01
    1.4039910889e+02    3.0013200760e+01
    1.4049882507e+02    2.9595300674e+01
    1.4059930420e+02    2.9174200058e+01
    1.4069900513e+02    2.8756340027e+01
    1.4079869080e+02    2.8338510513e+01
    1.4089912415e+02    2.7917510986e+01
    1.4099879456e+02    2.7499759674e+01
    1.4109919739e+02    2.7078840256e+01
    1.4119883728e+02    2.6661201477e+01
    1.4129922485e+02    2.6240400314e+01
    1.4139883423e+02    2.5822900772e+01
    1.4149920654e+02    2.5402250290e+01
    1.4159878540e+02    2.4984901428e+01
    1.4169912720e+02    2.4564411163e+01
    1.4179869080e+02    2.4147230148e+01
    1.4189901733e+02    2.3726940155e+01
    1.4199931335e+02    2.3306770325e+01
    1.4209884644e+02    2.2889909744e+01
    1.4219912720e+02    2.2469970703e+01
    1.4229940796e+02    2.2050149918e+01
    1.4239891052e+02    2.1633670807e+01
    1.4249916077e+02    2.1214111328e+01
    1.4259939575e+02    2.0794710159e+01
    1.4269886780e+02    2.0378650665e+01
    1.4279908752e+02    1.9959550858e+01
    1.4289930725e+02    1.9540605545e+01
    1.4299951172e+02    1.9121841431e+01
    1.4309893799e+02    1.8706447601e+01
    1.4319912720e+02    1.8288042068e+01
    1.4329930115e+02    1.7869819641e+01
    1.4339945984e+02    1.7451801300e+01
    1.4349885559e+02    1.7037170410e+01
    1.4359898376e+02    1.6619581223e+01
    1.4369912720e+02    1.6202199936e+01
    1.4379924011e+02    1.5785060883e+01
    1.4389935303e+02    1.5368150711e+01
    1.4399943542e+02    1.4951499939e+01
    1.4409953308e+02    1.4535110474e+01
    1.4419883728e+02    1.4122150421e+01
    1.4429888916e+02    1.3706290245e+01
    1.4439892578e+02    1.3290719986e+01
    1.4449896240e+02    1.2875440598e+01
    1.4459898376e+02    1.2460451126e+01
    1.4469897461e+02    1.2045770645e+01
    1.4479896545e+02    1.1631401062e+01
    1.4489894104e+02    1.1217350006e+01
    1.4499888611e+02    1.0803650856e+01
    1.4509959412e+02    1.0387120247e+01
    1.4519952393e+02    9.9741001129e+00
    1.4529942322e+02    9.5614404678e+00
    1.4539932251e+02    9.1491308212e+00
    1.4549920654e+02    8.7372007370e+00
    1.4559906006e+02    8.3256006241e+00
    1.4569966125e+02    7.9113006592e+00
    1.4579948425e+02    7.5006008148e+00
    1.4589930725e+02    7.0902004242e+00
    1.4599908447e+02    6.6803007126e+00
    1.4609962463e+02    6.2676000595e+00
    1.4619938660e+02    5.8585004807e+00
    1.4629911804e+02    5.4498004913e+00
    1.4639959717e+02    5.0384006500e+00
    1.4649929810e+02    4.6307001114e+00
    1.4659898376e+02    4.2234001160e+00
    1.4669941711e+02    3.8136005402e+00
    1.4679905701e+02    3.4072999954e+00
    1.4689944458e+02    2.9985008240e+00
    1.4699905396e+02    2.5932998657e+00
    1.4709941101e+02    2.1855010986e+00
    1.4719973755e+02    1.7783012390e+00
    1.4729928589e+02    1.3747005463e+00
    1.4739958191e+02    9.6850013733e-01
    1.4749908447e+02    5.6599998474e-01
    1.4759933472e+02    1.6100120544e-01
    1.4769956970e+02   -2.4339866638e-01
    1.4779977417e+02   -6.4719963074e-01
    1.4789921570e+02   -1.0473995209e+00
    1.4799937439e+02   -1.4499988556e+00
    1.4809953308e+02   -1.8519992828e+00
    1.4819966125e+02   -2.2533988953e+00
    1.4829977417e+02   -2.6541996002e+00
    1.4839912415e+02   -3.0513000488e+00
    1.4849920654e+02   -3.4507999420e+00
    1.4859925842e+02   -3.8496990204e+00
    1.4869929504e+02   -4.2479000092e+00
    1.4879933167e+02   -4.6455001831e+00
    1.4889933777e+02   -5.0424003601e+00
    1.4899932861e+02   -5.4386997223e+00
    1.4909930420e+02   -5.8342990875e+00
    1.4919926453e+02   -6.2292003632e+00
    1.4929922485e+02   -6.6233997345e+00
    1.4939915466e+02   -7.0168991089e+00
    1.4949983215e+02   -7.4126987457e+00
    1.4959973145e+02   -7.8048992157e+00
    1.4969961548e+02   -8.1962985992e+00
    1.4979948425e+02   -8.5869998932e+00
    1.4989935303e+02   -8.9769992828e+00
    1.4999920654e+02   -9.3662986755e+00
    1.5009979248e+02   -9.7577991486e+00
    1.5019963074e+02   -1.0145599365e+01
    1.5029945374e+02   -1.0532600403e+01
    1.5039924622e+02   -1.0918800354e+01
    1.5049980164e+02   -1.1307199478e+01
    1.5059959412e+02   -1.1691900253e+01
    1.5069935608e+02   -1.2075899124e+01
    1.5079988098e+02   -1.2461898804e+01
    1.5089964294e+02   -1.2844200134e+01
    1.5099937439e+02   -1.3225700378e+01
    1.5109986877e+02   -1.3609199524e+01
    1.5119958496e+02   -1.3988998413e+01
    1.5130000305e+02   -1.4370597839e+01
    1.5139959717e+02   -1.4748298645e+01
    1.5149989319e+02   -1.5127700806e+01
    1.5159936523e+02   -1.5503299713e+01
    1.5169952393e+02   -1.5880500793e+01
    1.5179960632e+02   -1.6256698608e+01
    1.5189964294e+02   -1.6631797791e+01
    1.5199963379e+02   -1.7005699158e+01
    1.5209956360e+02   -1.7378601074e+01
    1.5219943237e+02   -1.7750400543e+01
    1.5229998779e+02   -1.8123798370e+01
    1.5239974976e+02   -1.8493301392e+01
    1.5249945068e+02   -1.8861698151e+01
    1.5259985352e+02   -1.9231700897e+01
    1.5269944763e+02   -1.9597900391e+01
    1.5279974365e+02   -1.9965698242e+01
    1.5289999390e+02   -2.0332298279e+01
    1.5299945068e+02   -2.0694999695e+01
    1.5309959412e+02   -2.1059299469e+01
    1.5319970703e+02   -2.1422401428e+01
    1.5329974365e+02   -2.1784400940e+01
    1.5339976501e+02   -2.2145099640e+01
    1.5349972534e+02   -2.2504699707e+01
    1.5359965515e+02   -2.2862998962e+01
    1.5369952393e+02   -2.3220100403e+01
    1.5380009460e+02   -2.3578598022e+01
    1.5389988708e+02   -2.3933200836e+01
    1.5399963379e+02   -2.4286499023e+01
    1.5410008240e+02   -2.4641098022e+01
    1.5419975281e+02   -2.4991798401e+01
    1.5430012512e+02   -2.5343799591e+01
    1.5439970398e+02   -2.5691898346e+01
    1.5449998474e+02   -2.6041198730e+01
    1.5459950256e+02   -2.6386699677e+01
    1.5469970703e+02   -2.6733299255e+01
    1.5479989624e+02   -2.7078598022e+01
    1.5490002441e+02   -2.7422500610e+01
    1.5500012207e+02   -2.7764999390e+01
    1.5510017395e+02   -2.8106098175e+01
    1.5520019531e+02   -2.8445800781e+01
    1.5530018616e+02   -2.8784000397e+01
    1.5540013123e+02   -2.9120800018e+01
    1.5550004578e+02   -2.9456199646e+01
    1.5559991455e+02   -2.9790100098e+01
    1.5569973755e+02   -3.0122600555e+01
    1.5580027771e+02   -3.0456001282e+01
    1.5590002441e+02   -3.0785598755e+01
    1.5599975586e+02   -3.1113597870e+01
    1.5610017395e+02   -3.1442600250e+01
    1.5619981384e+02   -3.1767700195e+01
    1.5630014038e+02   -3.2093601227e+01
    1.5639970398e+02   -3.2415699005e+01
    1.5649996948e+02   -3.2738597870e+01
    1.5660018921e+02   -3.3060001373e+01
    1.5669964600e+02   -3.3377399445e+01
    1.5679978943e+02   -3.3695598602e+01
    1.5689991760e+02   -3.4012298584e+01
    1.5699998474e+02   -3.4327400208e+01
    1.5710002136e+02   -3.4640800476e+01
    1.5720002747e+02   -3.4952697754e+01
    1.5729997253e+02   -3.5262901306e+01
    1.5739991760e+02   -3.5571498871e+01
    1.5749981689e+02   -3.5878498077e+01
    1.5760035706e+02   -3.6185798645e+01
    1.5770016479e+02   -3.6489498138e+01
    1.5779995728e+02   -3.6791500092e+01
    1.5789971924e+02   -3.7091800690e+01
    1.5800018311e+02   -3.7392601013e+01
    1.5809986877e+02   -3.7689598083e+01
    1.5820013428e+02   -3.7986598969e+01
    1.5830044556e+02   -3.8281997681e+01
    1.5839988708e+02   -3.8573299408e+01
    1.5850000000e+02   -3.8864898682e+01
    1.5860021973e+02   -3.9155200958e+01
    1.5870045471e+02   -3.9443798065e+01
    1.5879995728e+02   -3.9728599548e+01
    1.5890005493e+02   -4.0013500214e+01
    1.5900018311e+02   -4.0296699524e+01
    1.5910032654e+02   -4.0578300476e+01
    1.5920010376e+02   -4.0857101440e+01
    1.5930018616e+02   -4.1134998322e+01
    1.5939996338e+02   -4.1410301208e+01
    1.5950044250e+02   -4.1685699463e+01
    1.5960008240e+02   -4.1957099915e+01
    1.5969981384e+02   -4.2226898193e+01
    1.5980052185e+02   -4.2497501373e+01
    1.5990046692e+02   -4.2764301300e+01
    1.6000032043e+02   -4.3028900146e+01
    1.6009983826e+02   -4.3290901184e+01
    1.6020010376e+02   -4.3553001404e+01
    1.6029995728e+02   -4.3812198639e+01
    1.6040031433e+02   -4.4070800781e+01
    1.6050001526e+02   -4.4325901031e+01
    1.6060009766e+02   -4.4580101013e+01
    1.6070030212e+02   -4.4832698822e+01
    1.6080047607e+02   -4.5083396912e+01
    1.6089999390e+02   -4.5330596924e+01
    1.6100010681e+02   -4.5577301025e+01
    1.6110049438e+02   -4.5822799683e+01
    1.6119999695e+02   -4.6064300537e+01
    1.6130006409e+02   -4.6305297852e+01
    1.6140020752e+02   -4.6544502258e+01
    1.6150010681e+02   -4.6781196594e+01
    1.6160044861e+02   -4.7017097473e+01
    1.6170036316e+02   -4.7250000000e+01
    1.6180000305e+02   -4.7480499268e+01
    1.6190020752e+02   -4.7710197449e+01
    1.6200059509e+02   -4.7938400269e+01
    1.6210009766e+02   -4.8162796021e+01
    1.6220033264e+02   -4.8386802673e+01
    1.6230026245e+02   -4.8608100891e+01
    1.6240016174e+02   -4.8827499390e+01
    1.6250039673e+02   -4.9045700073e+01
    1.6260049438e+02   -4.9261596680e+01
    1.6270051575e+02   -4.9475402832e+01
    1.6280009460e+02   -4.9686302185e+01
    1.6290036011e+02   -4.9896797180e+01
    1.6300067139e+02   -5.0105300903e+01
    1.6310046387e+02   -5.0310798645e+01
    1.6320060730e+02   -5.0515098572e+01
    1.6330068970e+02   -5.0717300415e+01
    1.6340060425e+02   -5.0917198181e+01
    1.6350022888e+02   -5.1114601135e+01
    1.6360043335e+02   -5.1311203003e+01
    1.6370057678e+02   -5.1505699158e+01
    1.6380027771e+02   -5.1697402954e+01
    1.6390042114e+02   -5.1888000488e+01
    1.6400050354e+02   -5.2076698303e+01
    1.6410063171e+02   -5.2263496399e+01
    1.6420051575e+02   -5.2447898865e+01
    1.6430064392e+02   -5.2630897522e+01
    1.6440040588e+02   -5.2811302185e+01
    1.6450032043e+02   -5.2990097046e+01
    1.6460075378e+02   -5.3167999268e+01
    1.6470025635e+02   -5.3342399597e+01
    1.6480085754e+02   -5.3516899109e+01
    1.6490045166e+02   -5.3687797546e+01
    1.6500076294e+02   -5.3858100891e+01
    1.6510075378e+02   -5.4026100159e+01
    1.6520033264e+02   -5.4191596985e+01
    1.6530078125e+02   -5.4356697083e+01
    1.6540075684e+02   -5.4519302368e+01
    1.6550059509e+02   -5.4679901123e+01
    1.6560087585e+02   -5.4839401245e+01
    1.6570039368e+02   -5.4996002197e+01
    1.6580020142e+02   -5.5151199341e+01
    1.6590025330e+02   -5.5305099487e+01
    1.6600065613e+02   -5.5457801819e+01
    1.6610038757e+02   -5.5607696533e+01
    1.6620092773e+02   -5.5757202148e+01
    1.6630027771e+02   -5.5903099060e+01
    1.6640031433e+02   -5.6048400879e+01
    1.6650032043e+02   -5.6192001343e+01
    1.6660067749e+02   -5.6334396362e+01
    1.6670048523e+02   -5.6474296570e+01
    1.6680085754e+02   -5.6613296509e+01
    1.6690049744e+02   -5.6749702454e+01
    1.6700088501e+02   -5.6885597229e+01
    1.6710093689e+02   -5.7019302368e+01
    1.6720075989e+02   -5.7151100159e+01
    1.6730068970e+02   -5.7281501770e+01
    1.6740060425e+02   -5.7410202026e+01
    1.6750085449e+02   -5.7537796021e+01
    1.6760044861e+02   -5.7662902832e+01
    1.6770069885e+02   -5.7787300110e+01
    1.6780032349e+02   -5.7909301758e+01
    1.6790058899e+02   -5.8030403137e+01
    1.6800033569e+02   -5.8149299622e+01
    1.6810072327e+02   -5.8267295837e+01
    1.6820048523e+02   -5.8382896423e+01
    1.6830053711e+02   -5.8497200012e+01
    1.6840081787e+02   -5.8610000610e+01
    1.6850044250e+02   -5.8720397949e+01
    1.6860084534e+02   -5.8830001831e+01
    1.6870086670e+02   -5.8937500000e+01
    1.6880070496e+02   -5.9043098450e+01
    1.6890065002e+02   -5.9147201538e+01
    1.6900047302e+02   -5.9249496460e+01
    1.6910060120e+02   -5.9350402832e+01
    1.6920109558e+02   -5.9450096130e+01
    1.6930081177e+02   -5.9547203064e+01
    1.6940092468e+02   -5.9643096924e+01
    1.6950067139e+02   -5.9736999512e+01
    1.6960041809e+02   -5.9829299927e+01
    1.6970054626e+02   -5.9920097351e+01
    1.6980088806e+02   -6.0009498596e+01
    1.6990049744e+02   -6.0096595764e+01
    1.7000071716e+02   -6.0182502747e+01
    1.7010079956e+02   -6.0266601562e+01
    1.7020091248e+02   -6.0348999023e+01
    1.7030056763e+02   -6.0429397583e+01
    1.7040107727e+02   -6.0508697510e+01
    1.7050120544e+02   -6.0586097717e+01
    1.7060101318e+02   -6.0661499023e+01
    1.7070065308e+02   -6.0735099792e+01
    1.7080068970e+02   -6.0807296753e+01
    1.7090081787e+02   -6.0877899170e+01
    1.7100096130e+02   -6.0946800232e+01
    1.7110054016e+02   -6.1013702393e+01
    1.7120091248e+02   -6.1079399109e+01
    1.7130114746e+02   -6.1143196106e+01
    1.7140115356e+02   -6.1205299377e+01
    1.7150120544e+02   -6.1265800476e+01
    1.7160078430e+02   -6.1324195862e+01
    1.7170094299e+02   -6.1381401062e+01
    1.7180094910e+02   -6.1436798096e+01
    1.7190065002e+02   -6.1490303040e+01
    1.7200073242e+02   -6.1542495728e+01
    1.7210090637e+02   -6.1593101501e+01
    1.7220123291e+02   -6.1642097473e+01
    1.7230088806e+02   -6.1689201355e+01
    1.7240121460e+02   -6.1735000610e+01
    1.7250129700e+02   -6.1779098511e+01
    1.7260125732e+02   -6.1821502686e+01
    1.7270074463e+02   -6.1861999512e+01
    1.7280105591e+02   -6.1901100159e+01
    1.7290113831e+02   -6.1938499451e+01
    1.7300123596e+02   -6.1974098206e+01
    1.7310125732e+02   -6.2008102417e+01
    1.7320112610e+02   -6.2040298462e+01
    1.7330062866e+02   -6.2070800781e+01
    1.7340078735e+02   -6.2099800110e+01
    1.7350129700e+02   -6.2127296448e+01
    1.7360098267e+02   -6.2152900696e+01
    1.7370132446e+02   -6.2177101135e+01
    1.7380079651e+02   -6.2199401855e+01
    1.7390110779e+02   -6.2220497131e+01
    1.7400100708e+02   -6.2239997864e+01
    1.7410136414e+02   -6.2258102417e+01
    1.7420108032e+02   -6.2274696350e+01
    1.7430137634e+02   -6.2290000916e+01
    1.7440136719e+02   -6.2303802490e+01
    1.7450111389e+02   -6.2316200256e+01
    1.7460098267e+02   -6.2327201843e+01
    1.7470103455e+02   -6.2336799622e+01
    1.7480108643e+02   -6.2345100403e+01
    1.7490080261e+02   -6.2352096558e+01
    1.7500125122e+02   -6.2357696533e+01
    1.7510084534e+02   -6.2361900330e+01
    1.7520114136e+02   -6.2364898682e+01
    1.7530096436e+02   -6.2366500854e+01
    1.7540141296e+02   -6.2366798401e+01
    1.7550126648e+02   -6.2365898132e+01
    1.7560098267e+02   -6.2363700867e+01
    1.7570133972e+02   -6.2360198975e+01
    1.7580134583e+02   -6.2355499268e+01
    1.7590150452e+02   -6.2349502563e+01
    1.7600137329e+02   -6.2342201233e+01
    1.7610144043e+02   -6.2333702087e+01
    1.7620147705e+02   -6.2323997498e+01
    1.7630104065e+02   -6.2313201904e+01
    1.7640124512e+02   -6.2301002502e+01
    1.7650154114e+02   -6.2287597656e+01
    1.7660107422e+02   -6.2273002625e+01
    1.7670132446e+02   -6.2257202148e+01
    1.7680126953e+02   -6.2240196228e+01
    1.7690101624e+02   -6.2222099304e+01
    1.7700143433e+02   -6.2202598572e+01
    1.7710098267e+02   -6.2182098389e+01
    1.7720158386e+02   -6.2160202026e+01
    1.7730104065e+02   -6.2137397766e+01
    1.7740148926e+02   -6.2113098145e+01
    1.7750126648e+02   -6.2087799072e+01
    1.7760148621e+02   -6.2061203003e+01
    1.7770109558e+02   -6.2033599854e+01
    1.7780140686e+02   -6.2004600525e+01
    1.7790118408e+02   -6.1974502563e+01
    1.7800096130e+02   -6.1943099976e+01
    1.7810113525e+02   -6.1910499573e+01
    1.7820112610e+02   -6.1876602173e+01
    1.7830134583e+02   -6.1841499329e+01
    1.7840167236e+02   -6.1805000305e+01
    1.7850123596e+02   -6.1767601013e+01
    1.7860136414e+02   -6.1728698730e+01
    1.7870147705e+02   -6.1688499451e+01
    1.7880119324e+02   -6.1647201538e+01
    1.7890168762e+02   -6.1604202271e+01
    1.7900169373e+02   -6.1560096741e+01
    1.7910133362e+02   -6.1514801025e+01
    1.7920137024e+02   -6.1468002319e+01
    1.7930120850e+02   -6.1419799805e+01
    1.7940133667e+02   -6.1370101929e+01
    1.7950115967e+02   -6.1319198608e+01
    1.7960136414e+02   -6.1266601562e+01
    1.7970118713e+02   -6.1212799072e+01
    1.7980157471e+02   -6.1157196045e+01
    1.7990109253e+02   -6.1100700378e+01
    1.8000146484e+02   -6.1042198181e+01
    1.8010174561e+02   -6.0982200623e+01
    1.8020117188e+02   -6.0921302795e+01
    1.8030130005e+02   -6.0858398438e+01
    1.8040176392e+02   -6.0793800354e+01
    1.8050114441e+02   -6.0728401184e+01
    1.8060108948e+02   -6.0661102295e+01
    1.8070152283e+02   -6.0591796875e+01
    1.8080171204e+02   -6.0521102905e+01
    1.8090148926e+02   -6.0449096680e+01
    1.8100154114e+02   -6.0375396729e+01
    1.8110171509e+02   -6.0299896240e+01
    1.8120132446e+02   -6.0223197937e+01
    1.8130154419e+02   -6.0144500732e+01
    1.8140155029e+02   -6.0064300537e+01
    1.8150129700e+02   -5.9982696533e+01
    1.8160121155e+02   -5.9899299622e+01
    1.8170150757e+02   -5.9814002991e+01
    1.8180130005e+02   -5.9727500916e+01
    1.8190156555e+02   -5.9638999939e+01
    1.8200187683e+02   -5.9548698425e+01
    1.8210130310e+02   -5.9457702637e+01
    1.8220132446e+02   -5.9364402771e+01
    1.8230139160e+02   -5.9269500732e+01
    1.8240132141e+02   -5.9173103333e+01
    1.8250129700e+02   -5.9074996948e+01
    1.8260139465e+02   -5.8975196838e+01
    1.8270182800e+02   -5.8873497009e+01
    1.8280131531e+02   -5.8770996094e+01
    1.8290150452e+02   -5.8666297913e+01
    1.8300166321e+02   -5.8559898376e+01
    1.8310177612e+02   -5.8451995850e+01
    1.8320193481e+02   -5.8342498779e+01
    1.8330145264e+02   -5.8232101440e+01
    1.8340155029e+02   -5.8119499207e+01
    1.8350178528e+02   -5.8005203247e+01
    1.8360183716e+02   -5.7889495850e+01
    1.8370199585e+02   -5.7772102356e+01
    1.8380137634e+02   -5.7654197693e+01
    1.8390188599e+02   -5.7533302307e+01
    1.8400143433e+02   -5.7412101746e+01
    1.8410165405e+02   -5.7288597107e+01
    1.8420162964e+02   -5.7163902283e+01
    1.8430183411e+02   -5.7037300110e+01
    1.8440173340e+02   -5.6909797668e+01
    1.8450172424e+02   -5.6780601501e+01
    1.8460185242e+02   -5.6649803162e+01
    1.8470205688e+02   -5.6517402649e+01
    1.8480157471e+02   -5.6384498596e+01
    1.8490164185e+02   -5.6249496460e+01
    1.8500201416e+02   -5.6112701416e+01
    1.8510145569e+02   -5.5975700378e+01
    1.8520176697e+02   -5.5836196899e+01
    1.8530145264e+02   -5.5696197510e+01
    1.8540156555e+02   -5.5554199219e+01
    1.8550141907e+02   -5.5411201477e+01
    1.8560156250e+02   -5.5266502380e+01
    1.8570210266e+02   -5.5119895935e+01
    1.8580177307e+02   -5.4973098755e+01
    1.8590199280e+02   -5.4824096680e+01
    1.8600187683e+02   -5.4674301147e+01
    1.8610154724e+02   -5.4523300171e+01
    1.8620187378e+02   -5.4370101929e+01
    1.8630163574e+02   -5.4216400146e+01
    1.8640202332e+02   -5.4060401917e+01
    1.8650170898e+02   -5.3904197693e+01
    1.8660214233e+02   -5.3745399475e+01
    1.8670207214e+02   -5.3586196899e+01
    1.8680184937e+02   -5.3425903320e+01
    1.8690165710e+02   -5.3264198303e+01
    1.8700221252e+02   -5.3099998474e+01
    1.8710208130e+02   -5.2935699463e+01
    1.8720199585e+02   -5.2769996643e+01
    1.8730194092e+02   -5.2602897644e+01
    1.8740191650e+02   -5.2434196472e+01
    1.8750193787e+02   -5.2263999939e+01
    1.8760198975e+02   -5.2092300415e+01
    1.8770208740e+02   -5.1919097900e+01
    1.8780220032e+02   -5.1744400024e+01
    1.8790165710e+02   -5.1569396973e+01
    1.8800184631e+02   -5.1391799927e+01
    1.8810206604e+02   -5.1212799072e+01
    1.8820162964e+02   -5.1033500671e+01
    1.8830192566e+02   -5.0851402283e+01
    1.8840226746e+02   -5.0667900085e+01
    1.8850192261e+02   -5.0484298706e+01
    1.8860162354e+02   -5.0299301147e+01
    1.8870207214e+02   -5.0111495972e+01
    1.8880183411e+02   -4.9923698425e+01
    1.8890164185e+02   -4.9734497070e+01
    1.8900219727e+02   -4.9542602539e+01
    1.8910206604e+02   -4.9350601196e+01
    1.8920196533e+02   -4.9157302856e+01
    1.8930191040e+02   -4.8962600708e+01
    1.8940190125e+02   -4.8766601562e+01
    1.8950192261e+02   -4.8569198608e+01
    1.8960197449e+02   -4.8370498657e+01
    1.8970208740e+02   -4.8170402527e+01
    1.8980221558e+02   -4.7969001770e+01
    1.8990168762e+02   -4.7767700195e+01
    1.9000190735e+02   -4.7563697815e+01
    1.9010234070e+02   -4.7358001709e+01
    1.9020201111e+02   -4.7152603149e+01
    1.9030235291e+02   -4.6944801331e+01
    1.9040191650e+02   -4.6737297058e+01
    1.9050230408e+02   -4.6526901245e+01
    1.9060203552e+02   -4.6316802979e+01
    1.9070176697e+02   -4.6105400085e+01
    1.9080224609e+02   -4.5891296387e+01
    1.9090202332e+02   -4.5677497864e+01
    1.9100183105e+02   -4.5462600708e+01
    1.9110237122e+02   -4.5244796753e+01
    1.9120222473e+02   -4.5027400970e+01
    1.9130209351e+02   -4.4808799744e+01
    1.9140199280e+02   -4.4589000702e+01
    1.9150190735e+02   -4.4368000031e+01
    1.9160185242e+02   -4.4145900726e+01
    1.9170181274e+02   -4.3922500610e+01
    1.9180195618e+02   -4.3697799683e+01
    1.9190196228e+02   -4.3472198486e+01
    1.9200201416e+02   -4.3245597839e+01
    1.9210206604e+02   -4.3017799377e+01
    1.9220216370e+02   -4.2788898468e+01
    1.9230226135e+02   -4.2558998108e+01
    1.9240237427e+02   -4.2327999115e+01
    1.9250251770e+02   -4.2095897675e+01
    1.9260195923e+02   -4.1864498138e+01
    1.9270213318e+02   -4.1630298615e+01
    1.9280232239e+02   -4.1395099640e+01
    1.9290255737e+02   -4.1158798218e+01
    1.9300207520e+02   -4.0923099518e+01
    1.9310232544e+02   -4.0684700012e+01
    1.9320187378e+02   -4.0446899414e+01
    1.9330218506e+02   -4.0206398010e+01
    1.9340249634e+02   -3.9964900970e+01
    1.9350213623e+02   -3.9723999023e+01
    1.9360250854e+02   -3.9480300903e+01
    1.9370219421e+02   -3.9237300873e+01
    1.9380262756e+02   -3.8991397858e+01
    1.9390235901e+02   -3.8746299744e+01
    1.9400212097e+02   -3.8500198364e+01
    1.9410191345e+02   -3.8252799988e+01
    1.9420248413e+02   -3.8002300262e+01
    1.9430235291e+02   -3.7752300262e+01
    1.9440228271e+02   -3.7500999451e+01
    1.9450222778e+02   -3.7248397827e+01
    1.9460223389e+02   -3.6994499207e+01
    1.9470227051e+02   -3.6739299774e+01
    1.9480235291e+02   -3.6482700348e+01
    1.9490249634e+02   -3.6224700928e+01
    1.9500195312e+02   -3.5967201233e+01
    1.9510221863e+02   -3.5706501007e+01
    1.9520252991e+02   -3.5444297791e+01
    1.9530218506e+02   -3.5182701111e+01
    1.9540260315e+02   -3.4917800903e+01
    1.9550236511e+02   -3.4653301239e+01
    1.9560220337e+02   -3.4387500763e+01
    1.9570207214e+02   -3.4120201111e+01
    1.9580201721e+02   -3.3851600647e+01
    1.9590274048e+02   -3.3579601288e+01
    1.9600205994e+02   -3.3310100555e+01
    1.9610215759e+02   -3.3037300110e+01
    1.9620231628e+02   -3.2763099670e+01
    1.9630253601e+02   -3.2487499237e+01
    1.9640206909e+02   -3.2212497711e+01
    1.9650241089e+02   -3.1933998108e+01
    1.9660206604e+02   -3.1656200409e+01
    1.9670254517e+02   -3.1374797821e+01
    1.9680232239e+02   -3.1093898773e+01
    1.9690220642e+02   -3.0811599731e+01
    1.9700213623e+02   -3.0527797699e+01
    1.9710215759e+02   -3.0242500305e+01
    1.9720222473e+02   -2.9955699921e+01
    1.9730238342e+02   -2.9667301178e+01
    1.9740260315e+02   -2.9377597809e+01
    1.9750216675e+02   -2.9088500977e+01
    1.9760252380e+02   -2.8795700073e+01
    1.9770220947e+02   -2.8503700256e+01
    1.9780270386e+02   -2.8208000183e+01
    1.9790252686e+02   -2.7913101196e+01
    1.9800242615e+02   -2.7616699219e+01
    1.9810238647e+02   -2.7318901062e+01
    1.9820240784e+02   -2.7019699097e+01
    1.9830250549e+02   -2.6718997955e+01
    1.9840266418e+02   -2.6416900635e+01
    1.9850216675e+02   -2.6115501404e+01
    1.9860247803e+02   -2.5810501099e+01
    1.9870286560e+02   -2.5504100800e+01
    1.9880258179e+02   -2.5198497772e+01
    1.9890237427e+02   -2.4891498566e+01
    1.9900221252e+02   -2.4583198547e+01
    1.9910290527e+02   -2.4271198273e+01
    1.9920289612e+02   -2.3960098267e+01
    1.9930221558e+02   -2.3649997711e+01
    1.9940234375e+02   -2.3336299896e+01
    1.9950253296e+02   -2.3021301270e+01
    1.9960281372e+02   -2.2704998016e+01
    1.9970239258e+02   -2.2389801025e+01
    1.9980279541e+02   -2.2070999146e+01
    1.9990251160e+02   -2.1753299713e+01
endcurve
