Curveplot
LS-DYNA keyword deck by LS-Prepost
Abcissa
Ordinate
Define Curve
Curve 1 #pts=149
* Minval=   0.000000e+000 at time=        0.000000
* Maxval=   0.000000e+000 at time=        0.000000
0,1.69268921415499
5,1.7947673749355
10,2.60379524081612
15,2.57278676494364
20,3.05734863144168
25,3.42074711300341
30,3.48721021723858
35,3.30174377895474
40,3.27736442477192
45,3.65906890788807
50,4.11728044538805
55,4.03482035951282
60,4.18280962841716
65,4.41939536118258
70,4.6430838139796
75,5.11549324564292
80,4.96400893418828
85,4.91544503147299
90,4.62143173890161
95,4.98591311069613
100,4.11113260824629
105,3.22117445380344
110,2.99444359511427
115,3.96556695081536
120,3.56177494469691
125,3.24342813456632
130,6.01173101752041
135,12.881729893835
140,26.3030198729226
145,40.2415532311425
150,51.241443353916
155,66.4086445967483
160,92.2723891873
165,116.682511203715
170,148.34981978566
175,171.897829396476
180,203.512672233121
185,258.005742747651
190,338.566582394002
195,375.047303683263
200,378.744136239428
205,366.309416558199
210,318.720252562298
215,319.596877988849
220,364.609811743456
225,425.026022541224
230,428.991217069473
235,470.33591459147
240,485.946378902928
245,550.359016158357
250,523.26434622948
255,490.05145534728
260,486.797731161135
265,470.828423382587
270,442.602115971703
275,409.562521904218
280,368.129325321184
285,326.921822543231
290,290.657444387833
295,253.830135198719
300,228.328213455793
305,202.904047815243
310,158.344140330089
315,112.275961556299
320,56.4932776364882
325,31.7887068795775
330,24.7494390818474
335,17.2544234651364
340,-2.54627600776294
345,-12.419513381347
350,-3.84380196019415
355,2.82705970484475
360,12.1214836546318
365,4.1015298355999
370,-6.89629763911108
375,-30.2501490418907
380,-53.927148641124
385,-67.8796449808113
390,-78.1669704120923
395,-83.2994289380491
400,-93.1205042339645
405,-98.7136609342521
410,-107.575083489525
415,-106.306251263474
420,-98.2967138171574
425,-99.6558613804549
430,-103.255755207262
435,-103.517986530937
440,-100.25839525697
445,-95.0245575787432
450,-95.0432073549747
455,-91.5618756847142
460,-85.4789890386165
465,-75.9665832956719
470,-70.6945751691331
475,-67.1126034621578
480,-63.9299088538754
485,-62.0369823494781
490,-57.7057480042323
495,-53.0633173621391
500,-46.6596144578138
505,-42.6208292303587
510,-34.4221011200901
515,-24.5370608159263
520,-17.8788214111141
525,-16.3336115334258
530,-16.5217078479893
535,-16.5470956078915
540,-15.9935381637038
545,-12.6258870495752
550,-9.79612298393745
555,-4.76160013390241
560,-0.641162691063196
565,1.73049869905567
570,6.02675397090874
575,8.83209857531803
580,11.7035224022398
585,15.4918849661771
590,18.1446738280548
595,20.7073765358042
595,-64.5656169867289
590,-67.4248368126144
585,-71.8377405619781
580,-77.0708906908512
575,-80.5717373036139
570,-85.5091151594845
565,-89.8285866811962
560,-94.6894746714169
555,-99.1788854751644
550,-101.88601938391
545,-107.011424799409
540,-111.927133391468
535,-116.192322891669
530,-123.082289347144
525,-129.310936456323
520,-132.49616353806
515,-132.73329358073
510,-132.526381332175
505,-132.996137969247
500,-136.71831244869
495,-140.643795272158
490,-146.069911856854
485,-154.282728999305
480,-163.931716421452
475,-172.767585059062
470,-181.374671649077
465,-190.118758177485
460,-198.364503204422
455,-211.058205538629
450,-227.91707613074
445,-237.322499194178
440,-248.91921080425
435,-260.554236102082
430,-274.251537039818
425,-280.353520369227
420,-285.104709859992
415,-292.221722300943
410,-305.849002066536
405,-314.048824526194
400,-300.224773865019
395,-281.394172153367
390,-254.484384245823
385,-235.011771865571
380,-211.605145320282
375,-195.931415009087
370,-184.094742944837
365,-171.755747322439
360,-166.883755410149
355,-147.510528289041
350,-121.562759437833
345,-105.650460959901
340,-113.378653210496
335,-118.828352738039
330,-103.498580450416
325,-69.8170731171564
320,-25.8107288057683
315,-11.3651507171693
310,15.2725739109348
305,50.7204700195374
300,94.8558329672331
295,138.711563863015
290,172.330229185305
285,199.381663718962
280,220.291936069177
275,239.610606149033
270,257.457989365928
265,284.053148959432
260,327.439094570253
255,370.135726116907
250,373.305552093111
245,353.289265790638
240,327.612563272307
235,184.779020709983
230,169.30549904114
225,128.468923410176
220,139.406046006493
215,139.259712585617
210,145.00779134413
205,128.658962051665
200,142.750893400376
195,143.438465672845
190,133.152870574105
185,110.176472307601
180,88.9874044238529
175,73.6047194838498
170,60.3098526422578
165,51.9602532853753
160,33.7655717009615
155,19.81968729423
150,15.0555604164511
145,10.495841961663
140,2.56622066861144
135,-8.30736663780337
130,-11.2733857967012
125,-9.50374262108219
120,-7.6603998842755
115,-6.51968675079364
110,-5.75908527775747
105,-4.26622655381026
100,-3.27781133185212
95,-3.14639773196092
90,-2.62033653236155
85,-2.60567454238415
80,-2.74858167564568
75,-2.52976909368522
70,-2.38491390392025
65,-2.28969404794745
60,-3.0427553963997
55,-2.58621689566151
50,-2.84397341895701
45,-2.49458375548624
40,-2.57687195402293
35,-2.38469045038015
30,-1.92725813548155
25,-2.14477583282502
20,-2.21583405857714
15,-1.93081047381136
10,-2.19829009089023
5,-2.25479518864604
0,-1.86805440651068
endcurve
