Curveplot
LS-DYNA keyword deck by LS-Prepost
Abcissa
Ordinate
Define Curve
Curve 1 #pts=149
* Minval=   0.000000e+000 at time=        0.000000
* Maxval=   0.000000e+000 at time=        0.000000
0.00,23.7142
10.00,23.6892
20.00,23.4308
30.00,23.2305
40.00,22.9511
50.00,22.0427
60.00,20.3797
70.00,18.0171
80.00,15.0556
90.00,10.9612
100.00,7.0342
110.00,-0.5288
120.00,-9.6634
130.00,-20.9124
140.00,-34.2678
150.00,-49.1919
160.00,-65.1245
170.00,-80.2816
180.00,-94.3984
190.00,-106.1872
200.00,-115.3027
210.00,-121.7136
220.00,-125.2698
230.00,-126.4443
240.00,-125.2157
250.00,-123.0417
260.00,-119.8359
270.00,-114.8665
280.00,-108.2306
290.00,-100.4136
300.00,-91.8866
310.00,-83.0224
320.00,-74.4120
330.00,-66.5061
340.00,-59.4191
350.00,-53.0743
360.00,-47.3489
370.00,-42.3051
380.00,-37.8142
390.00,-33.7595
400.00,-29.7922
410.00,-26.3305
420.00,-23.1252
430.00,-20.0588
440.00,-17.2246
450.00,-14.5237
460.00,-12.1667
470.00,-10.0667
480.00,-8.3543
490.00,-6.5960
500.00,-2.6718
500.00,-97.1977
490.00,-89.9532
480.00,-90.2666
470.00,-90.7402
460.00,-91.4693
450.00,-92.4132
440.00,-93.6923
430.00,-95.2139
420.00,-97.2474
410.00,-99.7847
400.00,-102.8888
390.00,-106.6181
380.00,-111.0499
370.00,-116.0921
360.00,-121.8669
350.00,-128.0046
340.00,-134.4802
330.00,-141.0998
320.00,-147.8718
310.00,-154.1486
300.00,-160.0178
290.00,-165.2773
280.00,-169.8269
270.00,-173.5956
260.00,-176.5062
250.00,-177.5053
240.00,-178.4465
230.00,-177.8682
220.00,-175.8510
210.00,-172.2567
200.00,-166.8258
190.00,-159.4316
180.00,-150.0671
170.00,-138.2675
160.00,-124.6383
150.00,-109.8118
140.00,-94.7385
130.00,-80.0708
120.00,-67.4549
110.00,-56.6098
100.00,-46.9312
90.00,-40.2380
80.00,-34.2913
70.00,-29.7118
60.00,-26.7730
50.00,-24.8943
40.00,-23.8197
30.00,-23.3717
20.00,-23.1940
10.00,-23.2532
0.00,-23.2740
endcurve
