Curveplot
LS-DYNA keyword deck by LS-Prepost
Abcissa
Ordinate
Define Curve
Curve 1 #pts=8
* Minval=  -1.600000e+001 at time=       -1.676000
* Maxval=   0.000000e+000 at time=       -0.995000
       0.000000e+000       0.000000e+000
      -4.010000e-001      -7.000000e+003
      -1.187000e+000      -7.000000e+003
      -1.588000e+000      -1.100000e+004
      -1.676000e+000      -1.600000e+004
      -1.885000e+000      -1.600000e+004
      -1.588000e+000      -2.000000e+003
      -9.950000e-001       0.000000e+000
endcurve
