Curveplot
LS-DYNA keyword deck by LS-Prepost
Abcissa
Ordinate
Define Curve
Curve 1 #pts=9
* Minval=   0.000000e+000 at time=        0.000000
* Maxval=   4.414500e-001 at time=       79.000000
       0.000000e+000       0.000000e+000
       0.297000e+000       1.373400e+004
       0.890000e+000       1.373400e+004
       1.309000e+000       2.060100e+004
       1.379000e+000       4.414500e+004
       1.588000e+000       4.414500e+004
       1.501000e+000       2.060100e+004
       1.082000e+000       5.886000e+003
       0.698000e+000       0.000000e+000
endcurve
