Curveplot
LS-DYNA keyword deck by LS-Prepost
Abcissa
Ordinate
Define Curve
Curve 1 #pts=5
* Minval=   0.000000e+000 at time=        0.000000
* Maxval=   4.414500e-001 at time=       79.000000
180,60
180,0
100,0
100,60
180,60
endcurve


