Curveplot
LS-DYNA keyword deck by LS-PrePost
Abscissa
Ordinate
XY data
CHOP_EAMZ_mo-1 #pts=3000
* Minval=    -4.9548999786e+01 at time=       231.2039642334
* Maxval=     8.9932098035e-07 at time=         2.4989500046
    0.0000000000e+00    0.0000000000e+00
    9.8183788359e-02    9.3886997110e-44
    1.9912311435e-01    1.9489799652e-34
    2.9914626479e-01    1.6454400110e-27
    3.9893028140e-01    3.2935799559e-21
    4.9987983704e-01    2.4998000564e-15
    5.9893918037e-01    6.2998201100e-10
    6.9821006060e-01    2.1251599591e-08
    7.9874593019e-01    6.9660799795e-08
    8.9882433414e-01    1.2760199297e-07
    9.9832749367e-01    1.8210600672e-07
    1.0999573469e+00    2.2060500271e-07
    1.1990598440e+00    2.2913999942e-07
    1.2982653379e+00    2.3773900182e-07
    1.3986650705e+00    2.8338101288e-07
    1.4996013641e+00    3.4468800436e-07
    1.5996849537e+00    4.1109998961e-07
    1.6981848478e+00    4.4685600642e-07
    1.7999788523e+00    4.6534398734e-07
    1.8988424540e+00    4.9326598628e-07
    1.9994133711e+00    5.4115400872e-07
    2.0989580154e+00    5.8356999943e-07
    2.1992669106e+00    6.1536297835e-07
    2.2983224392e+00    6.8306098910e-07
    2.3979117870e+00    7.9662299868e-07
    2.4989500046e+00    8.9932098035e-07
    2.5995516777e+00    8.0132201674e-07
    2.6994926929e+00    3.8563800331e-07
    2.7996888161e+00   -3.4202798815e-07
    2.8994047642e+00   -1.2087799632e-06
    2.9979913235e+00   -1.9839799279e-06
    3.0980477333e+00   -2.5317099244e-06
    3.1992988586e+00   -2.9097400329e-06
    3.2992305756e+00   -3.3963099213e-06
    3.3995552063e+00   -4.4484199861e-06
    3.4997022152e+00   -6.4719001784e-06
    3.5991342068e+00   -9.6958001450e-06
    3.6984682083e+00   -1.4220800040e-05
    3.7986755371e+00   -2.0049699742e-05
    3.8990821838e+00   -2.7055899409e-05
    3.9984014034e+00   -3.5050499719e-05
    4.0992770195e+00   -4.4113301556e-05
    4.1981892586e+00   -5.3787000070e-05
    4.2979784012e+00   -6.4241699874e-05
    4.3989949226e+00   -7.5414900493e-05
    4.4994268417e+00   -8.7013002485e-05
    4.5986452103e+00   -9.8887197964e-05
    4.6987481117e+00   -1.1121699936e-04
    4.7985696793e+00   -1.2386900198e-04
    4.8981180191e+00   -1.3687599858e-04
    4.9979515076e+00   -1.5033100499e-04
    5.0988612175e+00   -1.6431100084e-04
    5.1990551949e+00   -1.7848800053e-04
    5.2997980118e+00   -1.9295800303e-04
    5.3985314369e+00   -2.0733200654e-04
    5.4989075661e+00   -2.2215099307e-04
    5.5980806351e+00   -2.3702699400e-04
    5.6982302666e+00   -2.5230500614e-04
    5.7982525826e+00   -2.6784298825e-04
    5.8983926773e+00   -2.8375099646e-04
    5.9997043610e+00   -3.0026500463e-04
    6.0987768173e+00   -3.1686300645e-04
    6.1986193657e+00   -3.3407300361e-04
    6.2991733551e+00   -3.5186400055e-04
    6.3982605934e+00   -3.6982900929e-04
    6.4995446205e+00   -3.8871998549e-04
    6.5997424126e+00   -4.0801300202e-04
    6.6981744766e+00   -4.2757799383e-04
    6.7997589111e+00   -4.4831400737e-04
    6.8993792534e+00   -4.6907301294e-04
    6.9995565414e+00   -4.9039401347e-04
    7.0997915268e+00   -5.1232700935e-04
    7.1987843513e+00   -5.3473201115e-04
    7.2995963097e+00   -5.5835902458e-04
    7.3998112679e+00   -5.8259401703e-04
    7.4993724823e+00   -6.0731498525e-04
    7.5993847847e+00   -6.3279800816e-04
    7.6991977692e+00   -6.5898901084e-04
    7.7982468605e+00   -6.8581302185e-04
    7.8989233971e+00   -7.1392802056e-04
    7.9986028671e+00   -7.4243301060e-04
    8.0983963013e+00   -7.7154301107e-04
    8.1994724274e+00   -8.0177898053e-04
    8.2984075546e+00   -8.3241797984e-04
    8.3988151550e+00   -8.6479500169e-04
    8.4993610382e+00   -8.9859199943e-04
    8.5992784500e+00   -9.3333097175e-04
    8.6999092102e+00   -9.6919998759e-04
    8.7994432449e+00   -1.0054300074e-03
    8.8991546631e+00   -1.0425799992e-03
    8.9984941483e+00   -1.0806199862e-03
    9.0998392105e+00   -1.1206200579e-03
    9.1995410919e+00   -1.1611400405e-03
    9.2982311249e+00   -1.2023999589e-03
    9.3980522156e+00   -1.2453900417e-03
    9.4979400635e+00   -1.2898199493e-03
    9.5987491608e+00   -1.3360599987e-03
    9.6984415054e+00   -1.3828600058e-03
    9.7999868393e+00   -1.4310999541e-03
    9.8994026184e+00   -1.4784600353e-03
    9.9998521805e+00   -1.5263300156e-03
    1.0098519325e+01   -1.5735999914e-03
    1.0199457169e+01   -1.6224499559e-03
    1.0299710274e+01   -1.6714900266e-03
    1.0399371147e+01   -1.7206800403e-03
    1.0498679161e+01   -1.7701500328e-03
    1.0599512100e+01   -1.8212100258e-03
    1.0698548317e+01   -1.8725900445e-03
    1.0799074173e+01   -1.9261799753e-03
    1.0899873734e+01   -1.9811699167e-03
    1.0999960899e+01   -2.0367400721e-03
    1.1099374771e+01   -2.0927700680e-03
    1.1199412346e+01   -2.1501400042e-03
    1.1298261642e+01   -2.2080799099e-03
    1.1398068428e+01   -2.2678999230e-03
    1.1498903275e+01   -2.3294999264e-03
    1.1598305702e+01   -2.3911299650e-03
    1.1699919701e+01   -2.4550401140e-03
    1.1797915459e+01   -2.5176899508e-03
    1.1898461342e+01   -2.5830599479e-03
    1.1999602318e+01   -2.6497100480e-03
    1.2098773003e+01   -2.7156400029e-03
    1.2199694633e+01   -2.7831299230e-03
    1.2298727036e+01   -2.8498100583e-03
    1.2399748802e+01   -2.9185700696e-03
    1.2499246597e+01   -2.9872800224e-03
    1.2598966599e+01   -3.0572700780e-03
    1.2698843002e+01   -3.1284699216e-03
    1.2798324585e+01   -3.2004499808e-03
    1.2899444580e+01   -3.2746400684e-03
    1.2998724937e+01   -3.3484699670e-03
    1.3099512100e+01   -3.4243699629e-03
    1.3198291779e+01   -3.4997500479e-03
    1.3298863411e+01   -3.5778998863e-03
    1.3398011208e+01   -3.6570800003e-03
    1.3498142242e+01   -3.7399900611e-03
    1.3598805428e+01   -3.8268999197e-03
    1.3699188232e+01   -3.9172801189e-03
    1.3798082352e+01   -4.0097301826e-03
    1.3899313927e+01   -4.1076601483e-03
    1.3999874115e+01   -4.2080897838e-03
    1.4098267555e+01   -4.3092300184e-03
    1.4198948860e+01   -4.4153998606e-03
    1.4299620628e+01   -4.5239902101e-03
    1.4398451805e+01   -4.6326699667e-03
    1.4498159409e+01   -4.7441697679e-03
    1.4599633217e+01   -4.8594800755e-03
    1.4697935104e+01   -4.9728699960e-03
    1.4798772812e+01   -5.0908299163e-03
    1.4898574829e+01   -5.2091800608e-03
    1.4998423576e+01   -5.3291697986e-03
    1.5098880768e+01   -5.4513900541e-03
    1.5199631691e+01   -5.5753202178e-03
    1.5299453735e+01   -5.6992801838e-03
    1.5399840355e+01   -5.8249700814e-03
    1.5498711586e+01   -5.9497300535e-03
    1.5598532677e+01   -6.0767298564e-03
    1.5698728561e+01   -6.2053701840e-03
    1.5799994469e+01   -6.3367201947e-03
    1.5898333549e+01   -6.4657600597e-03
    1.5999801636e+01   -6.6006397828e-03
    1.6098541260e+01   -6.7337998189e-03
    1.6200017929e+01   -6.8727601320e-03
    1.6299877167e+01   -7.0114801638e-03
    1.6399007797e+01   -7.1509899572e-03
    1.6499197006e+01   -7.2938301601e-03
    1.6598306656e+01   -7.4370899238e-03
    1.6699092865e+01   -7.5849499553e-03
    1.6798330307e+01   -7.7325701714e-03
    1.6899732590e+01   -7.8851701692e-03
    1.6998058319e+01   -8.0346595496e-03
    1.7098949432e+01   -8.1897201017e-03
    1.7198297501e+01   -8.3445496857e-03
    1.7298633575e+01   -8.5035199299e-03
    1.7398145676e+01   -8.6638797075e-03
    1.7499736786e+01   -8.8301999494e-03
    1.7599243164e+01   -8.9954696596e-03
    1.7698213577e+01   -9.1622201726e-03
    1.7798057556e+01   -9.3329399824e-03
    1.7899745941e+01   -9.5094796270e-03
    1.7998996735e+01   -9.6841203049e-03
    1.8099042892e+01   -9.8623102531e-03
    1.8198150635e+01   -1.0041099973e-02
    1.8299657822e+01   -1.0227000341e-02
    1.8399873734e+01   -1.0413699783e-02
    1.8499559402e+01   -1.0602599941e-02
    1.8598203659e+01   -1.0792399757e-02
    1.8699617386e+01   -1.0990099981e-02
    1.8799816132e+01   -1.1187800206e-02
    1.8898628235e+01   -1.1385399848e-02
    1.8998750687e+01   -1.1588600464e-02
    1.9098970413e+01   -1.1795000173e-02
    1.9199937820e+01   -1.2005900033e-02
    1.9298763275e+01   -1.2215100229e-02
    1.9398580551e+01   -1.2429100461e-02
    1.9499242783e+01   -1.2648100033e-02
    1.9598770142e+01   -1.2867599726e-02
    1.9699743271e+01   -1.3092899695e-02
    1.9798460007e+01   -1.3314899988e-02
    1.9899494171e+01   -1.3543499634e-02
    1.9998291016e+01   -1.3767899945e-02
    2.0098955154e+01   -1.3997900300e-02
    2.0199647903e+01   -1.4229600318e-02
    2.0299768448e+01   -1.4461800456e-02
    2.0399539948e+01   -1.4694799669e-02
    2.0498609543e+01   -1.4928099699e-02
    2.0599105835e+01   -1.5167100355e-02
    2.0698131561e+01   -1.5405800194e-02
    2.0798519135e+01   -1.5651199967e-02
    2.0899551392e+01   -1.5901200473e-02
    2.0999647141e+01   -1.6151599586e-02
    2.1099111557e+01   -1.6402799636e-02
    2.1198966980e+01   -1.6657700762e-02
    2.1298326492e+01   -1.6914499924e-02
    2.1398935318e+01   -1.7177600414e-02
    2.1499458313e+01   -1.7443500459e-02
    2.1598619461e+01   -1.7708100379e-02
    2.1698289871e+01   -1.7976399511e-02
    2.1799348831e+01   -1.8250999972e-02
    2.1897935867e+01   -1.8521500751e-02
    2.1999275208e+01   -1.8801800907e-02
    2.2097919464e+01   -1.9076200202e-02
    2.2198156357e+01   -1.9356500357e-02
    2.2299243927e+01   -1.9640700892e-02
    2.2400039673e+01   -1.9926199690e-02
    2.2498214722e+01   -2.0206799731e-02
    2.2599086761e+01   -2.0497700199e-02
    2.2698888779e+01   -2.0788000897e-02
    2.2799312592e+01   -2.1082499996e-02
    2.2899595261e+01   -2.1379200742e-02
    2.2998430252e+01   -2.1674599499e-02
    2.3099084854e+01   -2.1978599951e-02
    2.3199552536e+01   -2.2285100073e-02
    2.3299903870e+01   -2.2594600916e-02
    2.3399003983e+01   -2.2904099897e-02
    2.3498929977e+01   -2.3220900446e-02
    2.3598531723e+01   -2.3541800678e-02
    2.3698837280e+01   -2.3870099336e-02
    2.3799287796e+01   -2.4203799665e-02
    2.3898925781e+01   -2.4539299309e-02
    2.3999414444e+01   -2.4882400408e-02
    2.4099821091e+01   -2.5229699910e-02
    2.4199785233e+01   -2.5579899549e-02
    2.4299215317e+01   -2.5932300836e-02
    2.4398683548e+01   -2.6288500056e-02
    2.4498859406e+01   -2.6650900021e-02
    2.4599990845e+01   -2.7020400390e-02
    2.4699514389e+01   -2.7387600392e-02
    2.4799453735e+01   -2.7759699151e-02
    2.4899499893e+01   -2.8135199100e-02
    2.4998231888e+01   -2.8508700430e-02
    2.5099704742e+01   -2.8895400465e-02
    2.5198339462e+01   -2.9273999855e-02
    2.5299097061e+01   -2.9663300142e-02
    2.5399494171e+01   -3.0053300783e-02
    2.5499496460e+01   -3.0443700030e-02
    2.5599704742e+01   -3.0836900696e-02
    2.5699876785e+01   -3.1232399866e-02
    2.5799884796e+01   -3.1629700214e-02
    2.5899108887e+01   -3.2026700675e-02
    2.5998329163e+01   -3.2426599413e-02
    2.6099086761e+01   -3.2835699618e-02
    2.6199541092e+01   -3.3246800303e-02
    2.6299970627e+01   -3.3661201596e-02
    2.6399118423e+01   -3.4073501825e-02
    2.6499774933e+01   -3.4495200962e-02
    2.6598541260e+01   -3.4912198782e-02
    2.6699808121e+01   -3.5343300551e-02
    2.6799467087e+01   -3.5771001130e-02
    2.6899703979e+01   -3.6204498261e-02
    2.6999322891e+01   -3.6638200283e-02
    2.7098617554e+01   -3.7073399872e-02
    2.7199611664e+01   -3.7519600242e-02
    2.7298065186e+01   -3.7958700210e-02
    2.7399250031e+01   -3.8414400071e-02
    2.7499807358e+01   -3.8871798664e-02
    2.7599348068e+01   -3.9328701794e-02
    2.7699430466e+01   -3.9792101830e-02
    2.7799060822e+01   -4.0257498622e-02
    2.7899314880e+01   -4.0730301291e-02
    2.7998985291e+01   -4.1204601526e-02
    2.8098850250e+01   -4.1683800519e-02
    2.8199756622e+01   -4.2171899229e-02
    2.8298299789e+01   -4.2652301490e-02
    2.8398641586e+01   -4.3145600706e-02
    2.8500015259e+01   -4.3648298830e-02
    2.8597982407e+01   -4.4137898833e-02
    2.8700023651e+01   -4.4651400298e-02
    2.8798591614e+01   -4.5150600374e-02
    2.8899835587e+01   -4.5666798949e-02
    2.8998102188e+01   -4.6171400696e-02
    2.9099990845e+01   -4.6698398888e-02
    2.9198360443e+01   -4.7210898250e-02
    2.9299106598e+01   -4.7739200294e-02
    2.9398105621e+01   -4.8261500895e-02
    2.9499437332e+01   -4.8799701035e-02
    2.9599403381e+01   -4.9334198236e-02
    2.9699005127e+01   -4.9870301038e-02
    2.9799058914e+01   -5.0411701202e-02
    2.9898826599e+01   -5.0954200327e-02
    2.9998357773e+01   -5.1497500390e-02
    3.0098888397e+01   -5.2048899233e-02
    3.0199832916e+01   -5.2605301142e-02
    3.0299915314e+01   -5.3159900010e-02
    3.0399776459e+01   -5.3716201335e-02
    3.0498529434e+01   -5.4269198328e-02
    3.0599279404e+01   -5.4836899042e-02
    3.0698387146e+01   -5.5399201810e-02
    3.0798753738e+01   -5.5973101407e-02
    3.0899684906e+01   -5.6554399431e-02
    3.0999702454e+01   -5.7134401053e-02
    3.1099124908e+01   -5.7714499533e-02
    3.1198778152e+01   -5.8299701661e-02
    3.1298311234e+01   -5.8888200670e-02
    3.1398508072e+01   -5.9484899044e-02
    3.1499303818e+01   -6.0089100152e-02
    3.1599107742e+01   -6.0690898448e-02
    3.1698919296e+01   -6.1296101660e-02
    3.1798555374e+01   -6.1903599650e-02
    3.1899126053e+01   -6.2519997358e-02
    3.1999755859e+01   -6.3139699399e-02
    3.2098369598e+01   -6.3749298453e-02
    3.2198089600e+01   -6.4368002117e-02
    3.2298179626e+01   -6.4991302788e-02
    3.2399063110e+01   -6.5622396767e-02
    3.2499000549e+01   -6.6251099110e-02
    3.2599899292e+01   -6.6889703274e-02
    3.2699657440e+01   -6.7525103688e-02
    3.2799022675e+01   -6.8161800504e-02
    3.2898643494e+01   -6.8804003298e-02
    3.2999446869e+01   -6.9457501173e-02
    3.3098613739e+01   -7.0103801787e-02
    3.3199157715e+01   -7.0762597024e-02
    3.3298656464e+01   -7.1418598294e-02
    3.3399826050e+01   -7.2091400623e-02
    3.3499744415e+01   -7.2763003409e-02
    3.3599918365e+01   -7.3444001377e-02
    3.3699794769e+01   -7.4131101370e-02
    3.3798305511e+01   -7.4816398323e-02
    3.3898357391e+01   -7.5519703329e-02
    3.3998065948e+01   -7.6227903366e-02
    3.4099456787e+01   -7.6954901218e-02
    3.4198986053e+01   -7.7674798667e-02
    3.4299285889e+01   -7.8406296670e-02
    3.4399330139e+01   -7.9141497612e-02
    3.4498596191e+01   -7.9876400530e-02
    3.4599075317e+01   -8.0625496805e-02
    3.4699577332e+01   -8.1379599869e-02
    3.4798046112e+01   -8.2122996449e-02
    3.4898307800e+01   -8.2884401083e-02
    3.4999942780e+01   -8.3660900593e-02
    3.5099067688e+01   -8.4422700107e-02
    3.5199687958e+01   -8.5199803114e-02
    3.5298454285e+01   -8.5965901613e-02
    3.5398876190e+01   -8.6747601628e-02
    3.5498523712e+01   -8.7526001036e-02
    3.5598751068e+01   -8.8311798871e-02
    3.5698947906e+01   -8.9100502431e-02
    3.5798839569e+01   -8.9889898896e-02
    3.5899185181e+01   -9.0686403215e-02
    3.5998168945e+01   -9.1475598514e-02
    3.6099449158e+01   -9.2287100852e-02
    3.6199863434e+01   -9.3096300960e-02
    3.6299209595e+01   -9.3901097775e-02
    3.6399646759e+01   -9.4718903303e-02
    3.6499813080e+01   -9.5539003611e-02
    3.6598258972e+01   -9.6349596977e-02
    3.6699520111e+01   -9.7189001739e-02
    3.6799983978e+01   -9.8027400672e-02
    3.6899822235e+01   -9.8865598440e-02
    3.6998287201e+01   -9.9696800113e-02
    3.7098762512e+01   -1.0055000335e-01
    3.7199153900e+01   -1.0140799731e-01
    3.7298419952e+01   -1.0226300359e-01
    3.7398902893e+01   -1.0313499719e-01
    3.7498867035e+01   -1.0400900245e-01
    3.7598621368e+01   -1.0488600284e-01
    3.7698493958e+01   -1.0577099770e-01
    3.7798793793e+01   -1.0666500032e-01
    3.7899002075e+01   -1.0756500065e-01
    3.7998519897e+01   -1.0846500099e-01
    3.8098690033e+01   -1.0937699676e-01
    3.8199634552e+01   -1.1030100286e-01
    3.8298583984e+01   -1.1121299863e-01
    3.8399978638e+01   -1.1215399951e-01
    3.8499069214e+01   -1.1307899654e-01
    3.8599227905e+01   -1.1402100325e-01
    3.8699016571e+01   -1.1496400088e-01
    3.8798889160e+01   -1.1591099948e-01
    3.8899158478e+01   -1.1686699837e-01
    3.8999721527e+01   -1.1783000082e-01
    3.9098751068e+01   -1.1878500134e-01
    3.9199024200e+01   -1.1975599825e-01
    3.9298969269e+01   -1.2072899938e-01
    3.9399429321e+01   -1.2171299756e-01
    3.9499420166e+01   -1.2269700319e-01
    3.9598690033e+01   -1.2368000299e-01
    3.9698402405e+01   -1.2467300147e-01
    3.9798267365e+01   -1.2567099929e-01
    3.9899662018e+01   -1.2668700516e-01
    3.9998157501e+01   -1.2767599523e-01
    4.0098312378e+01   -1.2868399918e-01
    4.0199260712e+01   -1.2970399857e-01
    4.0299274445e+01   -1.3071900606e-01
    4.0399101257e+01   -1.3173599541e-01
    4.0499881744e+01   -1.3276700675e-01
    4.0598751068e+01   -1.3378299773e-01
    4.0697849274e+01   -1.3480700552e-01
    4.0798099518e+01   -1.3585199416e-01
    4.0898983002e+01   -1.3690899312e-01
    4.0999225616e+01   -1.3796600699e-01
    4.1098846436e+01   -1.3902099431e-01
    4.1198230743e+01   -1.4008000493e-01
    4.1299804688e+01   -1.4116799831e-01
    4.1398517609e+01   -1.4223299921e-01
    4.1499492645e+01   -1.4332799613e-01
    4.1599098206e+01   -1.4441399276e-01
    4.1698673248e+01   -1.4550399780e-01
    4.1798664093e+01   -1.4660499990e-01
    4.1899353027e+01   -1.4771799743e-01
    4.1998130798e+01   -1.4881500602e-01
    4.2098697662e+01   -1.4993399382e-01
    4.2198337555e+01   -1.5104599297e-01
    4.2299415588e+01   -1.5217700601e-01
    4.2397911072e+01   -1.5328299999e-01
    4.2498508453e+01   -1.5441699326e-01
    4.2599517822e+01   -1.5556199849e-01
    4.2698760986e+01   -1.5669099987e-01
    4.2797988892e+01   -1.5782399476e-01
    4.2898094177e+01   -1.5897199512e-01
    4.2999389648e+01   -1.6013899446e-01
    4.3098480225e+01   -1.6128499806e-01
    4.3199134827e+01   -1.6245399415e-01
    4.3299274445e+01   -1.6362300515e-01
    4.3398456573e+01   -1.6478799284e-01
    4.3498039246e+01   -1.6596800089e-01
    4.3598197937e+01   -1.6716599464e-01
    4.3699562073e+01   -1.6839100420e-01
    4.3798164368e+01   -1.6959400475e-01
    4.3898494720e+01   -1.7082899809e-01
    4.3997955322e+01   -1.7206500471e-01
    4.4099380493e+01   -1.7333599925e-01
    4.4199527740e+01   -1.7460000515e-01
    4.4299797058e+01   -1.7587399483e-01
    4.4399765015e+01   -1.7715199292e-01
    4.4499065399e+01   -1.7842899263e-01
    4.4599613190e+01   -1.7972999811e-01
    4.4699859619e+01   -1.8103300035e-01
    4.4799285889e+01   -1.8233199418e-01
    4.4899593353e+01   -1.8364800513e-01
    4.4998767853e+01   -1.8495599926e-01
    4.5098468781e+01   -1.8627700210e-01
    4.5199489594e+01   -1.8762099743e-01
    4.5298721313e+01   -1.8894599378e-01
    4.5399169922e+01   -1.9029100239e-01
    4.5498218536e+01   -1.9162000716e-01
    4.5598464966e+01   -1.9296899438e-01
    4.5698719025e+01   -1.9432200491e-01
    4.5798614502e+01   -1.9567400217e-01
    4.5898624420e+01   -1.9703300297e-01
    4.5999057770e+01   -1.9840200245e-01
    4.6098060608e+01   -1.9975799322e-01
    4.6197959900e+01   -2.0113399625e-01
    4.6298259735e+01   -2.0252099633e-01
    4.6398853302e+01   -2.0392000675e-01
    4.6498332977e+01   -2.0530900359e-01
    4.6598827362e+01   -2.0671999454e-01
    4.6699333191e+01   -2.0814000070e-01
    4.6799842834e+01   -2.0956699550e-01
    4.6898353577e+01   -2.1097399294e-01
    4.6998882294e+01   -2.1241599321e-01
    4.7099407196e+01   -2.1386399865e-01
    4.7199050903e+01   -2.1530799568e-01
    4.7299301147e+01   -2.1676999331e-01
    4.7397838593e+01   -2.1821700037e-01
    4.7498901367e+01   -2.1971100569e-01
    4.7598457336e+01   -2.2119000554e-01
    4.7699333191e+01   -2.2269700468e-01
    4.7799705505e+01   -2.2420600057e-01
    4.7897842407e+01   -2.2569000721e-01
    4.7998027802e+01   -2.2721199691e-01
    4.8098144531e+01   -2.2874200344e-01
    4.8198638916e+01   -2.3028500378e-01
    4.8299163818e+01   -2.3183600605e-01
    4.8398986816e+01   -2.3338499665e-01
    4.8499298096e+01   -2.3495000601e-01
    4.8599334717e+01   -2.3651899397e-01
    4.8698936462e+01   -2.3808799684e-01
    4.8798774719e+01   -2.3966699839e-01
    4.8899101257e+01   -2.4126000702e-01
    4.8997840881e+01   -2.4283500016e-01
    4.9097698212e+01   -2.4443499744e-01
    4.9198036194e+01   -2.4605000019e-01
    4.9299808502e+01   -2.4769499898e-01
    4.9398326874e+01   -2.4929399788e-01
    4.9498130798e+01   -2.5092101097e-01
    4.9598773956e+01   -2.5256800652e-01
    4.9699417114e+01   -2.5422298908e-01
    4.9799125671e+01   -2.5586798787e-01
    4.9899223328e+01   -2.5752198696e-01
    4.9997806549e+01   -2.5915399194e-01
    5.0097949982e+01   -2.6081499457e-01
    5.0198936462e+01   -2.6249501109e-01
    5.0298686981e+01   -2.6416000724e-01
    5.0398563385e+01   -2.6583299041e-01
    5.0499801636e+01   -2.6753601432e-01
    5.0598510742e+01   -2.6920399070e-01
    5.0699558258e+01   -2.7092099190e-01
    5.0797702789e+01   -2.7259999514e-01
    5.0898761749e+01   -2.7434000373e-01
    5.0999065399e+01   -2.7607500553e-01
    5.1098777771e+01   -2.7780699730e-01
    5.1197803497e+01   -2.7953600883e-01
    5.1299434662e+01   -2.8132000566e-01
    5.1398513794e+01   -2.8306901455e-01
    5.1497718811e+01   -2.8483000398e-01
    5.1599037170e+01   -2.8663599491e-01
    5.1698665619e+01   -2.8841900826e-01
    5.1798736572e+01   -2.9021701217e-01
    5.1898002625e+01   -2.9200801253e-01
    5.1998893738e+01   -2.9383501410e-01
    5.2099208832e+01   -2.9565599561e-01
    5.2198104858e+01   -2.9745501280e-01
    5.2298912048e+01   -2.9929101467e-01
    5.2398891449e+01   -3.0111798644e-01
    5.2499500275e+01   -3.0296298862e-01
    5.2599430084e+01   -3.0480200052e-01
    5.2698680878e+01   -3.0663400888e-01
    5.2798683167e+01   -3.0848601460e-01
    5.2898925781e+01   -3.1034898758e-01
    5.2998336792e+01   -3.1220299006e-01
    5.3098972321e+01   -3.1408798695e-01
    5.3199756622e+01   -3.1598201394e-01
    5.3299705505e+01   -3.1786999106e-01
    5.3398967743e+01   -3.1975400448e-01
    5.3498081207e+01   -3.2164898515e-01
    5.3597942352e+01   -3.2357299328e-01
    5.3698688507e+01   -3.2552999258e-01
    5.3799427032e+01   -3.2750201225e-01
    5.3898696899e+01   -3.2945901155e-01
    5.3997852325e+01   -3.3142900467e-01
    5.4098926544e+01   -3.3345100284e-01
    5.4199199677e+01   -3.3546900749e-01
    5.4299488068e+01   -3.3750098944e-01
    5.4399444580e+01   -3.3953699470e-01
    5.4498874664e+01   -3.4157299995e-01
    5.4599510193e+01   -3.4364300966e-01
    5.4697708130e+01   -3.4567299485e-01
    5.4798896790e+01   -3.4777399898e-01
    5.4899265289e+01   -3.4986600280e-01
    5.4998733521e+01   -3.5194799304e-01
    5.5098186493e+01   -3.5403800011e-01
    5.5199020386e+01   -3.5616499186e-01
    5.5298252106e+01   -3.5826399922e-01
    5.5398723602e+01   -3.6039400101e-01
    5.5498664856e+01   -3.6251801252e-01
    5.5598934174e+01   -3.6465498805e-01
    5.5699199677e+01   -3.6679598689e-01
    5.5798797607e+01   -3.6893001199e-01
    5.5898223877e+01   -3.7106600404e-01
    5.5998676300e+01   -3.7323200703e-01
    5.6099124908e+01   -3.7540701032e-01
    5.6199584961e+01   -3.7759101391e-01
    5.6297779083e+01   -3.7973499298e-01
    5.6398277283e+01   -3.8193899393e-01
    5.6499656677e+01   -3.8417199254e-01
    5.6598178864e+01   -3.8635098934e-01
    5.6698722839e+01   -3.8858699799e-01
    5.6799278259e+01   -3.9083299041e-01
    5.6897842407e+01   -3.9304500818e-01
    5.6998920441e+01   -3.9532199502e-01
    5.7099506378e+01   -3.9759698510e-01
    5.7198726654e+01   -3.9985299110e-01
    5.7299350739e+01   -4.0215298533e-01
    5.7397956848e+01   -4.0441998839e-01
    5.7499572754e+01   -4.0676999092e-01
    5.7598880768e+01   -4.0907800198e-01
    5.7698261261e+01   -4.1139999032e-01
    5.7798713684e+01   -4.1376000643e-01
    5.7899173737e+01   -4.1613200307e-01
    5.7999431610e+01   -4.1851100326e-01
    5.8097606659e+01   -4.2085099220e-01
    5.8199443817e+01   -4.2328900099e-01
    5.8298030853e+01   -4.2566001415e-01
    5.8398441315e+01   -4.2808499932e-01
    5.8497840881e+01   -4.3049699068e-01
    5.8597908020e+01   -4.3293499947e-01
    5.8699375153e+01   -4.3541601300e-01
    5.8799114227e+01   -4.3786299229e-01
    5.8899513245e+01   -4.4033300877e-01
    5.8997829437e+01   -4.4275999069e-01
    5.9097881317e+01   -4.4523900747e-01
    5.9198299408e+01   -4.4773599505e-01
    5.9299518585e+01   -4.5026099682e-01
    5.9398120880e+01   -4.5272800326e-01
    5.9498588562e+01   -4.5524901152e-01
    5.9599578857e+01   -4.5779299736e-01
    5.9698368073e+01   -4.6028900146e-01
    5.9797969818e+01   -4.6281298995e-01
    5.9899490356e+01   -4.6539199352e-01
    5.9998550415e+01   -4.6791198850e-01
    6.0098800659e+01   -4.7046899796e-01
    6.0197673798e+01   -4.7299799323e-01
    6.0299591064e+01   -4.7561299801e-01
    6.0399276733e+01   -4.7817900777e-01
    6.0498588562e+01   -4.8074600101e-01
    6.0599491119e+01   -4.8336499929e-01
    6.0698345184e+01   -4.8594400287e-01
    6.0798645020e+01   -4.8857599497e-01
    6.0899639130e+01   -4.9124100804e-01
    6.0997974396e+01   -4.9384799600e-01
    6.1097682953e+01   -4.9650299549e-01
    6.1198387146e+01   -4.9919599295e-01
    6.1297801971e+01   -5.0186902285e-01
    6.1398715973e+01   -5.0459498167e-01
    6.1497650146e+01   -5.0728100538e-01
    6.1598873138e+01   -5.1003897190e-01
    6.1698242188e+01   -5.1275700331e-01
    6.1798027039e+01   -5.1549601555e-01
    6.1898254395e+01   -5.1825702190e-01
    6.1998786926e+01   -5.2103400230e-01
    6.2099498749e+01   -5.2382099628e-01
    6.2199020386e+01   -5.2657902241e-01
    6.2298179626e+01   -5.2933299541e-01
    6.2398490906e+01   -5.3212499619e-01
    6.2499271393e+01   -5.3493797779e-01
    6.2597793579e+01   -5.3769701719e-01
    6.2699069977e+01   -5.4053997993e-01
    6.2799461365e+01   -5.4336702824e-01
    6.2898593903e+01   -5.4616600275e-01
    6.2999542236e+01   -5.4902601242e-01
    6.3098785400e+01   -5.5184698105e-01
    6.3197685242e+01   -5.5466699600e-01
    6.3297672272e+01   -5.5752801895e-01
    6.3398708344e+01   -5.6043398380e-01
    6.3499557495e+01   -5.6335097551e-01
    6.3599258423e+01   -5.6625300646e-01
    6.3698112488e+01   -5.6914901733e-01
    6.3798973083e+01   -5.7212299109e-01
    6.3897838593e+01   -5.7505601645e-01
    6.3998752594e+01   -5.7806998491e-01
    6.4099327087e+01   -5.8109098673e-01
    6.4197654724e+01   -5.8406102657e-01
    6.4298240662e+01   -5.8711498976e-01
    6.4398399353e+01   -5.9017097950e-01
    6.4499412537e+01   -5.9327000380e-01
    6.4598121643e+01   -5.9631097317e-01
    6.4698661804e+01   -5.9942197800e-01
    6.4798332214e+01   -6.0251700878e-01
    6.4898757935e+01   -6.0564702749e-01
    6.4997772217e+01   -6.0874497890e-01
    6.5099143982e+01   -6.1192899942e-01
    6.5197891235e+01   -6.1504197121e-01
    6.5299224854e+01   -6.1824399233e-01
    6.5397705078e+01   -6.2136399746e-01
    6.5497535706e+01   -6.2453299761e-01
    6.5597808838e+01   -6.2772399187e-01
    6.5697944641e+01   -6.3091897964e-01
    6.5799468994e+01   -6.3416600227e-01
    6.5899177551e+01   -6.3736301661e-01
    6.5997619629e+01   -6.4052897692e-01
    6.6098075867e+01   -6.4376997948e-01
    6.6198547363e+01   -6.4702397585e-01
    6.6297752380e+01   -6.5025001764e-01
    6.6398277283e+01   -6.5352898836e-01
    6.6498817444e+01   -6.5682101250e-01
    6.6599380493e+01   -6.6012597084e-01
    6.6697944641e+01   -6.6338002682e-01
    6.6798538208e+01   -6.6671597958e-01
    6.6899154663e+01   -6.7006802559e-01
    6.6997772217e+01   -6.7336499691e-01
    6.7098403931e+01   -6.7674201727e-01
    6.7197799683e+01   -6.8009400368e-01
    6.7299232483e+01   -6.8353098631e-01
    6.7397903442e+01   -6.8689298630e-01
    6.7499450684e+01   -6.9037002325e-01
    6.7598495483e+01   -6.9377797842e-01
    6.7698562622e+01   -6.9723701477e-01
    6.7799079895e+01   -7.0072698593e-01
    6.7899513245e+01   -7.0423197746e-01
    6.7997550964e+01   -7.0766901970e-01
    6.8097465515e+01   -7.1118497849e-01
    6.8197738647e+01   -7.1472799778e-01
    6.8298423767e+01   -7.1829801798e-01
    6.8399162292e+01   -7.2188299894e-01
    6.8497413635e+01   -7.2539198399e-01
    6.8597419739e+01   -7.2897601128e-01
    6.8698593140e+01   -7.3261201382e-01
    6.8797821045e+01   -7.3618602753e-01
    6.8898292542e+01   -7.3981398344e-01
    6.8998565674e+01   -7.4344301224e-01
    6.9098815918e+01   -7.4708199501e-01
    6.9199317932e+01   -7.5073999166e-01
    6.9297958374e+01   -7.5433897972e-01
    6.9398658752e+01   -7.5802302361e-01
    6.9497528076e+01   -7.6164799929e-01
    6.9598785400e+01   -7.6537197828e-01
    6.9699012756e+01   -7.6907002926e-01
    6.9798469543e+01   -7.7274900675e-01
    6.9897918701e+01   -7.7643597126e-01
    6.9998741150e+01   -7.8018099070e-01
    7.0098770142e+01   -7.8390502930e-01
    7.0197593689e+01   -7.8759402037e-01
    7.0299331665e+01   -7.9140400887e-01
    7.0398887634e+01   -7.9514497519e-01
    7.0498146057e+01   -7.9888701439e-01
    7.0598922729e+01   -8.0270302296e-01
    7.0697723389e+01   -8.0646300316e-01
    7.0797935486e+01   -8.1029701233e-01
    7.0898986816e+01   -8.1418198347e-01
    7.0997436523e+01   -8.1798398495e-01
    7.1099281311e+01   -8.2193398476e-01
    7.1197463989e+01   -8.2575601339e-01
    7.1298927307e+01   -8.2972502708e-01
    7.1398429871e+01   -8.3363598585e-01
    7.1497489929e+01   -8.3754497766e-01
    7.1598602295e+01   -8.4154897928e-01
    7.1697875977e+01   -8.4549498558e-01
    7.1797737122e+01   -8.4947597980e-01
    7.1898521423e+01   -8.5350799561e-01
    7.1998237610e+01   -8.5750699043e-01
    7.2098480225e+01   -8.6153399944e-01
    7.2197616577e+01   -8.6552202702e-01
    7.2298660278e+01   -8.6959302425e-01
    7.2398811340e+01   -8.7363797426e-01
    7.2499229431e+01   -8.7770301104e-01
    7.2599159241e+01   -8.8175797462e-01
    7.2698158264e+01   -8.8578397036e-01
    7.2798927307e+01   -8.8989198208e-01
    7.2898223877e+01   -8.9394897223e-01
    7.2999290466e+01   -8.9808899164e-01
    7.3098312378e+01   -9.0215599537e-01
    7.3199340820e+01   -9.0631598234e-01
    7.3297927856e+01   -9.1038900614e-01
    7.3398887634e+01   -9.1457498074e-01
    7.3499389648e+01   -9.1876101494e-01
    7.3599090576e+01   -9.2293500900e-01
    7.3698051453e+01   -9.2709898949e-01
    7.3799026489e+01   -9.3137001991e-01
    7.3897460938e+01   -9.3555700779e-01
    7.3998039246e+01   -9.3985801935e-01
    7.4099250793e+01   -9.4420897961e-01
    7.4197731018e+01   -9.4846200943e-01
    7.4298301697e+01   -9.5282500982e-01
    7.4398780823e+01   -9.5720499754e-01
    7.4497955322e+01   -9.6154797077e-01
    7.4598747253e+01   -9.6597898006e-01
    7.4698951721e+01   -9.7040098906e-01
    7.4799346924e+01   -9.7484600544e-01
    7.4897666931e+01   -9.7921299934e-01
    7.4997718811e+01   -9.8367398977e-01
    7.5097938538e+01   -9.8815798759e-01
    7.5198051453e+01   -9.9265199900e-01
    7.5297737122e+01   -9.9713701010e-01
    7.5398223877e+01   -1.0016700029e+00
    7.5498619080e+01   -1.0061999559e+00
    7.5598892212e+01   -1.0107400417e+00
    7.5698959351e+01   -1.0152900219e+00
    7.5798217773e+01   -1.0197999477e+00
    7.5898078918e+01   -1.0243500471e+00
    7.5998512268e+01   -1.0289399624e+00
    7.6098945618e+01   -1.0335400105e+00
    7.6198135376e+01   -1.0380899906e+00
    7.6299026489e+01   -1.0427399874e+00
    7.6397537231e+01   -1.0472999811e+00
    7.6498077393e+01   -1.0519599915e+00
    7.6598640442e+01   -1.0566400290e+00
    7.6699226379e+01   -1.0613399744e+00
    7.6797813416e+01   -1.0659699440e+00
    7.6898445129e+01   -1.0707099438e+00
    7.6999084473e+01   -1.0754699707e+00
    7.7097724915e+01   -1.0801500082e+00
    7.7197547913e+01   -1.0849100351e+00
    7.7297508240e+01   -1.0896899700e+00
    7.7398239136e+01   -1.0945400000e+00
    7.7499069214e+01   -1.0994100571e+00
    7.7597511292e+01   -1.1041899920e+00
    7.7697578430e+01   -1.1090600491e+00
    7.7798149109e+01   -1.1139800549e+00
    7.7898727417e+01   -1.1189299822e+00
    7.7999000549e+01   -1.1238700151e+00
    7.8099029541e+01   -1.1288199425e+00
    7.8198097229e+01   -1.1337399483e+00
    7.8298843384e+01   -1.1387499571e+00
    7.8397895813e+01   -1.1436899900e+00
    7.8498397827e+01   -1.1487200260e+00
    7.8598243713e+01   -1.1537300348e+00
    7.8699134827e+01   -1.1588000059e+00
    7.8798233032e+01   -1.1637899876e+00
    7.8898757935e+01   -1.1688599586e+00
    7.8999099731e+01   -1.1739200354e+00
    7.9098800659e+01   -1.1789699793e+00
    7.9197227478e+01   -1.1839599609e+00
    7.9298713684e+01   -1.1891200542e+00
    7.9397483826e+01   -1.1941499710e+00
    7.9498268127e+01   -1.1992900372e+00
    7.9597702026e+01   -1.2043700218e+00
    7.9698463440e+01   -1.2095400095e+00
    7.9798706055e+01   -1.2146899700e+00
    7.9898254395e+01   -1.2198100090e+00
    7.9999183655e+01   -1.2250200510e+00
    8.0099342346e+01   -1.2301900387e+00
    8.0198188782e+01   -1.2353199720e+00
    8.0297851562e+01   -1.2404899597e+00
    8.0397384644e+01   -1.2456799746e+00
    8.0498878479e+01   -1.2509900331e+00
    8.0597755432e+01   -1.2561800480e+00
    8.0698669434e+01   -1.2615100145e+00
    8.0798789978e+01   -1.2668100595e+00
    8.0897834778e+01   -1.2720899582e+00
    8.0998413086e+01   -1.2774599791e+00
    8.1098167419e+01   -1.2828099728e+00
    8.1198059082e+01   -1.2881900072e+00
    8.1297584534e+01   -1.2935800552e+00
    8.1399230957e+01   -1.2991000414e+00
    8.1498573303e+01   -1.3045099974e+00
    8.1597755432e+01   -1.3099299669e+00
    8.1699058533e+01   -1.3154900074e+00
    8.1798805237e+01   -1.3209700584e+00
    8.1897491455e+01   -1.3264199495e+00
    8.1998199463e+01   -1.3319799900e+00
    8.2097534180e+01   -1.3374799490e+00
    8.2198646545e+01   -1.3430900574e+00
    8.2297843933e+01   -1.3485900164e+00
    8.2397819519e+01   -1.3541500568e+00
    8.2497947693e+01   -1.3597300053e+00
    8.2597587585e+01   -1.3652900457e+00
    8.2698677063e+01   -1.3709399700e+00
    8.2798019409e+01   -1.3765000105e+00
    8.2899147034e+01   -1.3821699619e+00
    8.2998252869e+01   -1.3877400160e+00
    8.3097335815e+01   -1.3933199644e+00
    8.3198417664e+01   -1.3990199566e+00
    8.3297454834e+01   -1.4046299458e+00
    8.3398284912e+01   -1.4103499651e+00
    8.3498504639e+01   -1.4160599709e+00
    8.3598274231e+01   -1.4217599630e+00
    8.3697303772e+01   -1.4274499416e+00
    8.3798347473e+01   -1.4332799911e+00
    8.3898452759e+01   -1.4390799999e+00
    8.3998771667e+01   -1.4449299574e+00
    8.4097610474e+01   -1.4507100582e+00
    8.4198112488e+01   -1.4566099644e+00
    8.4298561096e+01   -1.4625400305e+00
    8.4398628235e+01   -1.4684699774e+00
    8.4497459412e+01   -1.4743399620e+00
    8.4598266602e+01   -1.4803600311e+00
    8.4698417664e+01   -1.4863599539e+00
    8.4797554016e+01   -1.4923199415e+00
    8.4898002625e+01   -1.4983700514e+00
    8.4997154236e+01   -1.5043599606e+00
    8.5098831177e+01   -1.5105199814e+00
    8.5197196960e+01   -1.5164999962e+00
    8.5298828125e+01   -1.5226900578e+00
    8.5397277832e+01   -1.5286999941e+00
    8.5498176575e+01   -1.5348700285e+00
    8.5598411560e+01   -1.5410100222e+00
    8.5698425293e+01   -1.5471500158e+00
    8.5797668457e+01   -1.5532499552e+00
    8.5897262573e+01   -1.5593800545e+00
    8.5997642517e+01   -1.5655800104e+00
    8.6098022461e+01   -1.5717899799e+00
    8.6199165344e+01   -1.5780600309e+00
    8.6298286438e+01   -1.5842299461e+00
    8.6398757935e+01   -1.5904899836e+00
    8.6497253418e+01   -1.5966500044e+00
    8.6597785950e+01   -1.6029599905e+00
    8.6698348999e+01   -1.6093000174e+00
    8.6798927307e+01   -1.6156500578e+00
    8.6897521973e+01   -1.6219099760e+00
    8.6998008728e+01   -1.6282999516e+00
    8.7097480774e+01   -1.6346499920e+00
    8.7199012756e+01   -1.6411600113e+00
    8.7298263550e+01   -1.6475399733e+00
    8.7399002075e+01   -1.6540499926e+00
    8.7498977661e+01   -1.6605399847e+00
    8.7597389221e+01   -1.6669399738e+00
    8.7698982239e+01   -1.6735800505e+00
    8.7797431946e+01   -1.6800400019e+00
    8.7898033142e+01   -1.6866699457e+00
    8.7998367310e+01   -1.6932899952e+00
    8.8098220825e+01   -1.6999100447e+00
    8.8198577881e+01   -1.7065700293e+00
    8.8297332764e+01   -1.7131400108e+00
    8.8398300171e+01   -1.7198799849e+00
    8.8498825073e+01   -1.7265900373e+00
    8.8598434448e+01   -1.7332600355e+00
    8.8699089050e+01   -1.7400100231e+00
    8.8797904968e+01   -1.7466499805e+00
    8.8898475647e+01   -1.7534099817e+00
    8.8999099731e+01   -1.7601799965e+00
    8.9097602844e+01   -1.7668299675e+00
    8.9198226929e+01   -1.7736200094e+00
    8.9298820496e+01   -1.7804199457e+00
    8.9397926331e+01   -1.7871299982e+00
    8.9498771667e+01   -1.7939699888e+00
    8.9597633362e+01   -1.8006800413e+00
    8.9697586060e+01   -1.8074799776e+00
    8.9798973083e+01   -1.8143899441e+00
    8.9898147583e+01   -1.8211699724e+00
    8.9999160767e+01   -1.8280800581e+00
    9.0097259521e+01   -1.8348100185e+00
    9.0198120117e+01   -1.8417400122e+00
    9.0297683716e+01   -1.8486000299e+00
    9.0399131775e+01   -1.8556100130e+00
    9.0498565674e+01   -1.8624999523e+00
    9.0597503662e+01   -1.8693900108e+00
    9.0698234558e+01   -1.8764300346e+00
    9.0798393250e+01   -1.8834600449e+00
    9.0897216797e+01   -1.8904199600e+00
    9.0997528076e+01   -1.8975299597e+00
    9.1097534180e+01   -1.9046299458e+00
    9.1199119568e+01   -1.9118700027e+00
    9.1298919678e+01   -1.9190200567e+00
    9.1398345947e+01   -1.9261599779e+00
    9.1497810364e+01   -1.9333300591e+00
    9.1597274780e+01   -1.9405100346e+00
    9.1698348999e+01   -1.9478399754e+00
    9.1797943115e+01   -1.9550700188e+00
    9.1898361206e+01   -1.9623899460e+00
    9.1998710632e+01   -1.9697099924e+00
    9.2098670959e+01   -1.9770100117e+00
    9.2197799683e+01   -1.9842599630e+00
    9.2297500610e+01   -1.9915599823e+00
    9.2397270203e+01   -1.9988700151e+00
    9.2497146606e+01   -2.0062000751e+00
    9.2598716736e+01   -2.0136599541e+00
    9.2697563171e+01   -2.0209300518e+00
    9.2799087524e+01   -2.0284199715e+00
    9.2898223877e+01   -2.0357298851e+00
    9.2997360229e+01   -2.0430600643e+00
    9.3098487854e+01   -2.0505399704e+00
    9.3197570801e+01   -2.0578899384e+00
    9.3298645020e+01   -2.0653998852e+00
    9.3397590637e+01   -2.0727798939e+00
    9.3497581482e+01   -2.0802600384e+00
    9.3597373962e+01   -2.0877499580e+00
    9.3698448181e+01   -2.0953800678e+00
    9.3797485352e+01   -2.1028800011e+00
    9.3898063660e+01   -2.1105399132e+00
    9.3998168945e+01   -2.1181900501e+00
    9.4098831177e+01   -2.1259300709e+00
    9.4197235107e+01   -2.1335198879e+00
    9.4297615051e+01   -2.1412899494e+00
    9.4397552490e+01   -2.1490600109e+00
    9.4498397827e+01   -2.1569399834e+00
    9.4597183228e+01   -2.1646800041e+00
    9.4697586060e+01   -2.1725699902e+00
    9.4798522949e+01   -2.1805300713e+00
    9.4898948669e+01   -2.1884601116e+00
    9.4998558044e+01   -2.1963601112e+00
    9.5098770142e+01   -2.2043299675e+00
    9.5197601318e+01   -2.2121999264e+00
    9.5297447205e+01   -2.2201800346e+00
    9.5397842407e+01   -2.2282099724e+00
    9.5498519897e+01   -2.2362799644e+00
    9.5598686218e+01   -2.2443299294e+00
    9.5698699951e+01   -2.2523701191e+00
    9.5797882080e+01   -2.2603700161e+00
    9.5897994995e+01   -2.2684500217e+00
    9.5998298645e+01   -2.2765600681e+00
    9.6099105835e+01   -2.2847299576e+00
    9.6198791504e+01   -2.2928299904e+00
    9.6297157288e+01   -2.3008499146e+00
    9.6397583008e+01   -2.3090500832e+00
    9.6498054504e+01   -2.3172800541e+00
    9.6598564148e+01   -2.3255400658e+00
    9.6697082520e+01   -2.3336598873e+00
    9.6797630310e+01   -2.3419699669e+00
    9.6898208618e+01   -2.3503201008e+00
    9.6997657776e+01   -2.3585999012e+00
    9.7097152710e+01   -2.3669099808e+00
    9.7198387146e+01   -2.3753900528e+00
    9.7297431946e+01   -2.3837299347e+00
    9.7398178101e+01   -2.3922400475e+00
    9.7499053955e+01   -2.4007899761e+00
    9.7597404480e+01   -2.4091699123e+00
    9.7698837280e+01   -2.4178299904e+00
    9.7797302246e+01   -2.4262800217e+00
    9.7897918701e+01   -2.4349400997e+00
    9.7998336792e+01   -2.4436099529e+00
    9.8097831726e+01   -2.4522199631e+00
    9.8198570251e+01   -2.4609699249e+00
    9.8297325134e+01   -2.4695599079e+00
    9.8398536682e+01   -2.4783799648e+00
    9.8499061584e+01   -2.4871599674e+00
    9.8598472595e+01   -2.4958600998e+00
    9.8698883057e+01   -2.5046598911e+00
    9.8797882080e+01   -2.5133500099e+00
    9.8898460388e+01   -2.5221900940e+00
    9.8997726440e+01   -2.5309200287e+00
    9.9098762512e+01   -2.5398299694e+00
    9.9197280884e+01   -2.5485200882e+00
    9.9297790527e+01   -2.5574100018e+00
    9.9397377014e+01   -2.5662200451e+00
    9.9498268127e+01   -2.5751600266e+00
    9.9597183228e+01   -2.5839500427e+00
    9.9697731018e+01   -2.5929000378e+00
    9.9797698975e+01   -2.6018099785e+00
    9.9898788452e+01   -2.6108500957e+00
    9.9997863770e+01   -2.6197199821e+00
    1.0009793854e+02   -2.6286900043e+00
    1.0019891357e+02   -2.6377799511e+00
    1.0029840088e+02   -2.6467499733e+00
    1.0039762878e+02   -2.6557300091e+00
    1.0049706268e+02   -2.6647500992e+00
    1.0059812927e+02   -2.6739599705e+00
    1.0069702911e+02   -2.6830101013e+00
    1.0079696655e+02   -2.6921999454e+00
    1.0089778900e+02   -2.7015099525e+00
    1.0099755859e+02   -2.7107601166e+00
    1.0109745789e+02   -2.7200601101e+00
    1.0119873047e+02   -2.7295200825e+00
    1.0129843140e+02   -2.7388799191e+00
    1.0139746857e+02   -2.7481999397e+00
    1.0149851227e+02   -2.7577400208e+00
    1.0159795380e+02   -2.7671599388e+00
    1.0169882965e+02   -2.7767400742e+00
    1.0179828644e+02   -2.7862100601e+00
    1.0189882660e+02   -2.7958099842e+00
    1.0199703217e+02   -2.8052000999e+00
    1.0209732056e+02   -2.8147900105e+00
    1.0219748688e+02   -2.8243899345e+00
    1.0229852295e+02   -2.8340799809e+00
    1.0239785767e+02   -2.8436200619e+00
    1.0249742126e+02   -2.8531899452e+00
    1.0259876251e+02   -2.8629500866e+00
    1.0269750214e+02   -2.8724699020e+00
    1.0279778290e+02   -2.8821499348e+00
    1.0289897156e+02   -2.8919401169e+00
    1.0299813080e+02   -2.9015400410e+00
    1.0309726715e+02   -2.9111499786e+00
    1.0319838715e+02   -2.9209799767e+00
    1.0329744720e+02   -2.9306299686e+00
    1.0339803314e+02   -2.9404699802e+00
    1.0349788666e+02   -2.9502599239e+00
    1.0359757996e+02   -2.9600899220e+00
    1.0369864655e+02   -2.9700999260e+00
    1.0379770660e+02   -2.9799599648e+00
    1.0389817047e+02   -2.9900100231e+00
    1.0399803925e+02   -3.0000400543e+00
    1.0409745789e+02   -3.0100800991e+00
    1.0419802094e+02   -3.0202898979e+00
    1.0429865265e+02   -3.0305399895e+00
    1.0439865112e+02   -3.0407800674e+00
    1.0449745941e+02   -3.0509500504e+00
    1.0459824371e+02   -3.0613501072e+00
    1.0469860840e+02   -3.0717499256e+00
    1.0479772186e+02   -3.0820600986e+00
    1.0489810944e+02   -3.0925199986e+00
    1.0499841309e+02   -3.1030199528e+00
    1.0509858704e+02   -3.1135299206e+00
    1.0519731903e+02   -3.1239199638e+00
    1.0529698944e+02   -3.1344299316e+00
    1.0539730835e+02   -3.1450300217e+00
    1.0549777222e+02   -3.1556699276e+00
    1.0559786224e+02   -3.1662900448e+00
    1.0569785309e+02   -3.1769199371e+00
    1.0579740906e+02   -3.1875300407e+00
    1.0589817047e+02   -3.1982800961e+00
    1.0599842072e+02   -3.2090001106e+00
    1.0609754181e+02   -3.2196199894e+00
    1.0619882202e+02   -3.2305099964e+00
    1.0629714966e+02   -3.2411000729e+00
    1.0639755249e+02   -3.2519500256e+00
    1.0649800873e+02   -3.2628300190e+00
    1.0659851074e+02   -3.2737500668e+00
    1.0669702911e+02   -3.2844998837e+00
    1.0679757690e+02   -3.2955000401e+00
    1.0689733124e+02   -3.3064498901e+00
    1.0699730682e+02   -3.3174700737e+00
    1.0709716034e+02   -3.3285000324e+00
    1.0719835663e+02   -3.3397300243e+00
    1.0729762268e+02   -3.3507900238e+00
    1.0739839935e+02   -3.3620600700e+00
    1.0749803162e+02   -3.3732500076e+00
    1.0759813690e+02   -3.3845400810e+00
    1.0769702911e+02   -3.3957400322e+00
    1.0779769135e+02   -3.4071800709e+00
    1.0789836121e+02   -3.4186699390e+00
    1.0799880219e+02   -3.4301700592e+00
    1.0809809113e+02   -3.4415700436e+00
    1.0819786072e+02   -3.4530599117e+00
    1.0829866791e+02   -3.4646899700e+00
    1.0839803314e+02   -3.4761900902e+00
    1.0849858093e+02   -3.4878499508e+00
    1.0859761047e+02   -3.4993600845e+00
    1.0869766235e+02   -3.5110099316e+00
    1.0879873657e+02   -3.5227999687e+00
    1.0889721680e+02   -3.5343000889e+00
    1.0899880219e+02   -3.5461900234e+00
    1.0909736633e+02   -3.5577499866e+00
    1.0919795990e+02   -3.5695600510e+00
    1.0929850006e+02   -3.5813899040e+00
    1.0939861298e+02   -3.5931999683e+00
    1.0949755859e+02   -3.6048901081e+00
    1.0959857178e+02   -3.6168498993e+00
    1.0969856262e+02   -3.6287300587e+00
    1.0979805756e+02   -3.6405699253e+00
    1.0989807892e+02   -3.6525099277e+00
    1.0999726105e+02   -3.6643700600e+00
    1.1009728241e+02   -3.6763699055e+00
    1.1019808197e+02   -3.6884999275e+00
    1.1029727173e+02   -3.7004699707e+00
    1.1039814758e+02   -3.7126801014e+00
    1.1049738312e+02   -3.7247400284e+00
    1.1059838867e+02   -3.7370700836e+00
    1.1069702911e+02   -3.7491700649e+00
    1.1079875183e+02   -3.7617099285e+00
    1.1089732361e+02   -3.7739200592e+00
    1.1099829865e+02   -3.7864799500e+00
    1.1109825134e+02   -3.7989599705e+00
    1.1119698334e+02   -3.8113501072e+00
    1.1129715729e+02   -3.8239600658e+00
    1.1139816284e+02   -3.8367300034e+00
    1.1149851227e+02   -3.8494501114e+00
    1.1159812164e+02   -3.8621199131e+00
    1.1169847870e+02   -3.8749198914e+00
    1.1179792023e+02   -3.8876399994e+00
    1.1189813232e+02   -3.9004800320e+00
    1.1199812317e+02   -3.9133200645e+00
    1.1209838104e+02   -3.9262199402e+00
    1.1219821167e+02   -3.9390699863e+00
    1.1229782867e+02   -3.9519100189e+00
    1.1239859009e+02   -3.9649200439e+00
    1.1249768066e+02   -3.9777300358e+00
    1.1259861755e+02   -3.9907999039e+00
    1.1269741821e+02   -4.0036201477e+00
    1.1279798889e+02   -4.0166797638e+00
    1.1289723206e+02   -4.0296001434e+00
    1.1299848938e+02   -4.0427899361e+00
    1.1309768677e+02   -4.0557498932e+00
    1.1319683838e+02   -4.0687298775e+00
    1.1329797363e+02   -4.0820097923e+00
    1.1339833832e+02   -4.0952401161e+00
    1.1349767303e+02   -4.1083898544e+00
    1.1359710693e+02   -4.1216101646e+00
    1.1369822693e+02   -4.1351199150e+00
    1.1379731750e+02   -4.1484298706e+00
    1.1389781952e+02   -4.1620101929e+00
    1.1399732208e+02   -4.1755199432e+00
    1.1409726715e+02   -4.1891598701e+00
    1.1419766235e+02   -4.2029299736e+00
    1.1429837036e+02   -4.2168197632e+00
    1.1439779663e+02   -4.2305998802e+00
    1.1449864197e+02   -4.2446498871e+00
    1.1459739685e+02   -4.2584600449e+00
    1.1469763184e+02   -4.2725501060e+00
    1.1479746246e+02   -4.2866301537e+00
    1.1489782715e+02   -4.3008298874e+00
    1.1499810028e+02   -4.3150801659e+00
    1.1509819794e+02   -4.3293399811e+00
    1.1519879150e+02   -4.3437299728e+00
    1.1529727936e+02   -4.3578500748e+00
    1.1539756775e+02   -4.3722701073e+00
    1.1549771118e+02   -4.3867001534e+00
    1.1559777832e+02   -4.4011502266e+00
    1.1569779968e+02   -4.4156298637e+00
    1.1579750061e+02   -4.4300899506e+00
    1.1589701080e+02   -4.4445600510e+00
    1.1599759674e+02   -4.4592199326e+00
    1.1609822083e+02   -4.4739098549e+00
    1.1619699860e+02   -4.4883799553e+00
    1.1629736328e+02   -4.5031099319e+00
    1.1639779663e+02   -4.5178999901e+00
    1.1649830627e+02   -4.5327501297e+00
    1.1659686279e+02   -4.5473499298e+00
    1.1669745636e+02   -4.5623102188e+00
    1.1679810333e+02   -4.5773301125e+00
    1.1689797211e+02   -4.5922799110e+00
    1.1699820709e+02   -4.6073398590e+00
    1.1709780121e+02   -4.6223602295e+00
    1.1719853210e+02   -4.6376099586e+00
    1.1729685974e+02   -4.6525502205e+00
    1.1739775848e+02   -4.6679501534e+00
    1.1749775696e+02   -4.6832699776e+00
    1.1759709930e+02   -4.6985602379e+00
    1.1769738007e+02   -4.7140598297e+00
    1.1779820251e+02   -4.7297000885e+00
    1.1789688110e+02   -4.7450699806e+00
    1.1799742889e+02   -4.7607998848e+00
    1.1809696198e+02   -4.7764101028e+00
    1.1819686127e+02   -4.7921299934e+00
    1.1829779816e+02   -4.8080501556e+00
    1.1839765167e+02   -4.8238401413e+00
    1.1849830627e+02   -4.8398098946e+00
    1.1859697723e+02   -4.8554902077e+00
    1.1869850159e+02   -4.8716602325e+00
    1.1879739380e+02   -4.8874402046e+00
    1.1889813232e+02   -4.9035501480e+00
    1.1899855804e+02   -4.9196500778e+00
    1.1909863281e+02   -4.9357199669e+00
    1.1919841003e+02   -4.9517798424e+00
    1.1929839325e+02   -4.9679098129e+00
    1.1939674377e+02   -4.9838199615e+00
    1.1949784088e+02   -5.0002098083e+00
    1.1959696960e+02   -5.0163202286e+00
    1.1969860840e+02   -5.0328898430e+00
    1.1979730988e+02   -5.0490298271e+00
    1.1989704132e+02   -5.0653901100e+00
    1.1999839783e+02   -5.0820598602e+00
    1.2009832764e+02   -5.0985498428e+00
    1.2019702911e+02   -5.1149001122e+00
    1.2029798126e+02   -5.1316800117e+00
    1.2039840698e+02   -5.1484398842e+00
    1.2049746704e+02   -5.1650400162e+00
    1.2059839630e+02   -5.1820302010e+00
    1.2069819641e+02   -5.1989102364e+00
    1.2079762268e+02   -5.2158198357e+00
    1.2089765930e+02   -5.2329101562e+00
    1.2099774170e+02   -5.2500901222e+00
    1.2109789276e+02   -5.2673602104e+00
    1.2119673920e+02   -5.2844800949e+00
    1.2129785156e+02   -5.3020601273e+00
    1.2139811707e+02   -5.3195600510e+00
    1.2149752808e+02   -5.3369698524e+00
    1.2159797668e+02   -5.3546199799e+00
    1.2169786072e+02   -5.3722200394e+00
    1.2179691315e+02   -5.3897199631e+00
    1.2189707184e+02   -5.4074602127e+00
    1.2199713898e+02   -5.4252099991e+00
    1.2209689331e+02   -5.4429402351e+00
    1.2219714355e+02   -5.4607801437e+00
    1.2229724121e+02   -5.4786200523e+00
    1.2239733887e+02   -5.4964799881e+00
    1.2249781036e+02   -5.5144400597e+00
    1.2259813690e+02   -5.5324001312e+00
    1.2269654846e+02   -5.5500497818e+00
    1.2279759979e+02   -5.5682001114e+00
    1.2289697266e+02   -5.5860700607e+00
    1.2299835205e+02   -5.6043500900e+00
    1.2309765625e+02   -5.6222801208e+00
    1.2319690704e+02   -5.6402602196e+00
    1.2329840088e+02   -5.6586899757e+00
    1.2339856720e+02   -5.6769499779e+00
    1.2349729919e+02   -5.6950201988e+00
    1.2359677124e+02   -5.7133097649e+00
    1.2369796753e+02   -5.7320098877e+00
    1.2379714966e+02   -5.7504301071e+00
    1.2389746094e+02   -5.7691698074e+00
    1.2399844360e+02   -5.7881197929e+00
    1.2409735107e+02   -5.8067898750e+00
    1.2419724274e+02   -5.8257398605e+00
    1.2429802704e+02   -5.8449501991e+00
    1.2439720154e+02   -5.8639597893e+00
    1.2449810028e+02   -5.8833899498e+00
    1.2459691620e+02   -5.9025201797e+00
    1.2469676971e+02   -5.9219198227e+00
    1.2479756165e+02   -5.9415998459e+00
    1.2489794922e+02   -5.9612598419e+00
    1.2499817657e+02   -5.9809699059e+00
    1.2509825897e+02   -6.0007200241e+00
    1.2519703674e+02   -6.0202798843e+00
    1.2529727936e+02   -6.0401802063e+00
    1.2539758301e+02   -6.0601501465e+00
    1.2549745941e+02   -6.0800900459e+00
    1.2559719849e+02   -6.1000499725e+00
    1.2569714355e+02   -6.1201000214e+00
    1.2579704285e+02   -6.1401801109e+00
    1.2589768982e+02   -6.1604700089e+00
    1.2599817657e+02   -6.1807599068e+00
    1.2609848785e+02   -6.2010698318e+00
    1.2619735718e+02   -6.2211399078e+00
    1.2629781342e+02   -6.2415800095e+00
    1.2639836121e+02   -6.2621102333e+00
    1.2649697113e+02   -6.2822899818e+00
    1.2659767151e+02   -6.3029699326e+00
    1.2669843292e+02   -6.3237199783e+00
    1.2679721832e+02   -6.3441400528e+00
    1.2689694977e+02   -6.3648300171e+00
    1.2699684143e+02   -6.3856101036e+00
    1.2709783173e+02   -6.4067001343e+00
    1.2719792938e+02   -6.4276800156e+00
    1.2729827118e+02   -6.4487900734e+00
    1.2739736938e+02   -6.4697299004e+00
    1.2749735260e+02   -6.4909300804e+00
    1.2759771729e+02   -6.5123000145e+00
    1.2769700623e+02   -6.5335202217e+00
    1.2779711914e+02   -6.5549898148e+00
    1.2789821625e+02   -6.5767698288e+00
    1.2799664307e+02   -6.5980401039e+00
    1.2809844971e+02   -6.6201100349e+00
    1.2819712830e+02   -6.6415600777e+00
    1.2829666138e+02   -6.6632599831e+00
    1.2839736938e+02   -6.6852598190e+00
    1.2849801636e+02   -6.7073001862e+00
    1.2859829712e+02   -6.7293100357e+00
    1.2869683838e+02   -6.7509899139e+00
    1.2879690552e+02   -6.7730398178e+00
    1.2889787292e+02   -6.7953300476e+00
    1.2899674988e+02   -6.8172101974e+00
    1.2909796143e+02   -6.8396501541e+00
    1.2919752502e+02   -6.8617701530e+00
    1.2929760742e+02   -6.8840599060e+00
    1.2939810181e+02   -6.9064798355e+00
    1.2949838257e+02   -6.9289197922e+00
    1.2959773254e+02   -6.9512100220e+00
    1.2969723511e+02   -6.9735898972e+00
    1.2979699707e+02   -6.9960899353e+00
    1.2989854431e+02   -7.0190801620e+00
    1.2999810791e+02   -7.0416798592e+00
    1.3009831238e+02   -7.0645098686e+00
    1.3019868469e+02   -7.0874600410e+00
    1.3029705811e+02   -7.1100401878e+00
    1.3039677429e+02   -7.1330099106e+00
    1.3049731445e+02   -7.1562700272e+00
    1.3059762573e+02   -7.1795902252e+00
    1.3069827271e+02   -7.2031002045e+00
    1.3079708862e+02   -7.2262997627e+00
    1.3089677429e+02   -7.2498202324e+00
    1.3099824524e+02   -7.2738699913e+00
    1.3109829712e+02   -7.2976899147e+00
    1.3119869995e+02   -7.3216900826e+00
    1.3129757690e+02   -7.3454098701e+00
    1.3139700317e+02   -7.3693699837e+00
    1.3149786377e+02   -7.3937401772e+00
    1.3159840393e+02   -7.4181199074e+00
    1.3169784546e+02   -7.4422998428e+00
    1.3179847717e+02   -7.4668197632e+00
    1.3189700317e+02   -7.4908900261e+00
    1.3199856567e+02   -7.5157499313e+00
    1.3209805298e+02   -7.5401301384e+00
    1.3219746399e+02   -7.5645298958e+00
    1.3229762268e+02   -7.5891299248e+00
    1.3239694214e+02   -7.6135601997e+00
    1.3249856567e+02   -7.6385998726e+00
    1.3259834290e+02   -7.6632099152e+00
    1.3269854736e+02   -7.6879601479e+00
    1.3279725647e+02   -7.7123699188e+00
    1.3289877319e+02   -7.7375202179e+00
    1.3299826050e+02   -7.7621998787e+00
    1.3309779358e+02   -7.7869300842e+00
    1.3319717407e+02   -7.8116898537e+00
    1.3329866028e+02   -7.8370299339e+00
    1.3339825439e+02   -7.8619799614e+00
    1.3349783325e+02   -7.8870100975e+00
    1.3359718323e+02   -7.9120798111e+00
    1.3369851685e+02   -7.9377698898e+00
    1.3379782104e+02   -7.9630699158e+00
    1.3389804077e+02   -7.9887199402e+00
    1.3399824524e+02   -8.0144901276e+00
    1.3409881592e+02   -8.0404796600e+00
    1.3419746399e+02   -8.0660896301e+00
    1.3429811096e+02   -8.0923404694e+00
    1.3439793396e+02   -8.1185102463e+00
    1.3449896240e+02   -8.1451101303e+00
    1.3459788513e+02   -8.1712703705e+00
    1.3469799805e+02   -8.1978502274e+00
    1.3479742432e+02   -8.2243499756e+00
    1.3489770508e+02   -8.2511701584e+00
    1.3499740601e+02   -8.2779302597e+00
    1.3509823608e+02   -8.3050899506e+00
    1.3519775391e+02   -8.3319702148e+00
    1.3529856873e+02   -8.3592700958e+00
    1.3539895630e+02   -8.3865299225e+00
    1.3549867249e+02   -8.4136695862e+00
    1.3559777832e+02   -8.4406995773e+00
    1.3569897461e+02   -8.4683704376e+00
    1.3579826355e+02   -8.4955701828e+00
    1.3589898682e+02   -8.5232200623e+00
    1.3599830627e+02   -8.5505399704e+00
    1.3609875488e+02   -8.5782299042e+00
    1.3619726562e+02   -8.6054496765e+00
    1.3629786682e+02   -8.6333198547e+00
    1.3639859009e+02   -8.6612901688e+00
    1.3649739075e+02   -8.6887998581e+00
    1.3659829712e+02   -8.7169704437e+00
    1.3669726562e+02   -8.7446804047e+00
    1.3679832458e+02   -8.7730703354e+00
    1.3689845276e+02   -8.8012800217e+00
    1.3699890137e+02   -8.8296804428e+00
    1.3709817505e+02   -8.8578195572e+00
    1.3719775391e+02   -8.8861598969e+00
    1.3729780579e+02   -8.9147100449e+00
    1.3739720154e+02   -8.9431896210e+00
    1.3749880981e+02   -8.9723901749e+00
    1.3759823608e+02   -9.0010795593e+00
    1.3769827271e+02   -9.0300302505e+00
    1.3779776001e+02   -9.0589303970e+00
    1.3789799500e+02   -9.0881500244e+00
    1.3799838257e+02   -9.1174898148e+00
    1.3809913635e+02   -9.1470203400e+00
    1.3819815063e+02   -9.1761198044e+00
    1.3829905701e+02   -9.2058401108e+00
    1.3839787292e+02   -9.2349996567e+00
    1.3849790955e+02   -9.2645702362e+00
    1.3859826660e+02   -9.2942895889e+00
    1.3869767761e+02   -9.3237695694e+00
    1.3879809570e+02   -9.3535995483e+00
    1.3889802551e+02   -9.3833198547e+00
    1.3899900818e+02   -9.4134101868e+00
    1.3909851074e+02   -9.4430999756e+00
    1.3919836426e+02   -9.4729499817e+00
    1.3929882812e+02   -9.5030202866e+00
    1.3939828491e+02   -9.5328502655e+00
    1.3949819946e+02   -9.5628795624e+00
    1.3959788513e+02   -9.5929002762e+00
    1.3969866943e+02   -9.6233301163e+00
    1.3979733276e+02   -9.6531896591e+00
    1.3989802551e+02   -9.6837596893e+00
    1.3999740601e+02   -9.7140102386e+00
    1.4009910583e+02   -9.7450704575e+00
    1.4019897461e+02   -9.7756795883e+00
    1.4029873657e+02   -9.8063497543e+00
    1.4039758301e+02   -9.8368501663e+00
    1.4049749756e+02   -9.8678102493e+00
    1.4059872437e+02   -9.8993101120e+00
    1.4069830322e+02   -9.9304504395e+00
    1.4079841614e+02   -9.9618902206e+00
    1.4089767456e+02   -9.9932203293e+00
    1.4099851990e+02   -1.0025199890e+01
    1.4109838867e+02   -1.0057000160e+01
    1.4119772339e+02   -1.0088700294e+01
    1.4129794312e+02   -1.0120800018e+01
    1.4139913940e+02   -1.0153400421e+01
    1.4149925232e+02   -1.0185700417e+01
    1.4159744263e+02   -1.0217499733e+01
    1.4169802856e+02   -1.0250200272e+01
    1.4179830933e+02   -1.0282799721e+01
    1.4189877319e+02   -1.0315500259e+01
    1.4199754333e+02   -1.0347800255e+01
    1.4209864807e+02   -1.0380800247e+01
    1.4219908142e+02   -1.0413700104e+01
    1.4229934692e+02   -1.0446499825e+01
    1.4239775085e+02   -1.0478799820e+01
    1.4249884033e+02   -1.0512000084e+01
    1.4259808350e+02   -1.0544599533e+01
    1.4269949341e+02   -1.0577899933e+01
    1.4279884338e+02   -1.0610600471e+01
    1.4289840698e+02   -1.0643400192e+01
    1.4299783325e+02   -1.0676199913e+01
    1.4309913635e+02   -1.0709600449e+01
    1.4319842529e+02   -1.0742400169e+01
    1.4329766846e+02   -1.0775300026e+01
    1.4339892578e+02   -1.0808899879e+01
    1.4349810791e+02   -1.0842000008e+01
    1.4359936523e+02   -1.0875800133e+01
    1.4369865417e+02   -1.0909099579e+01
    1.4379809570e+02   -1.0942600250e+01
    1.4389790344e+02   -1.0976300240e+01
    1.4399928284e+02   -1.1010700226e+01
    1.4409748840e+02   -1.1044199944e+01
    1.4419802856e+02   -1.1078499794e+01
    1.4429890442e+02   -1.1113200188e+01
    1.4439767456e+02   -1.1147199631e+01
    1.4449885559e+02   -1.1182200432e+01
    1.4459794617e+02   -1.1216600418e+01
    1.4469787598e+02   -1.1251399994e+01
    1.4479914856e+02   -1.1286800385e+01
    1.4489918518e+02   -1.1321900368e+01
    1.4499822998e+02   -1.1356699944e+01
    1.4509933472e+02   -1.1392299652e+01
    1.4519871521e+02   -1.1427399635e+01
    1.4529774475e+02   -1.1462499619e+01
    1.4539828491e+02   -1.1498100281e+01
    1.4549827576e+02   -1.1533699989e+01
    1.4559878540e+02   -1.1569499969e+01
    1.4569914246e+02   -1.1605199814e+01
    1.4579786682e+02   -1.1640500069e+01
    1.4589845276e+02   -1.1676500320e+01
    1.4599934387e+02   -1.1712599754e+01
    1.4609831238e+02   -1.1748100281e+01
    1.4619906616e+02   -1.1784399986e+01
    1.4629789734e+02   -1.1819999695e+01
    1.4639884949e+02   -1.1856399536e+01
    1.4649787903e+02   -1.1892299652e+01
    1.4659904480e+02   -1.1928999901e+01
    1.4669828796e+02   -1.1965100288e+01
    1.4679965210e+02   -1.2001999855e+01
    1.4689949036e+02   -1.2038499832e+01
    1.4699864197e+02   -1.2074899673e+01
    1.4709968567e+02   -1.2112000465e+01
    1.4719834900e+02   -1.2148400307e+01
    1.4729927063e+02   -1.2185700417e+01
    1.4739900208e+02   -1.2222700119e+01
    1.4749801636e+02   -1.2259499550e+01
    1.4759812927e+02   -1.2296899796e+01
    1.4769828796e+02   -1.2334400177e+01
    1.4779884338e+02   -1.2372099876e+01
    1.4789961243e+02   -1.2410099983e+01
    1.4799838257e+02   -1.2447400093e+01
    1.4809864807e+02   -1.2485300064e+01
    1.4819813538e+02   -1.2522999763e+01
    1.4829945374e+02   -1.2561499596e+01
    1.4839968872e+02   -1.2599599838e+01
    1.4849822998e+02   -1.2637100220e+01
    1.4859844971e+02   -1.2675299644e+01
    1.4869874573e+02   -1.2713600159e+01
    1.4879905701e+02   -1.2751899719e+01
    1.4889892578e+02   -1.2789999962e+01
    1.4899934387e+02   -1.2828399658e+01
    1.4909915161e+02   -1.2866600037e+01
    1.4919827271e+02   -1.2904600143e+01
    1.4929847717e+02   -1.2942999840e+01
    1.4939907837e+02   -1.2981599808e+01
    1.4949874878e+02   -1.3019900322e+01
    1.4959826660e+02   -1.3058099747e+01
    1.4969981384e+02   -1.3097299576e+01
    1.4979928589e+02   -1.3135700226e+01
    1.4989863586e+02   -1.3174099922e+01
    1.4999902344e+02   -1.3213000298e+01
    1.5009802246e+02   -1.3251500130e+01
    1.5019912720e+02   -1.3290900230e+01
    1.5029800415e+02   -1.3329600334e+01
    1.5039816284e+02   -1.3368900299e+01
    1.5049923706e+02   -1.3408699989e+01
    1.5059977722e+02   -1.3448399544e+01
    1.5069880676e+02   -1.3487700462e+01
    1.5079817200e+02   -1.3527299881e+01
    1.5089875793e+02   -1.3567500114e+01
    1.5099954224e+02   -1.3607899666e+01
    1.5109889221e+02   -1.3647999763e+01
    1.5119949341e+02   -1.3688699722e+01
    1.5129823303e+02   -1.3728699684e+01
    1.5139936829e+02   -1.3769900322e+01
    1.5149955750e+02   -1.3810799599e+01
    1.5159947205e+02   -1.3851599693e+01
    1.5169952393e+02   -1.3892600060e+01
    1.5179924011e+02   -1.3933600426e+01
    1.5189842224e+02   -1.3974399567e+01
    1.5199842834e+02   -1.4015600204e+01
    1.5209918213e+02   -1.4057200432e+01
    1.5219940186e+02   -1.4098500252e+01
    1.5229937744e+02   -1.4139800072e+01
    1.5239981079e+02   -1.4181300163e+01
    1.5249836731e+02   -1.4222000122e+01
    1.5259956360e+02   -1.4263799667e+01
    1.5269815063e+02   -1.4304599762e+01
    1.5279847717e+02   -1.4346099854e+01
    1.5290002441e+02   -1.4388199806e+01
    1.5299917603e+02   -1.4429200172e+01
    1.5310008240e+02   -1.4470999718e+01
    1.5319903564e+02   -1.4512100220e+01
    1.5329998779e+02   -1.4554100037e+01
    1.5339855957e+02   -1.4595100403e+01
    1.5349908447e+02   -1.4637000084e+01
    1.5359960938e+02   -1.4678999901e+01
    1.5369815063e+02   -1.4720299721e+01
    1.5379968262e+02   -1.4762999535e+01
    1.5389941406e+02   -1.4805000305e+01
    1.5399812317e+02   -1.4846699715e+01
    1.5409848022e+02   -1.4889300346e+01
    1.5419862366e+02   -1.4931900024e+01
    1.5429850769e+02   -1.4974599838e+01
    1.5439860535e+02   -1.5017399788e+01
    1.5449957275e+02   -1.5060700417e+01
    1.5459855652e+02   -1.5103300095e+01
    1.5469961548e+02   -1.5146900177e+01
    1.5480001831e+02   -1.5190400124e+01
    1.5489935303e+02   -1.5233400345e+01
    1.5499987793e+02   -1.5277099609e+01
    1.5509832764e+02   -1.5319899559e+01
    1.5519909668e+02   -1.5363800049e+01
    1.5529881287e+02   -1.5407299995e+01
    1.5539961243e+02   -1.5451299667e+01
    1.5549832153e+02   -1.5494400024e+01
    1.5559851074e+02   -1.5538299561e+01
    1.5569989014e+02   -1.5582699776e+01
    1.5580007935e+02   -1.5626600266e+01
    1.5589828491e+02   -1.5669699669e+01
    1.5599853516e+02   -1.5713700294e+01
    1.5609950256e+02   -1.5758099556e+01
    1.5619851685e+02   -1.5801600456e+01
    1.5629965210e+02   -1.5846199989e+01
    1.5639872742e+02   -1.5889900208e+01
    1.5649971008e+02   -1.5934599876e+01
    1.5660032654e+02   -1.5979100227e+01
    1.5669871521e+02   -1.6022800446e+01
    1.5679908752e+02   -1.6067399979e+01
    1.5689991760e+02   -1.6112300873e+01
    1.5699917603e+02   -1.6156700134e+01
    1.5709951782e+02   -1.6201599121e+01
    1.5719964600e+02   -1.6246599197e+01
    1.5729968262e+02   -1.6291700363e+01
    1.5739991760e+02   -1.6336900711e+01
    1.5749865723e+02   -1.6381599426e+01
    1.5759982300e+02   -1.6427499771e+01
    1.5769885254e+02   -1.6472600937e+01
    1.5779928589e+02   -1.6518400192e+01
    1.5789837646e+02   -1.6563800812e+01
    1.5799952698e+02   -1.6610099792e+01
    1.5810038757e+02   -1.6656499863e+01
    1.5819851685e+02   -1.6701599121e+01
    1.5829962158e+02   -1.6748199463e+01
    1.5839862061e+02   -1.6793899536e+01
    1.5849969482e+02   -1.6840499878e+01
    1.5859870911e+02   -1.6886299133e+01
    1.5869990540e+02   -1.6933000565e+01
    1.5879965210e+02   -1.6979099274e+01
    1.5889869690e+02   -1.7024799347e+01
    1.5899864197e+02   -1.7070999146e+01
    1.5910011292e+02   -1.7117900848e+01
    1.5919895935e+02   -1.7163600922e+01
    1.5929930115e+02   -1.7209899902e+01
    1.5940011597e+02   -1.7256500244e+01
    1.5950015259e+02   -1.7302799225e+01
    1.5959884644e+02   -1.7348400116e+01
    1.5970004272e+02   -1.7395299911e+01
    1.5979873657e+02   -1.7440999985e+01
    1.5989913940e+02   -1.7487600327e+01
    1.5999964905e+02   -1.7534299850e+01
    1.6010005188e+02   -1.7580999374e+01
    1.6020043945e+02   -1.7627799988e+01
    1.6029864502e+02   -1.7673700333e+01
    1.6040005493e+02   -1.7721300125e+01
    1.6050054932e+02   -1.7768499374e+01
    1.6060038757e+02   -1.7815500259e+01
    1.6069873047e+02   -1.7861999512e+01
    1.6079986572e+02   -1.7909999847e+01
    1.6090049744e+02   -1.7957899094e+01
    1.6100050354e+02   -1.8005699158e+01
    1.6110000610e+02   -1.8053300858e+01
    1.6120021057e+02   -1.8101400375e+01
    1.6130049133e+02   -1.8149799347e+01
    1.6139935303e+02   -1.8197500229e+01
    1.6150039673e+02   -1.8246400833e+01
    1.6160058594e+02   -1.8295000076e+01
    1.6170051575e+02   -1.8343500137e+01
    1.6180050659e+02   -1.8392099380e+01
    1.6189976501e+02   -1.8440500259e+01
    1.6199972534e+02   -1.8489200592e+01
    1.6210067749e+02   -1.8538400650e+01
    1.6219894409e+02   -1.8586299896e+01
    1.6229876709e+02   -1.8635000229e+01
    1.6239877319e+02   -1.8683799744e+01
    1.6249986267e+02   -1.8733100891e+01
    1.6259889221e+02   -1.8781400681e+01
    1.6269929504e+02   -1.8830299377e+01
    1.6279971313e+02   -1.8879299164e+01
    1.6290072632e+02   -1.8928499222e+01
    1.6299937439e+02   -1.8976600647e+01
    1.6309986877e+02   -1.9025600433e+01
    1.6320074463e+02   -1.9074800491e+01
    1.6329978943e+02   -1.9123199463e+01
    1.6340007019e+02   -1.9172199249e+01
    1.6350033569e+02   -1.9221300125e+01
    1.6360040283e+02   -1.9270299911e+01
    1.6370051575e+02   -1.9319499969e+01
    1.6379953003e+02   -1.9368200302e+01
    1.6389888000e+02   -1.9417200089e+01
    1.6399888611e+02   -1.9466699600e+01
    1.6409979248e+02   -1.9516700745e+01
    1.6419952393e+02   -1.9566299438e+01
    1.6430067444e+02   -1.9616699219e+01
    1.6439955139e+02   -1.9666000366e+01
    1.6450000000e+02   -1.9716299057e+01
    1.6460055542e+02   -1.9766700745e+01
    1.6469935608e+02   -1.9816299438e+01
    1.6479911804e+02   -1.9866399765e+01
    1.6489938354e+02   -1.9916900635e+01
    1.6499929810e+02   -1.9967300415e+01
    1.6509931946e+02   -2.0017700195e+01
    1.6519914246e+02   -2.0068099976e+01
    1.6530065918e+02   -2.0119400024e+01
    1.6539883423e+02   -2.0168899536e+01
    1.6550044250e+02   -2.0220300674e+01
    1.6560041809e+02   -2.0270799637e+01
    1.6569892883e+02   -2.0320499420e+01
    1.6580032349e+02   -2.0371700287e+01
    1.6590005493e+02   -2.0422000885e+01
    1.6600076294e+02   -2.0472900391e+01
    1.6609950256e+02   -2.0522800446e+01
    1.6619975281e+02   -2.0573400497e+01
    1.6629977417e+02   -2.0623899460e+01
    1.6639973450e+02   -2.0674499512e+01
    1.6650027466e+02   -2.0725400925e+01
    1.6660049438e+02   -2.0776199341e+01
    1.6669999695e+02   -2.0826700211e+01
    1.6680090332e+02   -2.0878000259e+01
    1.6690025330e+02   -2.0928600311e+01
    1.6699993896e+02   -2.0979499817e+01
    1.6709907532e+02   -2.1030199051e+01
    1.6719958496e+02   -2.1081699371e+01
    1.6730006409e+02   -2.1133300781e+01
    1.6739907837e+02   -2.1184299469e+01
    1.6750064087e+02   -2.1236799240e+01
    1.6759901428e+02   -2.1287700653e+01
    1.6769956970e+02   -2.1339799881e+01
    1.6780009460e+02   -2.1392099380e+01
    1.6790036011e+02   -2.1444299698e+01
    1.6800000000e+02   -2.1496400833e+01
    1.6809953308e+02   -2.1548500061e+01
    1.6820097351e+02   -2.1601600647e+01
    1.6829962158e+02   -2.1653299332e+01
    1.6840017700e+02   -2.1706100464e+01
    1.6850001526e+02   -2.1758600235e+01
    1.6859994507e+02   -2.1811000824e+01
    1.6869981384e+02   -2.1863500595e+01
    1.6880070496e+02   -2.1916500092e+01
    1.6890092468e+02   -2.1969100952e+01
    1.6899977112e+02   -2.2020999908e+01
    1.6910003662e+02   -2.2073499680e+01
    1.6919953918e+02   -2.2125699997e+01
    1.6930070496e+02   -2.2178699493e+01
    1.6939923096e+02   -2.2230199814e+01
    1.6950044250e+02   -2.2283199310e+01
    1.6960055542e+02   -2.2335599899e+01
    1.6969992065e+02   -2.2387599945e+01
    1.6980070496e+02   -2.2440299988e+01
    1.6990080261e+02   -2.2492700577e+01
    1.7000082397e+02   -2.2545099258e+01
    1.7009919739e+02   -2.2596700668e+01
    1.7020117188e+02   -2.2650199890e+01
    1.7030105591e+02   -2.2702699661e+01
    1.7040014648e+02   -2.2754899979e+01
    1.7050030518e+02   -2.2807699203e+01
    1.7060017395e+02   -2.2860599518e+01
    1.7070057678e+02   -2.2913799286e+01
    1.7079954529e+02   -2.2966400146e+01
    1.7089970398e+02   -2.3019699097e+01
    1.7099923706e+02   -2.3072799683e+01
    1.7110093689e+02   -2.3127300262e+01
    1.7120042419e+02   -2.3180599213e+01
    1.7130087280e+02   -2.3234600067e+01
    1.7139965820e+02   -2.3287799835e+01
    1.7150102234e+02   -2.3342399597e+01
    1.7160040283e+02   -2.3395999908e+01
    1.7170069885e+02   -2.3450199127e+01
    1.7180026245e+02   -2.3503999710e+01
    1.7189997864e+02   -2.3557899475e+01
    1.7200079346e+02   -2.3612400055e+01
    1.7209930420e+02   -2.3665700912e+01
    1.7220013428e+02   -2.3720199585e+01
    1.7230029297e+02   -2.3774299622e+01
    1.7240025330e+02   -2.3828199387e+01
    1.7250100708e+02   -2.3882600784e+01
    1.7259997559e+02   -2.3935899734e+01
    1.7270094299e+02   -2.3990299225e+01
    1.7280096436e+02   -2.4044099808e+01
    1.7290022278e+02   -2.4097499847e+01
    1.7300068665e+02   -2.4151500702e+01
    1.7310098267e+02   -2.4205299377e+01
    1.7319955444e+02   -2.4258300781e+01
    1.7330038452e+02   -2.4312500000e+01
    1.7340055847e+02   -2.4366300583e+01
    1.7350088501e+02   -2.4420299530e+01
    1.7360066223e+02   -2.4474100113e+01
    1.7370028687e+02   -2.4527900696e+01
    1.7380134583e+02   -2.4582500458e+01
    1.7390048218e+02   -2.4636199951e+01
    1.7400009155e+02   -2.4690299988e+01
    1.7410087585e+02   -2.4745100021e+01
    1.7420060730e+02   -2.4799499512e+01
    1.7430046082e+02   -2.4854000092e+01
    1.7440014648e+02   -2.4908599854e+01
    1.7450117493e+02   -2.4964000702e+01
    1.7460038757e+02   -2.5018400192e+01
    1.7469995117e+02   -2.5073200226e+01
    1.7480090332e+02   -2.5128700256e+01
    1.7490037537e+02   -2.5183500290e+01
    1.7499964905e+02   -2.5238199234e+01
    1.7510093689e+02   -2.5294099808e+01
    1.7519960022e+02   -2.5348400116e+01
    1.7530044556e+02   -2.5403999329e+01
    1.7540022278e+02   -2.5458999634e+01
    1.7550035095e+02   -2.5514099121e+01
    1.7559951782e+02   -2.5568700790e+01
    1.7570042419e+02   -2.5624099731e+01
    1.7580122375e+02   -2.5679500580e+01
    1.7590003967e+02   -2.5733699799e+01
    1.7600042725e+02   -2.5788700104e+01
    1.7610087585e+02   -2.5843700409e+01
    1.7620011902e+02   -2.5898000717e+01
    1.7630099487e+02   -2.5953100204e+01
    1.7639962769e+02   -2.6007099152e+01
    1.7650074768e+02   -2.6062400818e+01
    1.7660006714e+02   -2.6116699219e+01
    1.7670005798e+02   -2.6171499252e+01
    1.7679992676e+02   -2.6226200104e+01
    1.7690153503e+02   -2.6281999588e+01
    1.7700000000e+02   -2.6336099625e+01
    1.7709985352e+02   -2.6391000748e+01
    1.7720126343e+02   -2.6446899414e+01
    1.7730064392e+02   -2.6501800537e+01
    1.7739970398e+02   -2.6556600571e+01
    1.7749995422e+02   -2.6612199783e+01
    1.7760070801e+02   -2.6668199539e+01
    1.7770108032e+02   -2.6724100113e+01
    1.7780140686e+02   -2.6780099869e+01
    1.7790017700e+02   -2.6835300446e+01
    1.7800126648e+02   -2.6891899109e+01
    1.7810040283e+02   -2.6947599411e+01
    1.7820141602e+02   -2.7004299164e+01
    1.7830151367e+02   -2.7060600281e+01
    1.7840008545e+02   -2.7116100311e+01
    1.7850097656e+02   -2.7172899246e+01
    1.7859967041e+02   -2.7228399277e+01
    1.7870013428e+02   -2.7284999847e+01
    1.7879992676e+02   -2.7341100693e+01
    1.7890002441e+02   -2.7397399902e+01
    1.7899975586e+02   -2.7453399658e+01
    1.7910157776e+02   -2.7510599136e+01
    1.7920153809e+02   -2.7566600800e+01
    1.7930085754e+02   -2.7622200012e+01
    1.7940025330e+02   -2.7677799225e+01
    1.7950141907e+02   -2.7734399796e+01
    1.7960075378e+02   -2.7789800644e+01
    1.7970101929e+02   -2.7845800400e+01
    1.7980076599e+02   -2.7901500702e+01
    1.7990144348e+02   -2.7957599640e+01
    1.8000010681e+02   -2.8012699127e+01
    1.8010023499e+02   -2.8068500519e+01
    1.8020048523e+02   -2.8124500275e+01
    1.8030079651e+02   -2.8180500031e+01
    1.8040000916e+02   -2.8236000061e+01
    1.8050035095e+02   -2.8292200089e+01
    1.8060050964e+02   -2.8348400116e+01
    1.8070158386e+02   -2.8405199051e+01
    1.8080038452e+02   -2.8460800171e+01
    1.8090147400e+02   -2.8517900467e+01
    1.8100109863e+02   -2.8574100494e+01
    1.8110032654e+02   -2.8630300522e+01
    1.8120085144e+02   -2.8687200546e+01
    1.8130174255e+02   -2.8744499207e+01
    1.8139990234e+02   -2.8800199509e+01
    1.8150128174e+02   -2.8857799530e+01
    1.8160119629e+02   -2.8914600372e+01
    1.8170132446e+02   -2.8971500397e+01
    1.8179997253e+02   -2.9027599335e+01
    1.8190008545e+02   -2.9084400177e+01
    1.8200166321e+02   -2.9142099380e+01
    1.8210015869e+02   -2.9197900772e+01
    1.8220033264e+02   -2.9254600525e+01
    1.8230024719e+02   -2.9311100006e+01
    1.8240191650e+02   -2.9368499756e+01
    1.8250073242e+02   -2.9424200058e+01
    1.8260168457e+02   -2.9481000900e+01
    1.8270094299e+02   -2.9536699295e+01
    1.8280117798e+02   -2.9592899323e+01
    1.8290034485e+02   -2.9648500443e+01
    1.8300050354e+02   -2.9704500198e+01
    1.8310044861e+02   -2.9760299683e+01
    1.8320053101e+02   -2.9816200256e+01
    1.8330126953e+02   -2.9872400284e+01
    1.8340121460e+02   -2.9928199768e+01
    1.8350004578e+02   -2.9983400345e+01
    1.8360133362e+02   -3.0040000916e+01
    1.8370031738e+02   -3.0095399857e+01
    1.8380058289e+02   -3.0151599884e+01
    1.8390118408e+02   -3.0208099365e+01
    1.8400134277e+02   -3.0264499664e+01
    1.8410098267e+02   -3.0320600510e+01
    1.8420152283e+02   -3.0377399445e+01
    1.8430180359e+02   -3.0434200287e+01
    1.8440164185e+02   -3.0490800858e+01
    1.8450166321e+02   -3.0547599792e+01
    1.8460183716e+02   -3.0604700089e+01
    1.8470016479e+02   -3.0660699844e+01
    1.8480006409e+02   -3.0717699051e+01
    1.8490048218e+02   -3.0774999619e+01
    1.8500085449e+02   -3.0832399368e+01
    1.8510125732e+02   -3.0889799118e+01
    1.8520065308e+02   -3.0946599960e+01
    1.8530061340e+02   -3.1003700256e+01
    1.8540165710e+02   -3.1061399460e+01
    1.8550204468e+02   -3.1118700027e+01
    1.8560147095e+02   -3.1175300598e+01
    1.8570133972e+02   -3.1232099533e+01
    1.8580114746e+02   -3.1288799286e+01
    1.8590032959e+02   -3.1345100403e+01
    1.8600018311e+02   -3.1401599884e+01
    1.8610159302e+02   -3.1458999634e+01
    1.8620205688e+02   -3.1515699387e+01
    1.8630038452e+02   -3.1571100235e+01
    1.8640046692e+02   -3.1627500534e+01
    1.8650048828e+02   -3.1683900833e+01
    1.8660032654e+02   -3.1740100861e+01
    1.8670147705e+02   -3.1797000885e+01
    1.8680039978e+02   -3.1852699280e+01
    1.8690063477e+02   -3.1909099579e+01
    1.8700082397e+02   -3.1965599060e+01
    1.8710072327e+02   -3.2021900177e+01
    1.8720210266e+02   -3.2079200745e+01
    1.8730099487e+02   -3.2135101318e+01
    1.8740121460e+02   -3.2191799164e+01
    1.8750213623e+02   -3.2249099731e+01
    1.8760168457e+02   -3.2305599213e+01
    1.8770199585e+02   -3.2362701416e+01
    1.8780099487e+02   -3.2419101715e+01
    1.8790063477e+02   -3.2476001740e+01
    1.8800057983e+02   -3.2533100128e+01
    1.8810223389e+02   -3.2591300964e+01
    1.8820143127e+02   -3.2648101807e+01
    1.8830097961e+02   -3.2705101013e+01
    1.8840080261e+02   -3.2762298584e+01
    1.8850227356e+02   -3.2820499420e+01
    1.8860023499e+02   -3.2876598358e+01
    1.8870089722e+02   -3.2934200287e+01
    1.8880038452e+02   -3.2991100311e+01
    1.8890083313e+02   -3.3048400879e+01
    1.8900071716e+02   -3.3105400085e+01
    1.8910110474e+02   -3.3162498474e+01
    1.8920118713e+02   -3.3219398499e+01
    1.8930116272e+02   -3.3276100159e+01
    1.8940136719e+02   -3.3332901001e+01
    1.8950152588e+02   -3.3389499664e+01
    1.8960154724e+02   -3.3445999146e+01
    1.8970164490e+02   -3.3502498627e+01
    1.8980213928e+02   -3.3559101105e+01
    1.8990203857e+02   -3.3615299225e+01
    1.9000184631e+02   -3.3671501160e+01
    1.9010220337e+02   -3.3727901459e+01
    1.9020239258e+02   -3.3784198761e+01
    1.9030073547e+02   -3.3839599609e+01
    1.9040231323e+02   -3.3896701813e+01
    1.9050047302e+02   -3.3951999664e+01
    1.9060064697e+02   -3.4008499146e+01
    1.9070115662e+02   -3.4065299988e+01
    1.9080201721e+02   -3.4122398376e+01
    1.9090170288e+02   -3.4178901672e+01
    1.9100068665e+02   -3.4235000610e+01
    1.9110127258e+02   -3.4292098999e+01
    1.9120225525e+02   -3.4349601746e+01
    1.9130206299e+02   -3.4406398773e+01
    1.9140080261e+02   -3.4462600708e+01
    1.9150219727e+02   -3.4520401001e+01
    1.9160177612e+02   -3.4577098846e+01
    1.9170155334e+02   -3.4633899689e+01
    1.9180047607e+02   -3.4690101624e+01
    1.9190171814e+02   -3.4747600555e+01
    1.9200114441e+02   -3.4804000854e+01
    1.9210046387e+02   -3.4860298157e+01
    1.9220173645e+02   -3.4917499542e+01
    1.9230174255e+02   -3.4973899841e+01
    1.9240173340e+02   -3.5030200958e+01
    1.9250224304e+02   -3.5086601257e+01
    1.9260214233e+02   -3.5142501831e+01
    1.9270120239e+02   -3.5197799683e+01
    1.9280151367e+02   -3.5253700256e+01
    1.9290162659e+02   -3.5309299469e+01
    1.9300100708e+02   -3.5364398956e+01
    1.9310215759e+02   -3.5420398712e+01
    1.9320185852e+02   -3.5475498199e+01
    1.9330181885e+02   -3.5530700684e+01
    1.9340138245e+02   -3.5585601807e+01
    1.9350212097e+02   -3.5641201019e+01
    1.9360087585e+02   -3.5695598602e+01
    1.9370086670e+02   -3.5750801086e+01
    1.9380165100e+02   -3.5806499481e+01
    1.9390136719e+02   -3.5861698151e+01
    1.9400155640e+02   -3.5917301178e+01
    1.9410066223e+02   -3.5972301483e+01
    1.9420166016e+02   -3.6028598785e+01
    1.9430064392e+02   -3.6083801270e+01
    1.9440103149e+02   -3.6139900208e+01
[...]
    2.5130558777e+02   -4.7792198181e+01
    2.5140458679e+02   -4.7781299591e+01
    2.5150535583e+02   -4.7770198822e+01
    2.5160589600e+02   -4.7759101868e+01
    2.5170611572e+02   -4.7748001099e+01
    2.5180609131e+02   -4.7736900330e+01
    2.5190577698e+02   -4.7725799561e+01
    2.5200511169e+02   -4.7714698792e+01
    2.5210452271e+02   -4.7703601837e+01
    2.5220555115e+02   -4.7692199707e+01
    2.5230587769e+02   -4.7680999756e+01
    2.5240559387e+02   -4.7669799805e+01
    2.5250616455e+02   -4.7658500671e+01
    2.5260455322e+02   -4.7647499084e+01
    2.5270498657e+02   -4.7636199951e+01
    2.5280581665e+02   -4.7624900818e+01
    2.5290454102e+02   -4.7613899231e+01
    2.5300541687e+02   -4.7602600098e+01
    2.5310467529e+02   -4.7591499329e+01
    2.5320620728e+02   -4.7580200195e+01
    2.5330464172e+02   -4.7569198608e+01
    2.5340478516e+02   -4.7557998657e+01
    2.5350569153e+02   -4.7546600342e+01
    2.5360496521e+02   -4.7535400391e+01
    2.5370622253e+02   -4.7523899078e+01
    2.5380520630e+02   -4.7512599945e+01
    2.5390440369e+02   -4.7501201630e+01
    2.5400590515e+02   -4.7489398956e+01
    2.5410565186e+02   -4.7477699280e+01
    2.5420512390e+02   -4.7465900421e+01
    2.5430468750e+02   -4.7453998566e+01
    2.5440618896e+02   -4.7441600800e+01
    2.5450564575e+02   -4.7429298401e+01
    2.5460502625e+02   -4.7416900635e+01
    2.5470628357e+02   -4.7403999329e+01
    2.5480543518e+02   -4.7391201019e+01
    2.5490437317e+02   -4.7378299713e+01
    2.5500509644e+02   -4.7365001678e+01
    2.5510560608e+02   -4.7351501465e+01
    2.5520602417e+02   -4.7337898254e+01
    2.5530441284e+02   -4.7324401855e+01
    2.5540451050e+02   -4.7310501099e+01
    2.5550633240e+02   -4.7296398163e+01
    2.5560606384e+02   -4.7282398224e+01
    2.5570565796e+02   -4.7268398285e+01
    2.5580511475e+02   -4.7254398346e+01
    2.5590446472e+02   -4.7240398407e+01
    2.5600567627e+02   -4.7226200104e+01
    2.5610494995e+02   -4.7212200165e+01
    2.5620507812e+02   -4.7198200226e+01
    2.5630545044e+02   -4.7184101105e+01
    2.5640603638e+02   -4.7170101166e+01
    2.5650640869e+02   -4.7156200409e+01
    2.5660488892e+02   -4.7142501831e+01
    2.5670608521e+02   -4.7128398895e+01
    2.5680596924e+02   -4.7114601135e+01
    2.5690457153e+02   -4.7100799561e+01
    2.5700476074e+02   -4.7086799622e+01
    2.5710461426e+02   -4.7072601318e+01
    2.5720547485e+02   -4.7058200836e+01
    2.5730462646e+02   -4.7043899536e+01
    2.5740554810e+02   -4.7029201508e+01
    2.5750463867e+02   -4.7014499664e+01
    2.5760601807e+02   -4.6999198914e+01
    2.5770520020e+02   -4.6984001160e+01
    2.5780648804e+02   -4.6968200684e+01
    2.5790542603e+02   -4.6952598572e+01
    2.5800607300e+02   -4.6936401367e+01
    2.5810647583e+02   -4.6919998169e+01
    2.5820526123e+02   -4.6903701782e+01
    2.5830615234e+02   -4.6886901855e+01
    2.5840496826e+02   -4.6870201111e+01
    2.5850576782e+02   -4.6853000641e+01
    2.5860647583e+02   -4.6835800171e+01
    2.5870498657e+02   -4.6818698883e+01
    2.5880526733e+02   -4.6801399231e+01
    2.5890615845e+02   -4.6783798218e+01
    2.5900500488e+02   -4.6766601562e+01
    2.5910620117e+02   -4.6748901367e+01
    2.5920608521e+02   -4.6731399536e+01
    2.5930511475e+02   -4.6714000702e+01
    2.5940585327e+02   -4.6696399689e+01
    2.5950540161e+02   -4.6678901672e+01
    2.5960565186e+02   -4.6661300659e+01
    2.5970581055e+02   -4.6643699646e+01
    2.5980487061e+02   -4.6626300812e+01
    2.5990567017e+02   -4.6608600616e+01
    2.6000592041e+02   -4.6590900421e+01
    2.6010610962e+02   -4.6573200226e+01
    2.6020553589e+02   -4.6555599213e+01
    2.6030575562e+02   -4.6537700653e+01
    2.6040536499e+02   -4.6519901276e+01
    2.6050622559e+02   -4.6501800537e+01
    2.6060549927e+02   -4.6483798981e+01
    2.6070495605e+02   -4.6465698242e+01
    2.6080599976e+02   -4.6447101593e+01
    2.6090512085e+02   -4.6428699493e+01
    2.6100659180e+02   -4.6409698486e+01
    2.6110653687e+02   -4.6390800476e+01
    2.6120654297e+02   -4.6371601105e+01
    2.6130645752e+02   -4.6352298737e+01
    2.6140643311e+02   -4.6332801819e+01
    2.6150640869e+02   -4.6312999725e+01
    2.6160629272e+02   -4.6293098450e+01
    2.6170602417e+02   -4.6272998810e+01
    2.6180557251e+02   -4.6252700806e+01
    2.6190487671e+02   -4.6232200623e+01
    2.6200598145e+02   -4.6211101532e+01
    2.6210504150e+02   -4.6190299988e+01
    2.6220581055e+02   -4.6168899536e+01
    2.6230633545e+02   -4.6147300720e+01
    2.6240673828e+02   -4.6125598907e+01
    2.6250515747e+02   -4.6104198456e+01
    2.6260552979e+02   -4.6082199097e+01
    2.6270587158e+02   -4.6060199738e+01
    2.6280624390e+02   -4.6037998199e+01
    2.6290652466e+02   -4.6015701294e+01
    2.6300500488e+02   -4.5993801117e+01
    2.6310589600e+02   -4.5971298218e+01
    2.6320510864e+02   -4.5949100494e+01
    2.6330676270e+02   -4.5926399231e+01
    2.6340588379e+02   -4.5904098511e+01
    2.6350595093e+02   -4.5881599426e+01
    2.6360665894e+02   -4.5858898163e+01
    2.6370498657e+02   -4.5836700439e+01
    2.6380670166e+02   -4.5813499451e+01
    2.6390679932e+02   -4.5790599823e+01
    2.6400650024e+02   -4.5767601013e+01
    2.6410583496e+02   -4.5744499207e+01
    2.6420556641e+02   -4.5721099854e+01
    2.6430639648e+02   -4.5697101593e+01
    2.6440557861e+02   -4.5673301697e+01
    2.6450497437e+02   -4.5649200439e+01
    2.6460604858e+02   -4.5624401093e+01
    2.6470553589e+02   -4.5599700928e+01
    2.6480603027e+02   -4.5574401855e+01
    2.6490621948e+02   -4.5548900604e+01
    2.6500622559e+02   -4.5523200989e+01
    2.6510623169e+02   -4.5497200012e+01
    2.6520608521e+02   -4.5471000671e+01
    2.6530581665e+02   -4.5444698334e+01
    2.6540551758e+02   -4.5418201447e+01
    2.6550503540e+02   -4.5391601562e+01
    2.6560641479e+02   -4.5364299774e+01
    2.6570574951e+02   -4.5337501526e+01
    2.6580697632e+02   -4.5310199738e+01
    2.6590612793e+02   -4.5283298492e+01
    2.6600515747e+02   -4.5256401062e+01
    2.6610650635e+02   -4.5228900909e+01
    2.6620581055e+02   -4.5201900482e+01
    2.6630645752e+02   -4.5174598694e+01
    2.6640701294e+02   -4.5147201538e+01
    2.6650534058e+02   -4.5120399475e+01
    2.6660580444e+02   -4.5092998505e+01
    2.6670693970e+02   -4.5065399170e+01
    2.6680541992e+02   -4.5038398743e+01
    2.6690594482e+02   -4.5010799408e+01
    2.6700576782e+02   -4.4983200073e+01
    2.6710543823e+02   -4.4955501556e+01
    2.6720556641e+02   -4.4927600861e+01
    2.6730673218e+02   -4.4899200439e+01
    2.6740658569e+02   -4.4870998383e+01
    2.6750659180e+02   -4.4842498779e+01
    2.6760659790e+02   -4.4813701630e+01
    2.6770657349e+02   -4.4784801483e+01
    2.6780679321e+02   -4.4755500793e+01
    2.6790704346e+02   -4.4726001740e+01
    2.6800534058e+02   -4.4696800232e+01
    2.6810562134e+02   -4.4666698456e+01
    2.6820596313e+02   -4.4636398315e+01
    2.6830630493e+02   -4.4605899811e+01
    2.6840664673e+02   -4.4575000763e+01
    2.6850695801e+02   -4.4543998718e+01
    2.6860525513e+02   -4.4513401031e+01
    2.6870538330e+02   -4.4481998444e+01
    2.6880541992e+02   -4.4450401306e+01
    2.6890554810e+02   -4.4418598175e+01
    2.6900561523e+02   -4.4386699677e+01
    2.6910559082e+02   -4.4354598999e+01
    2.6920715332e+02   -4.4321800232e+01
    2.6930618286e+02   -4.4289798737e+01
    2.6940707397e+02   -4.4256900787e+01
    2.6950601196e+02   -4.4224601746e+01
    2.6960702515e+02   -4.4191501617e+01
    2.6970626831e+02   -4.4158901215e+01
    2.6980612183e+02   -4.4125999451e+01
    2.6990625000e+02   -4.4092899323e+01
    2.7000698853e+02   -4.4059600830e+01
    2.7010610962e+02   -4.4026699066e+01
    2.7020581055e+02   -4.3993499756e+01
    2.7030538940e+02   -4.3960300446e+01
    2.7040591431e+02   -4.3926799774e+01
    2.7050601196e+02   -4.3893199921e+01
    2.7060635376e+02   -4.3859401703e+01
    2.7070516968e+02   -4.3826099396e+01
    2.7080596924e+02   -4.3791801453e+01
    2.7090652466e+02   -4.3757499695e+01
    2.7100689697e+02   -4.3722999573e+01
    2.7110665894e+02   -4.3688400269e+01
    2.7120648193e+02   -4.3653598785e+01
    2.7130718994e+02   -4.3618099213e+01
    2.7140609741e+02   -4.3583000183e+01
    2.7150683594e+02   -4.3546901703e+01
    2.7160723877e+02   -4.3510601044e+01
    2.7170721436e+02   -4.3474201202e+01
    2.7180725098e+02   -4.3437400818e+01
    2.7190548706e+02   -4.3400901794e+01
    2.7200585938e+02   -4.3363399506e+01
    2.7210610962e+02   -4.3325698853e+01
    2.7220623779e+02   -4.3287700653e+01
    2.7230624390e+02   -4.3249599457e+01
    2.7240606689e+02   -4.3211299896e+01
    2.7250576782e+02   -4.3172901154e+01
    2.7260733032e+02   -4.3133701324e+01
    2.7270681763e+02   -4.3095100403e+01
    2.7280630493e+02   -4.3056499481e+01
    2.7290585327e+02   -4.3017700195e+01
    2.7300634766e+02   -4.2978599548e+01
    2.7310693359e+02   -4.2939300537e+01
    2.7320550537e+02   -4.2900798798e+01
    2.7330624390e+02   -4.2861301422e+01
    2.7340551758e+02   -4.2822399139e+01
    2.7350744629e+02   -4.2782299042e+01
    2.7360543823e+02   -4.2743598938e+01
    2.7370709229e+02   -4.2703399658e+01
    2.7380593872e+02   -4.2664100647e+01
    2.7390646362e+02   -4.2624000549e+01
    2.7400729370e+02   -4.2583499908e+01
    2.7410620117e+02   -4.2543498993e+01
    2.7420559692e+02   -4.2503101349e+01
    2.7430737305e+02   -4.2461498260e+01
    2.7440542603e+02   -4.2421001434e+01
    2.7450747681e+02   -4.2378700256e+01
    2.7460595703e+02   -4.2337501526e+01
    2.7470727539e+02   -4.2294799805e+01
    2.7480661011e+02   -4.2252700806e+01
    2.7490594482e+02   -4.2210300446e+01
    2.7500720215e+02   -4.2166900635e+01
    2.7510641479e+02   -4.2124000549e+01
    2.7520565796e+02   -4.2080898285e+01
    2.7530691528e+02   -4.2036701202e+01
    2.7540606689e+02   -4.1993198395e+01
    2.7550704956e+02   -4.1948699951e+01
    2.7560592651e+02   -4.1904998779e+01
    2.7570675659e+02   -4.1860298157e+01
    2.7580746460e+02   -4.1815498352e+01
    2.7590600586e+02   -4.1771499634e+01
    2.7600650024e+02   -4.1726600647e+01
    2.7610671997e+02   -4.1681701660e+01
    2.7620672607e+02   -4.1636699677e+01
    2.7630657959e+02   -4.1591800690e+01
    2.7640631104e+02   -4.1546699524e+01
    2.7650601196e+02   -4.1501598358e+01
    2.7660586548e+02   -4.1456298828e+01
    2.7670596313e+02   -4.1410701752e+01
    2.7680636597e+02   -4.1364898682e+01
    2.7690719604e+02   -4.1318698883e+01
    2.7700683594e+02   -4.1272998810e+01
    2.7710717773e+02   -4.1226699829e+01
    2.7720669556e+02   -4.1180698395e+01
    2.7730712891e+02   -4.1134101868e+01
    2.7740570068e+02   -4.1088199615e+01
    2.7750747681e+02   -4.1040599823e+01
    2.7760708618e+02   -4.0993698120e+01
    2.7770654297e+02   -4.0946701050e+01
    2.7780657959e+02   -4.0899101257e+01
    2.7790606689e+02   -4.0851600647e+01
    2.7800753784e+02   -4.0802700043e+01
    2.7810626221e+02   -4.0754901886e+01
    2.7820602417e+02   -4.0706199646e+01
    2.7830578613e+02   -4.0657299042e+01
    2.7840579224e+02   -4.0607799530e+01
    2.7850625610e+02   -4.0557800293e+01
    2.7860668945e+02   -4.0507499695e+01
    2.7870709229e+02   -4.0456901550e+01
    2.7880718994e+02   -4.0406200409e+01
    2.7890725708e+02   -4.0355201721e+01
    2.7900744629e+02   -4.0303798676e+01
    2.7910766602e+02   -4.0252300262e+01
    2.7920593262e+02   -4.0201499939e+01
    2.7930621338e+02   -4.0149501801e+01
    2.7940643311e+02   -4.0097400665e+01
    2.7950668335e+02   -4.0045200348e+01
    2.7960696411e+02   -3.9992801666e+01
    2.7970733643e+02   -3.9940299988e+01
    2.7980590820e+02   -3.9888698578e+01
    2.7990585327e+02   -3.9836299896e+01
    2.8000582886e+02   -3.9783798218e+01
    2.8010614014e+02   -3.9731098175e+01
    2.8020730591e+02   -3.9677799225e+01
    2.8030630493e+02   -3.9625598907e+01
    2.8040756226e+02   -3.9571998596e+01
    2.8050772095e+02   -3.9518901825e+01
    2.8060635376e+02   -3.9466400146e+01
    2.8070660400e+02   -3.9412899017e+01
    2.8080633545e+02   -3.9359401703e+01
    2.8090603638e+02   -3.9305599213e+01
    2.8100744629e+02   -3.9250701904e+01
    2.8110705566e+02   -3.9196498871e+01
    2.8120758057e+02   -3.9141399384e+01
    2.8130630493e+02   -3.9087001801e+01
    2.8140771484e+02   -3.9030899048e+01
    2.8150607300e+02   -3.8976100922e+01
    2.8160678101e+02   -3.8919700623e+01
    2.8170709229e+02   -3.8863300323e+01
    2.8180746460e+02   -3.8806499481e+01
    2.8190618896e+02   -3.8750400543e+01
    2.8200704956e+02   -3.8692901611e+01
    2.8210797119e+02   -3.8635101318e+01
    2.8220660400e+02   -3.8578399658e+01
    2.8230722046e+02   -3.8520500183e+01
    2.8240600586e+02   -3.8463401794e+01
    2.8250686646e+02   -3.8405101776e+01
    2.8260784912e+02   -3.8346500397e+01
    2.8270693970e+02   -3.8289001465e+01
    2.8280801392e+02   -3.8230201721e+01
    2.8290698242e+02   -3.8172500610e+01
    2.8300778198e+02   -3.8113700867e+01
    2.8310644531e+02   -3.8056098938e+01
    2.8320703125e+02   -3.7997200012e+01
    2.8330758667e+02   -3.7938201904e+01
    2.8340640259e+02   -3.7880199432e+01
    2.8350738525e+02   -3.7820598602e+01
    2.8360739136e+02   -3.7761600494e+01
    2.8370739746e+02   -3.7702301025e+01
    2.8380798340e+02   -3.7642501831e+01
    2.8390667725e+02   -3.7583698273e+01
    2.8400622559e+02   -3.7524101257e+01
    2.8410800171e+02   -3.7462898254e+01
    2.8420605469e+02   -3.7403800964e+01
    2.8430697632e+02   -3.7342700958e+01
    2.8440643311e+02   -3.7282199860e+01
    2.8450802612e+02   -3.7220199585e+01
    2.8460684204e+02   -3.7159500122e+01
    2.8470681763e+02   -3.7097900391e+01
    2.8480682373e+02   -3.7035999298e+01
    2.8490618896e+02   -3.6974201202e+01
    2.8500772095e+02   -3.6910800934e+01
    2.8510717773e+02   -3.6848400116e+01
    2.8520715332e+02   -3.6785400391e+01
    2.8530688477e+02   -3.6722301483e+01
    2.8540667725e+02   -3.6658901215e+01
    2.8550656128e+02   -3.6595199585e+01
    2.8560653687e+02   -3.6531299591e+01
    2.8570660400e+02   -3.6467098236e+01
    2.8580670166e+02   -3.6402599335e+01
    2.8590686035e+02   -3.6338001251e+01
    2.8600711060e+02   -3.6273200989e+01
    2.8610736084e+02   -3.6208198547e+01
    2.8620773315e+02   -3.6143001556e+01
    2.8630636597e+02   -3.6078800201e+01
    2.8640740967e+02   -3.6013000488e+01
    2.8650643921e+02   -3.5948398590e+01
    2.8660733032e+02   -3.5882499695e+01
    2.8670697021e+02   -3.5817298889e+01
    2.8680743408e+02   -3.5751598358e+01
    2.8690643311e+02   -3.5686599731e+01
    2.8700750732e+02   -3.5620300293e+01
    2.8710684204e+02   -3.5554901123e+01
    2.8720819092e+02   -3.5488098145e+01
    2.8730728149e+02   -3.5422698975e+01
    2.8740823364e+02   -3.5355800629e+01
    2.8750680542e+02   -3.5290199280e+01
    2.8760675049e+02   -3.5223598480e+01
    2.8770803833e+02   -3.5155799866e+01
    2.8780688477e+02   -3.5089298248e+01
    2.8790673828e+02   -3.5021900177e+01
    2.8800646973e+02   -3.4954200745e+01
    2.8810745239e+02   -3.4885501862e+01
    2.8820788574e+02   -3.4816699982e+01
    2.8830773926e+02   -3.4748100281e+01
    2.8840792847e+02   -3.4679000854e+01
    2.8850833130e+02   -3.4609401703e+01
    2.8860812378e+02   -3.4540000916e+01
    2.8870642090e+02   -3.4471401215e+01
    2.8880813599e+02   -3.4400199890e+01
    2.8890820312e+02   -3.4329898834e+01
    2.8900823975e+02   -3.4259498596e+01
    2.8910839844e+02   -3.4188800812e+01
    2.8920666504e+02   -3.4119400024e+01
    2.8930700684e+02   -3.4048301697e+01
    2.8940750122e+02   -3.3977100372e+01
    2.8950805664e+02   -3.3905700684e+01
    2.8960668945e+02   -3.3835700989e+01
    2.8970739746e+02   -3.3764099121e+01
    2.8980645752e+02   -3.3693500519e+01
    2.8990792847e+02   -3.3621200562e+01
    2.9000839233e+02   -3.3549598694e+01
    2.9010681152e+02   -3.3479301453e+01
    2.9020709229e+02   -3.3407501221e+01
    2.9030654907e+02   -3.3336200714e+01
    2.9040695190e+02   -3.3264099121e+01
    2.9050790405e+02   -3.3191398621e+01
    2.9060736084e+02   -3.3119701385e+01
    2.9070761108e+02   -3.3047100067e+01
    2.9080831909e+02   -3.2973999023e+01
    2.9090692139e+02   -3.2902301788e+01
    2.9100756836e+02   -3.2828800201e+01
    2.9110671997e+02   -3.2756198883e+01
    2.9120782471e+02   -3.2681800842e+01
    2.9130691528e+02   -3.2608798981e+01
    2.9140689087e+02   -3.2534801483e+01
    2.9150781250e+02   -3.2459899902e+01
    2.9160760498e+02   -3.2385700226e+01
    2.9170739746e+02   -3.2311199188e+01
    2.9180722046e+02   -3.2236499786e+01
    2.9190710449e+02   -3.2161499023e+01
    2.9200714111e+02   -3.2086299896e+01
    2.9210733032e+02   -3.2010700226e+01
    2.9220767212e+02   -3.1934900284e+01
    2.9230813599e+02   -3.1858900070e+01
    2.9240673828e+02   -3.1784099579e+01
    2.9250747681e+02   -3.1707700729e+01
    2.9260830688e+02   -3.1631000519e+01
    2.9270724487e+02   -3.1555700302e+01
    2.9280819702e+02   -3.1478799820e+01
    2.9290716553e+02   -3.1403299332e+01
    2.9300814819e+02   -3.1326200485e+01
    2.9310708618e+02   -3.1250699997e+01
    2.9320797729e+02   -3.1173599243e+01
    2.9330688477e+02   -3.1097999573e+01
    2.9340792847e+02   -3.1020599365e+01
    2.9350708008e+02   -3.0944700241e+01
    2.9360681152e+02   -3.0868200302e+01
    2.9370809937e+02   -3.0790500641e+01
    2.9380709839e+02   -3.0714399338e+01
    2.9390829468e+02   -3.0636499405e+01
    2.9400750732e+02   -3.0559999466e+01
    2.9410781860e+02   -3.0482599258e+01
    2.9420690918e+02   -3.0405899048e+01
    2.9430728149e+02   -3.0327999115e+01
    2.9440774536e+02   -3.0249900818e+01
    2.9450701904e+02   -3.0172500610e+01
    2.9460821533e+02   -3.0093399048e+01
    2.9470837402e+02   -3.0014900208e+01
    2.9480822754e+02   -2.9936300278e+01
    2.9490808105e+02   -2.9857599258e+01
    2.9500784302e+02   -2.9778699875e+01
    2.9510736084e+02   -2.9699699402e+01
    2.9520736694e+02   -2.9620199203e+01
    2.9530764771e+02   -2.9540199280e+01
    2.9540783691e+02   -2.9460199356e+01
    2.9550765991e+02   -2.9380199432e+01
    2.9560717773e+02   -2.9300300598e+01
    2.9570880127e+02   -2.9218599319e+01
    2.9580850220e+02   -2.9138299942e+01
    2.9590832520e+02   -2.9057800293e+01
    2.9600817871e+02   -2.8977100372e+01
    2.9610803223e+02   -2.8896400452e+01
    2.9620809937e+02   -2.8815500259e+01
    2.9630816650e+02   -2.8734600067e+01
    2.9640826416e+02   -2.8653600693e+01
    2.9650823975e+02   -2.8572799683e+01
    2.9660861206e+02   -2.8491600037e+01
    2.9670706177e+02   -2.8411899567e+01
    2.9680883789e+02   -2.8329599380e+01
    2.9690704346e+02   -2.8250099182e+01
    2.9700775146e+02   -2.8168600082e+01
    2.9710678101e+02   -2.8088399887e+01
    2.9720785522e+02   -2.8006399155e+01
    2.9730856323e+02   -2.7924699783e+01
    2.9740753174e+02   -2.7844200134e+01
    2.9750869751e+02   -2.7761899948e+01
    2.9760809326e+02   -2.7680900574e+01
    2.9770758057e+02   -2.7599599838e+01
    2.9780734253e+02   -2.7517999649e+01
    2.9790859985e+02   -2.7434999466e+01
    2.9800842285e+02   -2.7353000641e+01
    2.9810824585e+02   -2.7270900726e+01
    2.9820803833e+02   -2.7188600540e+01
    2.9830786133e+02   -2.7106199265e+01
    2.9840771484e+02   -2.7023599625e+01
    2.9850808716e+02   -2.6940399170e+01
    2.9860876465e+02   -2.6856899261e+01
    2.9870733643e+02   -2.6774999619e+01
    2.9880752563e+02   -2.6691699982e+01
    2.9890786743e+02   -2.6608200073e+01
    2.9900839233e+02   -2.6524499893e+01
    2.9910711670e+02   -2.6442199707e+01
    2.9920806885e+02   -2.6358100891e+01
    2.9930715942e+02   -2.6275499344e+01
    2.9940832520e+02   -2.6191200256e+01
    2.9950738525e+02   -2.6108600616e+01
    2.9960839844e+02   -2.6024400711e+01
    2.9970730591e+02   -2.5941999435e+01
    2.9980822754e+02   -2.5857999802e+01
    2.9990829468e+02   -2.5774700165e+01
endcurve
