Curveplot
LS-DYNA keyword deck by LS-PrePost
Abscissa
Ordinate
XY data
CHOP_EAMX_mo-1 #pts=3000
* Minval=     0.0000000000e+00 at time=         0.0000000000
* Maxval=     8.4305999756e+01 at time=       241.5039825439
    0.0000000000e+00    0.0000000000e+00
    9.8183788359e-02    1.5349100577e-03
    1.9912311435e-01    3.1128900591e-03
    2.9914626479e-01    4.6765501611e-03
    3.9893028140e-01    6.2364800833e-03
    4.9987983704e-01    7.8146196902e-03
    5.9893918037e-01    9.3632200733e-03
    6.9821006060e-01    1.0915098712e-02
    7.9874593019e-01    1.2486796826e-02
    8.9882433414e-01    1.4051296748e-02
    9.9832749367e-01    1.5606899746e-02
    1.0999573469e+00    1.7195599154e-02
    1.1990598440e+00    1.8744898960e-02
    1.2982653379e+00    2.0295798779e-02
    1.3986650705e+00    2.1865297109e-02
    1.4996013641e+00    2.3443298414e-02
    1.5996849537e+00    2.5007903576e-02
    1.6981848478e+00    2.6547718793e-02
    1.7999788523e+00    2.8139147907e-02
    1.8988424540e+00    2.9684670269e-02
    1.9994133711e+00    3.1256835908e-02
    2.0989580154e+00    3.2812900841e-02
    2.1992669106e+00    3.4380774945e-02
    2.2983224392e+00    3.5929210484e-02
    2.3979117870e+00    3.7486229092e-02
    2.4989500046e+00    3.9066296071e-02
    2.5995516777e+00    4.0639977902e-02
    2.6994926929e+00    4.2203456163e-02
    2.7996888161e+00    4.3770469725e-02
    2.8994047642e+00    4.5329254121e-02
    2.9979913235e+00    4.6869304031e-02
    3.0980477333e+00    4.8431310803e-02
    3.1992988586e+00    5.0011180341e-02
    3.2992305756e+00    5.1570374519e-02
    3.3995552063e+00    5.3135886788e-02
    3.4997022152e+00    5.4699558765e-02
    3.5991342068e+00    5.6253399700e-02
    3.6984682083e+00    5.7807140052e-02
    3.7986755371e+00    5.9376526624e-02
    3.8990821838e+00    6.0950834304e-02
    3.9984014034e+00    6.2510021031e-02
    4.0992770195e+00    6.4095333219e-02
    4.1981892586e+00    6.5651319921e-02
    4.2979784012e+00    6.7222408950e-02
    4.3989949226e+00    6.8813920021e-02
    4.4994268417e+00    7.0396877825e-02
    4.5986452103e+00    7.1961060166e-02
    4.6987481117e+00    7.3538981378e-02
    4.7985696793e+00    7.5111888349e-02
    4.8981180191e+00    7.6679624617e-02
    4.9979515076e+00    7.8250549734e-02
    5.0988612175e+00    7.9836808145e-02
    5.1990551949e+00    8.1409990788e-02
    5.2997980118e+00    8.2989767194e-02
    5.3985314369e+00    8.4535829723e-02
    5.4989075661e+00    8.6105190217e-02
    5.5980806351e+00    8.7653093040e-02
    5.6982302666e+00    8.9213222265e-02
    5.7982525826e+00    9.0768225491e-02
    5.8983926773e+00    9.2321544886e-02
    5.9997043610e+00    9.3889310956e-02
    6.0987768173e+00    9.5418713987e-02
    6.1986193657e+00    9.6956223249e-02
    6.2991733551e+00    9.8500989377e-02
    6.3982605934e+00    1.0001945496e-01
    6.4995446205e+00    1.0156752914e-01
    6.5997424126e+00    1.0309629887e-01
    6.6981744766e+00    1.0459417850e-01
    6.7997589111e+00    1.0613600165e-01
    6.8993792534e+00    1.0764400661e-01
    6.9995565414e+00    1.0915702581e-01
    7.0997915268e+00    1.1066727340e-01
    7.1987843513e+00    1.1215559393e-01
    7.2995963097e+00    1.1366717517e-01
    7.3998112679e+00    1.1516555399e-01
    7.4993724823e+00    1.1665190011e-01
    7.5993847847e+00    1.1814049631e-01
    7.6991977692e+00    1.1962391436e-01
    7.7982468605e+00    1.2109171599e-01
    7.8989233971e+00    1.2258103490e-01
    7.9986028671e+00    1.2405210733e-01
    8.0983963013e+00    1.2552195787e-01
    8.1994724274e+00    1.2700746953e-01
    8.2984075546e+00    1.2845887244e-01
    8.3988151550e+00    1.2992864847e-01
    8.4993610382e+00    1.3139614463e-01
    8.5992784500e+00    1.3285328448e-01
    8.6999092102e+00    1.3431687653e-01
    8.7994432449e+00    1.3576214015e-01
    8.8991546631e+00    1.3720688224e-01
    8.9984941483e+00    1.3864496350e-01
    9.0998392105e+00    1.4011068642e-01
    9.1995410919e+00    1.4154937863e-01
    9.2982311249e+00    1.4297232032e-01
    9.3980522156e+00    1.4440985024e-01
    9.4979400635e+00    1.4584508538e-01
    9.5987491608e+00    1.4729177952e-01
    9.6984415054e+00    1.4872038364e-01
    9.7999868393e+00    1.5017186105e-01
    9.8994026184e+00    1.5159048140e-01
    9.9998521805e+00    1.5302199125e-01
    1.0098519325e+01    1.5687644482e-01
    1.0199457169e+01    1.6082233191e-01
    1.0299710274e+01    1.6473817825e-01
    1.0399371147e+01    1.6863022745e-01
    1.0498679161e+01    1.7250642180e-01
    1.0599512100e+01    1.7644123733e-01
    1.0698548317e+01    1.8030489981e-01
    1.0799074173e+01    1.8422658741e-01
    1.0899873734e+01    1.8815813959e-01
    1.0999960899e+01    1.9205993414e-01
    1.1099374771e+01    1.9593563676e-01
    1.1199412346e+01    1.9983386993e-01
    1.1298261642e+01    2.0368306339e-01
    1.1398068428e+01    2.0756849647e-01
    1.1498903275e+01    2.1149073541e-01
    1.1598305702e+01    2.1535462141e-01
    1.1699919701e+01    2.1930198371e-01
    1.1797915459e+01    2.2310554981e-01
    1.1898461342e+01    2.2700473666e-01
    1.1999602318e+01    2.3092460632e-01
    1.2098773003e+01    2.3476463556e-01
    1.2199694633e+01    2.3866803944e-01
    1.2298727036e+01    2.4249558151e-01
    1.2399748802e+01    2.4639731646e-01
    1.2499246597e+01    2.5023713708e-01
    1.2598966599e+01    2.5408259034e-01
    1.2698843002e+01    2.5793036819e-01
    1.2798324585e+01    2.6175895333e-01
    1.2899444580e+01    2.6564651728e-01
    1.2998724937e+01    2.6945811510e-01
    1.3099512100e+01    2.7332302928e-01
    1.3198291779e+01    2.7710756660e-01
    1.3298863411e+01    2.8095838428e-01
    1.3398011208e+01    2.8475275636e-01
    1.3498142242e+01    2.8858309984e-01
    1.3598805428e+01    2.9243430495e-01
    1.3699188232e+01    2.9627576470e-01
    1.3798082352e+01    3.0006161332e-01
    1.3899313927e+01    3.0393740535e-01
    1.3999874115e+01    3.0778881907e-01
    1.4098267555e+01    3.1155818701e-01
    1.4198948860e+01    3.1541618705e-01
    1.4299620628e+01    3.1927379966e-01
    1.4398451805e+01    3.2306119800e-01
    1.4498159409e+01    3.2688179612e-01
    1.4599633217e+01    3.3076757193e-01
    1.4697935104e+01    3.3452871442e-01
    1.4798772812e+01    3.3838450909e-01
    1.4898574829e+01    3.4219509363e-01
    1.4998423576e+01    3.4600260854e-01
    1.5098880768e+01    3.4982770681e-01
    1.5199631691e+01    3.5365739465e-01
    1.5299453735e+01    3.5744440556e-01
    1.5399840355e+01    3.6124509573e-01
    1.5498711586e+01    3.6497989297e-01
    1.5598532677e+01    3.6874240637e-01
    1.5698728561e+01    3.7251058221e-01
    1.5799994469e+01    3.7630778551e-01
    1.5898333549e+01    3.7998589873e-01
    1.5999801636e+01    3.8377079368e-01
    1.6098541260e+01    3.8744291663e-01
    1.6200017929e+01    3.9120590687e-01
    1.6299877167e+01    3.9489829540e-01
    1.6399007797e+01    3.9855217934e-01
    1.6499197006e+01    4.0223369002e-01
    1.6598306656e+01    4.0586349368e-01
    1.6699092865e+01    4.0954259038e-01
    1.6798330307e+01    4.1315358877e-01
    1.6899732590e+01    4.1682979465e-01
    1.6998058319e+01    4.2038190365e-01
    1.7098949432e+01    4.2401528358e-01
    1.7198297501e+01    4.2758062482e-01
    1.7298633575e+01    4.3116870522e-01
    1.7398145676e+01    4.3471738696e-01
    1.7499736786e+01    4.3832880259e-01
    1.7599243164e+01    4.4185489416e-01
    1.7698213577e+01    4.4535249472e-01
    1.7798057556e+01    4.4887039065e-01
    1.7899745941e+01    4.5244219899e-01
    1.7998996735e+01    4.5591902733e-01
    1.8099042892e+01    4.5941308141e-01
    1.8198150635e+01    4.6286508441e-01
    1.8299657822e+01    4.6638870239e-01
    1.8399873734e+01    4.6985718608e-01
    1.8499559402e+01    4.7329738736e-01
    1.8598203659e+01    4.7669121623e-01
    1.8699617386e+01    4.8017120361e-01
    1.8799816132e+01    4.8359942436e-01
    1.8898628235e+01    4.8697176576e-01
    1.8998750687e+01    4.9038052559e-01
    1.9098970413e+01    4.9378439784e-01
    1.9199937820e+01    4.9720627069e-01
    1.9298763275e+01    5.0054758787e-01
    1.9398580551e+01    5.0391447544e-01
    1.9499242783e+01    5.0730168819e-01
    1.9598770142e+01    5.1064270735e-01
    1.9699743271e+01    5.1402461529e-01
    1.9798460007e+01    5.1732248068e-01
    1.9899494171e+01    5.2069008350e-01
    1.9998291016e+01    5.2397650480e-01
    2.0098955154e+01    5.2998012304e-01
    2.0199647903e+01    5.3602612019e-01
    2.0299768448e+01    5.4203152657e-01
    2.0399539948e+01    5.4801040888e-01
    2.0498609543e+01    5.5394327641e-01
    2.0599105835e+01    5.5995756388e-01
    2.0698131561e+01    5.6588071585e-01
    2.0798519135e+01    5.7188248634e-01
    2.0899551392e+01    5.7792019844e-01
    2.0999647141e+01    5.8389770985e-01
    2.1099111557e+01    5.8983385563e-01
    2.1198966980e+01    5.9578812122e-01
    2.1298326492e+01    6.0170650482e-01
    2.1398935318e+01    6.0769361258e-01
    2.1499458313e+01    6.1366808414e-01
    2.1598619461e+01    6.1955511570e-01
    2.1698289871e+01    6.2546300888e-01
    2.1799348831e+01    6.3144493103e-01
    2.1897935867e+01    6.3727241755e-01
    2.1999275208e+01    6.4325231314e-01
    2.2097919464e+01    6.4906287193e-01
    2.2198156357e+01    6.5495747328e-01
    2.2299243927e+01    6.6089099646e-01
    2.2400039673e+01    6.6679757833e-01
    2.2498214722e+01    6.7254060507e-01
    2.2599086761e+01    6.7843055725e-01
    2.2698888779e+01    6.8424898386e-01
    2.2799312592e+01    6.9009190798e-01
    2.2899595261e+01    6.9591581821e-01
    2.2998430252e+01    7.0164442062e-01
    2.3099084854e+01    7.0746815205e-01
    2.3199552536e+01    7.1327102184e-01
    2.3299903870e+01    7.1905940771e-01
    2.3399003983e+01    7.2476780415e-01
    2.3498929977e+01    7.3051762581e-01
    2.3598531723e+01    7.3624312878e-01
    2.3698837280e+01    7.4200350046e-01
    2.3799287796e+01    7.4776804447e-01
    2.3898925781e+01    7.5348234177e-01
    2.3999414444e+01    7.5924021006e-01
    2.4099821091e+01    7.6499098539e-01
    2.4199785233e+01    7.7071130276e-01
    2.4299215317e+01    7.7639788389e-01
    2.4398683548e+01    7.8208047152e-01
    2.4498859406e+01    7.8779900074e-01
    2.4599990845e+01    7.9356461763e-01
    2.4699514389e+01    7.9923099279e-01
    2.4799453735e+01    8.0491077900e-01
    2.4899499893e+01    8.1058722734e-01
    2.4998231888e+01    8.1617838144e-01
    2.5099704742e+01    8.2191121578e-01
    2.5198339462e+01    8.2746970654e-01
    2.5299097061e+01    8.3313405514e-01
    2.5399494171e+01    8.3876329660e-01
    2.5499496460e+01    8.4435385466e-01
    2.5599704742e+01    8.4993940592e-01
    2.5699876785e+01    8.5550498962e-01
    2.5799884796e+01    8.6104428768e-01
    2.5899108887e+01    8.6652070284e-01
    2.5998329163e+01    8.7197840214e-01
    2.6099086761e+01    8.7750118971e-01
    2.6199541092e+01    8.8298773766e-01
    2.6299970627e+01    8.8845080137e-01
    2.6399118423e+01    8.9382469654e-01
    2.6499774933e+01    8.9925801754e-01
    2.6598541260e+01    9.0456497669e-01
    2.6699808121e+01    9.0998703241e-01
    2.6799467087e+01    9.1529798508e-01
    2.6899703979e+01    9.2061799765e-01
    2.6999322891e+01    9.2588394880e-01
    2.7098617554e+01    9.3111199141e-01
    2.7199611664e+01    9.3640208244e-01
    2.7298065186e+01    9.4154000282e-01
    2.7399250031e+01    9.4679498672e-01
    2.7499807358e+01    9.5199900866e-01
    2.7599348068e+01    9.5712906122e-01
    2.7699430466e+01    9.6227002144e-01
    2.7799060822e+01    9.6736896038e-01
    2.7899314880e+01    9.7247898579e-01
    2.7998985291e+01    9.7754794359e-01
    2.8098850250e+01    9.8259502649e-01
    2.8199756622e+01    9.8768299818e-01
    2.8298299789e+01    9.9262309074e-01
    2.8398641586e+01    9.9764096737e-01
    2.8500015259e+01    1.0026800632e+00
    2.8597982407e+01    1.0075409412e+00
    2.8700023651e+01    1.0125780106e+00
    2.8798591614e+01    1.0174299479e+00
    2.8899835587e+01    1.0223939419e+00
    2.8998102188e+01    1.0271849632e+00
    2.9099990845e+01    1.0321410894e+00
    2.9198360443e+01    1.0369160175e+00
    2.9299106598e+01    1.0417790413e+00
    2.9398105621e+01    1.0465490818e+00
    2.9499437332e+01    1.0514080524e+00
    2.9599403381e+01    1.0561879873e+00
    2.9699005127e+01    1.0609409809e+00
    2.9799058914e+01    1.0657010078e+00
    2.9898826599e+01    1.0704330206e+00
    2.9998357773e+01    1.0751368999e+00
    3.0098888397e+01    1.0858000517e+00
    3.0199832916e+01    1.0965828896e+00
    3.0299915314e+01    1.1072729826e+00
    3.0399776459e+01    1.1179300547e+00
    3.0498529434e+01    1.1284599304e+00
    3.0599279404e+01    1.1392019987e+00
    3.0698387146e+01    1.1497510672e+00
    3.0798753738e+01    1.1604269743e+00
    3.0899684906e+01    1.1711640358e+00
    3.0999702454e+01    1.1817940474e+00
    3.1099124908e+01    1.1923589706e+00
    3.1198778152e+01    1.2029290199e+00
    3.1298311234e+01    1.2134830952e+00
    3.1398508072e+01    1.2240920067e+00
    3.1499303818e+01    1.2347569466e+00
    3.1599107742e+01    1.2453000546e+00
    3.1698919296e+01    1.2558410168e+00
    3.1798555374e+01    1.2663409710e+00
    3.1899126053e+01    1.2769249678e+00
    3.1999755859e+01    1.2875010967e+00
    3.2098369598e+01    1.2978450060e+00
    3.2198089600e+01    1.3082859516e+00
    3.2298179626e+01    1.3187509775e+00
    3.2399063110e+01    1.3292810917e+00
    3.2499000549e+01    1.3396949768e+00
    3.2599899292e+01    1.3501909971e+00
    3.2699657440e+01    1.3605550528e+00
    3.2799022675e+01    1.3708600998e+00
    3.2898643494e+01    1.3811689615e+00
    3.2999446869e+01    1.3915770054e+00
    3.3098613739e+01    1.4017949104e+00
    3.3199157715e+01    1.4121409655e+00
    3.3298656464e+01    1.4223560095e+00
    3.3399826050e+01    1.4327350855e+00
    3.3499744415e+01    1.4429620504e+00
    3.3599918365e+01    1.4532119036e+00
    3.3699794769e+01    1.4634300470e+00
    3.3798305511e+01    1.4734849930e+00
    3.3898357391e+01    1.4837030172e+00
    3.3998065948e+01    1.4938719273e+00
    3.4099456787e+01    1.5042009354e+00
    3.4198986053e+01    1.5143389702e+00
    3.4299285889e+01    1.5245490074e+00
    3.4399330139e+01    1.5347169638e+00
    3.4498596191e+01    1.5448039770e+00
    3.4599075317e+01    1.5549960136e+00
    3.4699577332e+01    1.5651719570e+00
    3.4798046112e+01    1.5751249790e+00
    3.4898307800e+01    1.5852410793e+00
    3.4999942780e+01    1.5954799652e+00
    3.5099067688e+01    1.6054320335e+00
    3.5199687958e+01    1.6155180931e+00
    3.5298454285e+01    1.6253890991e+00
    3.5398876190e+01    1.6353969574e+00
    3.5498523712e+01    1.6453069448e+00
    3.5598751068e+01    1.6552309990e+00
    3.5698947906e+01    1.6651320457e+00
    3.5798839569e+01    1.6749589443e+00
    3.5899185181e+01    1.6847970486e+00
    3.5998168945e+01    1.6944680214e+00
    3.6099449158e+01    1.7043249607e+00
    3.6199863434e+01    1.7140588760e+00
    3.6299209595e+01    1.7236568928e+00
    3.6399646759e+01    1.7333139181e+00
    3.6499813080e+01    1.7429111004e+00
    3.6598258972e+01    1.7523049116e+00
    3.6699520111e+01    1.7619290352e+00
    3.6799983978e+01    1.7714289427e+00
    3.6899822235e+01    1.7808409929e+00
    3.6998287201e+01    1.7900798321e+00
    3.7098762512e+01    1.7994730473e+00
    3.7199153900e+01    1.8088200092e+00
    3.7298419952e+01    1.8180290461e+00
    3.7398902893e+01    1.8272979259e+00
    3.7498867035e+01    1.8365001678e+00
    3.7598621368e+01    1.8456319571e+00
    3.7698493958e+01    1.8547550440e+00
    3.7798793793e+01    1.8638670444e+00
    3.7899002075e+01    1.8729479313e+00
    3.7998519897e+01    1.8819189072e+00
    3.8098690033e+01    1.8909200430e+00
    3.8199634552e+01    1.8999561071e+00
    3.8298583984e+01    1.9087820053e+00
    3.8399978638e+01    1.9177778959e+00
    3.8499069214e+01    1.9265358448e+00
    3.8599227905e+01    1.9353570938e+00
    3.8699016571e+01    1.9441068172e+00
    3.8798889160e+01    1.9528290033e+00
    3.8899158478e+01    1.9615628719e+00
    3.8999721527e+01    1.9702818394e+00
    3.9098751068e+01    1.9788320065e+00
    3.9199024200e+01    1.9874609709e+00
    3.9298969269e+01    1.9960341454e+00
    3.9399429321e+01    2.0046269894e+00
    3.9499420166e+01    2.0131518841e+00
    3.9598690033e+01    2.0215799809e+00
    3.9698402405e+01    2.0300221443e+00
    3.9798267365e+01    2.0384540558e+00
    3.9899662018e+01    2.0469949245e+00
    3.9998157501e+01    2.0552580357e+00
    4.0098312378e+01    2.0713078976e+00
    4.0199260712e+01    2.0876038074e+00
    4.0299274445e+01    2.1037321091e+00
    4.0399101257e+01    2.1198120117e+00
    4.0499881744e+01    2.1360259056e+00
    4.0598751068e+01    2.1519310474e+00
    4.0697849274e+01    2.1678540707e+00
    4.0798099518e+01    2.1839551926e+00
    4.0898983002e+01    2.2001371384e+00
    4.0999225616e+01    2.2162160873e+00
    4.1098846436e+01    2.2321810722e+00
    4.1198230743e+01    2.2480919361e+00
    4.1299804688e+01    2.2643389702e+00
    4.1398517609e+01    2.2801060677e+00
    4.1499492645e+01    2.2962119579e+00
    4.1599098206e+01    2.3120889664e+00
    4.1698673248e+01    2.3279359341e+00
    4.1798664093e+01    2.3438198566e+00
    4.1899353027e+01    2.3597960472e+00
    4.1998130798e+01    2.3754348755e+00
    4.2098697662e+01    2.3913431168e+00
    4.2198337555e+01    2.4070639610e+00
    4.2299415588e+01    2.4229879379e+00
    4.2397911072e+01    2.4384660721e+00
    4.2498508453e+01    2.4542541504e+00
    4.2599517822e+01    2.4700720310e+00
    4.2698760986e+01    2.4855861664e+00
    4.2797988892e+01    2.5010671616e+00
    4.2898094177e+01    2.5166511536e+00
    4.2999389648e+01    2.5323789120e+00
    4.3098480225e+01    2.5477328300e+00
    4.3199134827e+01    2.5632960796e+00
    4.3299274445e+01    2.5787560940e+00
    4.3398456573e+01    2.5940299034e+00
    4.3498039246e+01    2.6093521118e+00
    4.3598197937e+01    2.6247439384e+00
    4.3699562073e+01    2.6403059959e+00
    4.3798164368e+01    2.6554250717e+00
    4.3898494720e+01    2.6707892418e+00
    4.3997955322e+01    2.6860129833e+00
    4.4099380493e+01    2.7015089989e+00
    4.4199527740e+01    2.7168059349e+00
    4.4299797058e+01    2.7321000099e+00
    4.4399765015e+01    2.7473320961e+00
    4.4499065399e+01    2.7624380589e+00
    4.4599613190e+01    2.7777128220e+00
    4.4699859619e+01    2.7929179668e+00
    4.4799285889e+01    2.8079659939e+00
    4.4899593353e+01    2.8231129646e+00
    4.4998767853e+01    2.8380470276e+00
    4.5098468781e+01    2.8530318737e+00
    4.5199489594e+01    2.8681628704e+00
    4.5298721313e+01    2.8829879761e+00
    4.5399169922e+01    2.8979501724e+00
    4.5498218536e+01    2.9126510620e+00
    4.5598464966e+01    2.9274840355e+00
    4.5698719025e+01    2.9422531128e+00
    4.5798614502e+01    2.9569270611e+00
    4.5898624420e+01    2.9715580940e+00
    4.5999057770e+01    2.9861850739e+00
    4.6098060608e+01    3.0005500317e+00
    4.6197959900e+01    3.0149917603e+00
    4.6298259735e+01    3.0294198990e+00
    4.6398853302e+01    3.0438389778e+00
    4.6498332977e+01    3.0580368042e+00
    4.6598827362e+01    3.0723209381e+00
    4.6699333191e+01    3.0865411758e+00
    4.6799842834e+01    3.1006979942e+00
    4.6898353577e+01    3.1145119667e+00
    4.6998882294e+01    3.1285440922e+00
    4.7099407196e+01    3.1425240040e+00
    4.7199050903e+01    3.1563119888e+00
    4.7299301147e+01    3.1701309681e+00
    4.7397838593e+01    3.1836481094e+00
    4.7498901367e+01    3.1974661350e+00
    4.7598457336e+01    3.2110118866e+00
    4.7699333191e+01    3.2246897221e+00
    4.7799705505e+01    3.2382380962e+00
    4.7897842407e+01    3.2514276505e+00
    4.7998027802e+01    3.2648489475e+00
    4.8098144531e+01    3.2781987190e+00
    4.8198638916e+01    3.2915341854e+00
    4.8299163818e+01    3.3048279285e+00
    4.8398986816e+01    3.3179662228e+00
    4.8499298096e+01    3.3311109543e+00
    4.8599334717e+01    3.3441581726e+00
    4.8698936462e+01    3.3570919037e+00
    4.8798774719e+01    3.3700149059e+00
    4.8899101257e+01    3.3829379082e+00
    4.8997840881e+01    3.3956122398e+00
    4.9097698212e+01    3.4083707333e+00
    4.9198036194e+01    3.4211540222e+00
    4.9299808502e+01    3.4340658188e+00
    4.9398326874e+01    3.4465191364e+00
    4.9498130798e+01    3.4590947628e+00
    4.9598773956e+01    3.4717202187e+00
    4.9699417114e+01    3.4843101501e+00
    4.9799125671e+01    3.4967503548e+00
    4.9899223328e+01    3.5091900826e+00
    4.9997806549e+01    3.5214097500e+00
    5.0097949982e+01    3.5432000160e+00
    5.0198936462e+01    3.5653400421e+00
    5.0298686981e+01    3.5871901512e+00
    5.0398563385e+01    3.6090397835e+00
    5.0499801636e+01    3.6311702728e+00
    5.0598510742e+01    3.6527299881e+00
    5.0699558258e+01    3.6747698784e+00
    5.0797702789e+01    3.6961698532e+00
    5.0898761749e+01    3.7181897163e+00
    5.0999065399e+01    3.7400298119e+00
    5.1098777771e+01    3.7617201805e+00
    5.1197803497e+01    3.7832400799e+00
    5.1299434662e+01    3.8053102493e+00
    5.1398513794e+01    3.8267900944e+00
    5.1497718811e+01    3.8482701778e+00
    5.1599037170e+01    3.8701801300e+00
    5.1698665619e+01    3.8916897774e+00
    5.1798736572e+01    3.9132697582e+00
    5.1898002625e+01    3.9346299171e+00
    5.1998893738e+01    3.9563002586e+00
    5.2099208832e+01    3.9778101444e+00
    5.2198104858e+01    3.9989600182e+00
    5.2298912048e+01    4.0204796791e+00
    5.2398891449e+01    4.0417799950e+00
    5.2499500275e+01    4.0631699562e+00
    5.2599430084e+01    4.0843601227e+00
    5.2698680878e+01    4.1053600311e+00
    5.2798683167e+01    4.1264801025e+00
    5.2898925781e+01    4.1476001740e+00
    5.2998336792e+01    4.1684803963e+00
    5.3098972321e+01    4.1895799637e+00
    5.3199756622e+01    4.2106499672e+00
    5.3299705505e+01    4.2315101624e+00
    5.3398967743e+01    4.2521800995e+00
    5.3498081207e+01    4.2727899551e+00
    5.3597942352e+01    4.2935299873e+00
    5.3698688507e+01    4.3144202232e+00
    5.3799427032e+01    4.3352799416e+00
    5.3898696899e+01    4.3557996750e+00
    5.3997852325e+01    4.3762698174e+00
    5.4098926544e+01    4.3971204758e+00
    5.4199199677e+01    4.4177703857e+00
    5.4299488068e+01    4.4383902550e+00
    5.4399444580e+01    4.4589300156e+00
    5.4498874664e+01    4.4793100357e+00
    5.4599510193e+01    4.4998998642e+00
    5.4697708130e+01    4.5199499130e+00
    5.4798896790e+01    4.5405797958e+00
    5.4899265289e+01    4.5609598160e+00
    5.4998733521e+01    4.5811300278e+00
    5.5098186493e+01    4.6012196541e+00
    5.5199020386e+01    4.6215300560e+00
    5.5298252106e+01    4.6414499283e+00
    5.5398723602e+01    4.6615500450e+00
    5.5498664856e+01    4.6814799309e+00
    5.5598934174e+01    4.7013797760e+00
    5.5699199677e+01    4.7212200165e+00
    5.5798797607e+01    4.7408504486e+00
    5.5898223877e+01    4.7603497505e+00
    5.5998676300e+01    4.7799701691e+00
    5.6099124908e+01    4.7995100021e+00
    5.6199584961e+01    4.8189702034e+00
    5.6297779083e+01    4.8379001617e+00
    5.6398277283e+01    4.8571896553e+00
    5.6499656677e+01    4.8765697479e+00
    5.6598178864e+01    4.8952999115e+00
    5.6698722839e+01    4.9143400192e+00
    5.6799278259e+01    4.9332799911e+00
    5.6897842407e+01    4.9517602921e+00
    5.6998920441e+01    4.9706201553e+00
    5.7099506378e+01    4.9893198013e+00
    5.7198726654e+01    5.0076599121e+00
    5.7299350739e+01    5.0261802673e+00
    5.7397956848e+01    5.0442600250e+00
    5.7499572754e+01    5.0627999306e+00
    5.7598880768e+01    5.0808401108e+00
    5.7698261261e+01    5.0988197327e+00
    5.7798713684e+01    5.1169199944e+00
    5.7899173737e+01    5.1349301338e+00
    5.7999431610e+01    5.1528401375e+00
    5.8097606659e+01    5.1702899933e+00
    5.8199443817e+01    5.1883101463e+00
    5.8298030853e+01    5.2056798935e+00
    5.8398441315e+01    5.2232899666e+00
    5.8497840881e+01    5.2406401634e+00
    5.8597908020e+01    5.2580299377e+00
    5.8699375153e+01    5.2755699158e+00
    5.8799114227e+01    5.2927398682e+00
    5.8899513245e+01    5.3099598885e+00
    5.8997829437e+01    5.3267402649e+00
    5.9097881317e+01    5.3437399864e+00
    5.9198299408e+01    5.3607301712e+00
    5.9299518585e+01    5.3777899742e+00
    5.9398120880e+01    5.3943395615e+00
    5.9498588562e+01    5.4111399651e+00
    5.9599578857e+01    5.4279699326e+00
    5.9698368073e+01    5.4443597794e+00
    5.9797969818e+01    5.4608397484e+00
    5.9899490356e+01    5.4775800705e+00
    5.9998550415e+01    5.4938597679e+00
    6.0098800659e+01    5.5213999748e+00
    6.0197673798e+01    5.5486798286e+00
    6.0299591064e+01    5.5767397881e+00
    6.0399276733e+01    5.6041698456e+00
    6.0498588562e+01    5.6314601898e+00
    6.0599491119e+01    5.6591701508e+00
    6.0698345184e+01    5.6862897873e+00
    6.0798645020e+01    5.7137899399e+00
    6.0899639130e+01    5.7414703369e+00
    6.0997974396e+01    5.7683801651e+00
    6.1097682953e+01    5.7956495285e+00
    6.1198387146e+01    5.8231697083e+00
    6.1297801971e+01    5.8503007889e+00
    6.1398715973e+01    5.8778100014e+00
    6.1497650146e+01    5.9047498703e+00
    6.1598873138e+01    5.9322700500e+00
    6.1698242188e+01    5.9592304230e+00
    6.1798027039e+01    5.9862604141e+00
    6.1898254395e+01    6.0133705139e+00
    6.1998786926e+01    6.0405101776e+00
    6.2099498749e+01    6.0676202774e+00
    6.2199020386e+01    6.0943698883e+00
    6.2298179626e+01    6.1209602356e+00
    6.2398490906e+01    6.1477899551e+00
    6.2499271393e+01    6.1746897697e+00
    6.2597793579e+01    6.2009201050e+00
    6.2699069977e+01    6.2278203964e+00
    6.2799461365e+01    6.2544202805e+00
    6.2898593903e+01    6.2806100845e+00
    6.2999542236e+01    6.3072199821e+00
    6.3098785400e+01    6.3333101273e+00
    6.3197685242e+01    6.3592495918e+00
    6.3297672272e+01    6.3854203224e+00
    6.3398708344e+01    6.4118003845e+00
    6.3499557495e+01    6.4380803108e+00
    6.3599258423e+01    6.4640197754e+00
    6.3698112488e+01    6.4896898270e+00
    6.3798973083e+01    6.5158400536e+00
    6.3897838593e+01    6.5414400101e+00
    6.3998752594e+01    6.5675196648e+00
    6.4099327087e+01    6.5934696198e+00
    6.4197654724e+01    6.6188001633e+00
    6.4298240662e+01    6.6446800232e+00
    6.4398399353e+01    6.6703901291e+00
    6.4499412537e+01    6.6962699890e+00
    6.4598121643e+01    6.7215104103e+00
    6.4698661804e+01    6.7471599579e+00
    6.4798332214e+01    6.7725305557e+00
    6.4898757935e+01    6.7980108261e+00
    6.4997772217e+01    6.8230504990e+00
    6.5099143982e+01    6.8486104012e+00
    6.5197891235e+01    6.8734197617e+00
    6.5299224854e+01    6.8987998962e+00
    6.5397705078e+01    6.9233603477e+00
    6.5497535706e+01    6.9481592178e+00
    6.5597808838e+01    6.9729695320e+00
    6.5697944641e+01    6.9976491928e+00
    6.5799468994e+01    7.0225601196e+00
    6.5899177551e+01    7.0469293594e+00
    6.5997619629e+01    7.0708603859e+00
    6.6098075867e+01    7.0951294899e+00
    6.6198547363e+01    7.1192798615e+00
    6.6297752380e+01    7.1431398392e+00
    6.6398277283e+01    7.1670603752e+00
    6.6498817444e+01    7.1909494400e+00
    6.6599380493e+01    7.2147197723e+00
    6.6697944641e+01    7.2378396988e+00
    6.6798538208e+01    7.2613697052e+00
    6.6899154663e+01    7.2847900391e+00
    6.6997772217e+01    7.3076601028e+00
    6.7098403931e+01    7.3308396339e+00
    6.7197799683e+01    7.3536500931e+00
    6.7299232483e+01    7.3767700195e+00
    6.7397903442e+01    7.3992099762e+00
    6.7499450684e+01    7.4221997261e+00
    6.7598495483e+01    7.4444599152e+00
    6.7698562622e+01    7.4669299126e+00
    6.7799079895e+01    7.4894104004e+00
    6.7899513245e+01    7.5117101669e+00
    6.7997550964e+01    7.5333700180e+00
    6.8097465515e+01    7.5553598404e+00
    6.8197738647e+01    7.5773897171e+00
    6.8298423767e+01    7.5993299484e+00
    6.8399162292e+01    7.6212501526e+00
    6.8497413635e+01    7.6424598694e+00
    6.8597419739e+01    7.6639099121e+00
    6.8698593140e+01    7.6856298447e+00
    6.8797821045e+01    7.7067298889e+00
    6.8898292542e+01    7.7279901505e+00
    6.8998565674e+01    7.7491803169e+00
    6.9098815918e+01    7.7701902390e+00
    6.9199317932e+01    7.7912502289e+00
    6.9297958374e+01    7.8117995262e+00
    6.9398658752e+01    7.8326396942e+00
    6.9497528076e+01    7.8530797958e+00
    6.9598785400e+01    7.8738393784e+00
    6.9699012756e+01    7.8944396973e+00
    6.9798469543e+01    7.9147400856e+00
    6.9897918701e+01    7.9349594116e+00
    6.9998741150e+01    7.9554500580e+00
    7.0098770142e+01    7.9866394997e+00
    7.0197593689e+01    8.0175399780e+00
    7.0299331665e+01    8.0493698120e+00
    7.0398887634e+01    8.0804300308e+00
    7.0498146057e+01    8.1114196777e+00
    7.0598922729e+01    8.1427602768e+00
    7.0697723389e+01    8.1734895706e+00
    7.0797935486e+01    8.2046899796e+00
    7.0898986816e+01    8.2361001968e+00
    7.0997436523e+01    8.2666301727e+00
    7.1099281311e+01    8.2982196808e+00
    7.1197463989e+01    8.3286495209e+00
    7.1298927307e+01    8.3600502014e+00
    7.1398429871e+01    8.3908300400e+00
    7.1497489929e+01    8.4214706421e+00
    7.1598602295e+01    8.4526100159e+00
    7.1697875977e+01    8.4832000732e+00
    7.1797737122e+01    8.5139102936e+00
    7.1898521423e+01    8.5447502136e+00
    7.1998237610e+01    8.5752696991e+00
    7.2098480225e+01    8.6058998108e+00
    7.2197616577e+01    8.6361007690e+00
    7.2298660278e+01    8.6668090820e+00
    7.2398811340e+01    8.6971397400e+00
    7.2499229431e+01    8.7275304794e+00
    7.2599159241e+01    8.7576599121e+00
    7.2698158264e+01    8.7874202728e+00
    7.2798927307e+01    8.8175907135e+00
    7.2898223877e+01    8.8473205566e+00
    7.2999290466e+01    8.8774595261e+00
    7.3098312378e+01    8.9069795609e+00
    7.3199340820e+01    8.9368600845e+00
    7.3297927856e+01    8.9660301208e+00
    7.3398887634e+01    8.9958801270e+00
    7.3499389648e+01    9.0254802704e+00
    7.3599090576e+01    9.0547895432e+00
    7.3698051453e+01    9.0838203430e+00
    7.3799026489e+01    9.1134300232e+00
    7.3897460938e+01    9.1421699524e+00
    7.3998039246e+01    9.1714591980e+00
    7.4099250793e+01    9.2009401321e+00
    7.4197731018e+01    9.2295999527e+00
    7.4298301697e+01    9.2587203979e+00
    7.4398780823e+01    9.2877998352e+00
    7.4497955322e+01    9.3164196014e+00
    7.4598747253e+01    9.3454904556e+00
    7.4698951721e+01    9.3742198944e+00
    7.4799346924e+01    9.4030199051e+00
    7.4897666931e+01    9.4310207367e+00
    7.4997718811e+01    9.4595203400e+00
    7.5097938538e+01    9.4879703522e+00
    7.5198051453e+01    9.5162401199e+00
    7.5297737122e+01    9.5443000793e+00
    7.5398223877e+01    9.5724401474e+00
    7.5498619080e+01    9.6003904343e+00
    7.5598892212e+01    9.6282405853e+00
    7.5698959351e+01    9.6559000015e+00
    7.5798217773e+01    9.6832399368e+00
    7.5898078918e+01    9.7104892731e+00
    7.5998512268e+01    9.7378501892e+00
    7.6098945618e+01    9.7650794983e+00
    7.6198135376e+01    9.7917804718e+00
    7.6299026489e+01    9.8188095093e+00
    7.6397537231e+01    9.8451099396e+00
    7.6498077393e+01    9.8717594147e+00
    7.6598640442e+01    9.8982601166e+00
    7.6699226379e+01    9.9247198105e+00
    7.6797813416e+01    9.9504594803e+00
    7.6898445129e+01    9.9766397476e+00
    7.6999084473e+01    1.0002670288e+01
    7.7097724915e+01    1.0028018951e+01
    7.7197547913e+01    1.0053520203e+01
    7.7297508240e+01    1.0079059601e+01
    7.7398239136e+01    1.0104579926e+01
    7.7499069214e+01    1.0130050659e+01
    7.7597511292e+01    1.0154749870e+01
    7.7697578430e+01    1.0179789543e+01
    7.7798149109e+01    1.0204779625e+01
    7.7898727417e+01    1.0229749680e+01
    7.7999000549e+01    1.0254489899e+01
    7.8099029541e+01    1.0278970718e+01
    7.8198097229e+01    1.0303209305e+01
    7.8298843384e+01    1.0327650070e+01
    7.8397895813e+01    1.0351650238e+01
    7.8498397827e+01    1.0375820160e+01
    7.8598243713e+01    1.0399739265e+01
    7.8699134827e+01    1.0423749924e+01
    7.8798233032e+01    1.0447151184e+01
    7.8898757935e+01    1.0470930099e+01
    7.8999099731e+01    1.0494440079e+01
    7.9098800659e+01    1.0517720222e+01
    7.9197227478e+01    1.0540569305e+01
    7.9298713684e+01    1.0564019203e+01
    7.9397483826e+01    1.0586769104e+01
    7.9498268127e+01    1.0609930038e+01
    7.9597702026e+01    1.0632600784e+01
    7.9698463440e+01    1.0655591011e+01
    7.9798706055e+01    1.0678350449e+01
    7.9898254395e+01    1.0700849533e+01
    7.9999183655e+01    1.0723569870e+01
    8.0099342346e+01    1.0757760048e+01
    8.0198188782e+01    1.0791599274e+01
    8.0297851562e+01    1.0825539589e+01
    8.0397384644e+01    1.0859479904e+01
    8.0498878479e+01    1.0894100189e+01
    8.0597755432e+01    1.0927769661e+01
    8.0698669434e+01    1.0962110519e+01
    8.0798789978e+01    1.0996059418e+01
    8.0897834778e+01    1.1029720306e+01
    8.0998413086e+01    1.1063899994e+01
    8.1098167419e+01    1.1097699165e+01
    8.1198059082e+01    1.1131629944e+01
    8.1297584534e+01    1.1165239334e+01
    8.1399230957e+01    1.1199668884e+01
    8.1498573303e+01    1.1233260155e+01
    8.1597755432e+01    1.1266750336e+01
    8.1699058533e+01    1.1300840378e+01
    8.1798805237e+01    1.1334349632e+01
    8.1897491455e+01    1.1367519379e+01
    8.1998199463e+01    1.1401209831e+01
    8.2097534180e+01    1.1434450150e+01
    8.2198646545e+01    1.1468160629e+01
    8.2297843933e+01    1.1501179695e+01
    8.2397819519e+01    1.1534368515e+01
    8.2497947693e+01    1.1567440033e+01
    8.2597587585e+01    1.1600370407e+01
    8.2698677063e+01    1.1633668900e+01
    8.2798019409e+01    1.1666319847e+01
    8.2899147034e+01    1.1699409485e+01
    8.2998252869e+01    1.1731750488e+01
    8.3097335815e+01    1.1763999939e+01
    8.3198417664e+01    1.1796830177e+01
    8.3297454834e+01    1.1828920364e+01
    8.3398284912e+01    1.1861469269e+01
    8.3498504639e+01    1.1893838882e+01
    8.3598274231e+01    1.1925880432e+01
    8.3697303772e+01    1.1957698822e+01
    8.3798347473e+01    1.1990100861e+01
    8.3898452759e+01    1.2022039413e+01
    8.3998771667e+01    1.2054049492e+01
    8.4097610474e+01    1.2085578918e+01
    8.4198112488e+01    1.2117489815e+01
    8.4298561096e+01    1.2149360657e+01
    8.4398628235e+01    1.2180990219e+01
    8.4497459412e+01    1.2212229729e+01
    8.4598266602e+01    1.2243950844e+01
    8.4698417664e+01    1.2275388718e+01
    8.4797554016e+01    1.2306369781e+01
    8.4898002625e+01    1.2337711334e+01
    8.4997154236e+01    1.2368570328e+01
    8.5098831177e+01    1.2400070190e+01
    8.5197196960e+01    1.2430339813e+01
    8.5298828125e+01    1.2461579323e+01
    8.5397277832e+01    1.2491659164e+01
    8.5498176575e+01    1.2522270203e+01
    8.5598411560e+01    1.2552659988e+01
    8.5698425293e+01    1.2582759857e+01
    8.5797668457e+01    1.2612479210e+01
    8.5897262573e+01    1.2642119408e+01
    8.5997642517e+01    1.2671930313e+01
    8.6098022461e+01    1.2701479912e+01
    8.6199165344e+01    1.2731210709e+01
    8.6298286438e+01    1.2760090828e+01
    8.6398757935e+01    1.2789239883e+01
    8.6497253418e+01    1.2817629814e+01
    8.6597785950e+01    1.2846549988e+01
    8.6698348999e+01    1.2875210762e+01
    8.6798927307e+01    1.2903810501e+01
    8.6897521973e+01    1.2931679726e+01
    8.6998008728e+01    1.2959930420e+01
    8.7097480774e+01    1.2987709045e+01
    8.7199012756e+01    1.3015999794e+01
    8.7298263550e+01    1.3043499947e+01
    8.7399002075e+01    1.3071319580e+01
    8.7498977661e+01    1.3098790169e+01
    8.7597389221e+01    1.3125720024e+01
    8.7698982239e+01    1.3153348923e+01
    8.7797431946e+01    1.3180019379e+01
    8.7898033142e+01    1.3207169533e+01
    8.7998367310e+01    1.3234099388e+01
    8.8098220825e+01    1.3260779381e+01
    8.8198577881e+01    1.3287439346e+01
    8.8297332764e+01    1.3313579559e+01
    8.8398300171e+01    1.3340159416e+01
    8.8498825073e+01    1.3366569519e+01
    8.8598434448e+01    1.3392489433e+01
    8.8699089050e+01    1.3418589592e+01
    8.8797904968e+01    1.3444160461e+01
    8.8898475647e+01    1.3469940186e+01
    8.8999099731e+01    1.3495679855e+01
    8.9097602844e+01    1.3520811081e+01
    8.9198226929e+01    1.3546310425e+01
    8.9298820496e+01    1.3571710587e+01
    8.9397926331e+01    1.3596589088e+01
    8.9498771667e+01    1.3621780396e+01
    8.9597633362e+01    1.3646459579e+01
    8.9697586060e+01    1.3671319962e+01
    8.9798973083e+01    1.3696339607e+01
    8.9898147583e+01    1.3720849991e+01
    8.9999160767e+01    1.3745779037e+01
    9.0097259521e+01    1.3784000397e+01
    9.0198120117e+01    1.3823389053e+01
    9.0297683716e+01    1.3862240791e+01
    9.0399131775e+01    1.3901819229e+01
    9.0498565674e+01    1.3940461159e+01
    9.0597503662e+01    1.3978990555e+01
    9.0698234558e+01    1.4018280029e+01
    9.0798393250e+01    1.4057189941e+01
    9.0897216797e+01    1.4095621109e+01
    9.0997528076e+01    1.4134599686e+01
    9.1097534180e+01    1.4173500061e+01
    9.1199119568e+01    1.4213000298e+01
    9.1298919678e+01    1.4251700401e+01
    9.1398345947e+01    1.4290300369e+01
    9.1497810364e+01    1.4328899384e+01
    9.1597274780e+01    1.4367400169e+01
    9.1698348999e+01    1.4406498909e+01
    9.1797943115e+01    1.4445000648e+01
    9.1898361206e+01    1.4483700752e+01
    9.1998710632e+01    1.4522400856e+01
    9.2098670959e+01    1.4560799599e+01
    9.2197799683e+01    1.4598700523e+01
    9.2297500610e+01    1.4636899948e+01
    9.2397270203e+01    1.4674999237e+01
    9.2497146606e+01    1.4713099480e+01
    9.2598716736e+01    1.4751699448e+01
    9.2697563171e+01    1.4789199829e+01
    9.2799087524e+01    1.4827700615e+01
    9.2898223877e+01    1.4864999771e+01
    9.2997360229e+01    1.4902399063e+01
    9.3098487854e+01    1.4940300941e+01
    9.3197570801e+01    1.4977399826e+01
    9.3298645020e+01    1.5015199661e+01
    9.3397590637e+01    1.5052099228e+01
    9.3497581482e+01    1.5089300156e+01
    9.3597373962e+01    1.5126399994e+01
    9.3698448181e+01    1.5163899422e+01
    9.3797485352e+01    1.5200499535e+01
    9.3898063660e+01    1.5237700462e+01
    9.3998168945e+01    1.5274699211e+01
    9.4098831177e+01    1.5311700821e+01
    9.4197235107e+01    1.5347899437e+01
    9.4297615051e+01    1.5384699821e+01
    9.4397552490e+01    1.5421298981e+01
    9.4498397827e+01    1.5458100319e+01
    9.4597183228e+01    1.5494198799e+01
    9.4697586060e+01    1.5530599594e+01
    9.4798522949e+01    1.5567199707e+01
    9.4898948669e+01    1.5603499413e+01
    9.4998558044e+01    1.5639299393e+01
    9.5098770142e+01    1.5675200462e+01
    9.5197601318e+01    1.5710499763e+01
    9.5297447205e+01    1.5745999336e+01
    9.5397842407e+01    1.5781600952e+01
    9.5498519897e+01    1.5817100525e+01
    9.5598686218e+01    1.5852099419e+01
    9.5698699951e+01    1.5887099266e+01
    9.5797882080e+01    1.5921499252e+01
    9.5897994995e+01    1.5956099510e+01
    9.5998298645e+01    1.5990500450e+01
    9.6099105835e+01    1.6024900436e+01
    9.6198791504e+01    1.6058799744e+01
    9.6297157288e+01    1.6092201233e+01
    9.6397583008e+01    1.6125900269e+01
    9.6498054504e+01    1.6159500122e+01
    9.6598564148e+01    1.6193099976e+01
    9.6697082520e+01    1.6225700378e+01
    9.6797630310e+01    1.6258899689e+01
    9.6898208618e+01    1.6291900635e+01
    9.6997657776e+01    1.6324401855e+01
    9.7097152710e+01    1.6356800079e+01
    9.7198387146e+01    1.6389598846e+01
    9.7297431946e+01    1.6421501160e+01
    9.7398178101e+01    1.6453899384e+01
    9.7499053955e+01    1.6486200333e+01
    9.7597404480e+01    1.6517501831e+01
    9.7698837280e+01    1.6549800873e+01
    9.7797302246e+01    1.6580898285e+01
    9.7897918701e+01    1.6612499237e+01
    9.7998336792e+01    1.6644100189e+01
    9.8097831726e+01    1.6675100327e+01
    9.8198570251e+01    1.6706399918e+01
    9.8297325134e+01    1.6737100601e+01
    9.8398536682e+01    1.6768299103e+01
    9.8499061584e+01    1.6799100876e+01
    9.8598472595e+01    1.6829599380e+01
    9.8698883057e+01    1.6860200882e+01
    9.8797882080e+01    1.6890100479e+01
    9.8898460388e+01    1.6920499802e+01
    9.8997726440e+01    1.6950300217e+01
    9.9098762512e+01    1.6980598450e+01
    9.9197280884e+01    1.7010000229e+01
    9.9297790527e+01    1.7039899826e+01
    9.9397377014e+01    1.7069398880e+01
    9.9498268127e+01    1.7099100113e+01
    9.9597183228e+01    1.7128200531e+01
    9.9697731018e+01    1.7157699585e+01
    9.9797698975e+01    1.7187000275e+01
    9.9898788452e+01    1.7216499329e+01
    9.9997863770e+01    1.7245300293e+01
    1.0009793854e+02    1.7291599274e+01
    1.0019891357e+02    1.7338800430e+01
    1.0029840088e+02    1.7385101318e+01
    1.0039762878e+02    1.7431299210e+01
    1.0049706268e+02    1.7477600098e+01
    1.0059812927e+02    1.7524599075e+01
    1.0069702911e+02    1.7570699692e+01
    1.0079696655e+02    1.7617301941e+01
    1.0089778900e+02    1.7664199829e+01
    1.0099755859e+02    1.7710601807e+01
    1.0109745789e+02    1.7757099152e+01
    1.0119873047e+02    1.7804298401e+01
    1.0129843140e+02    1.7850599289e+01
    1.0139746857e+02    1.7896701813e+01
    1.0149851227e+02    1.7943599701e+01
    1.0159795380e+02    1.7989801407e+01
    1.0169882965e+02    1.8036600113e+01
    1.0179828644e+02    1.8082698822e+01
    1.0189882660e+02    1.8129199982e+01
    1.0199703217e+02    1.8174600601e+01
    1.0209732056e+02    1.8220901489e+01
    1.0219748688e+02    1.8267101288e+01
    1.0229852295e+02    1.8313499451e+01
    1.0239785767e+02    1.8359201431e+01
    1.0249742126e+02    1.8404800415e+01
    1.0259876251e+02    1.8451202393e+01
    1.0269750214e+02    1.8496301651e+01
    1.0279778290e+02    1.8541900635e+01
    1.0289897156e+02    1.8587898254e+01
    1.0299813080e+02    1.8632799149e+01
    1.0309726715e+02    1.8677700043e+01
    1.0319838715e+02    1.8723300934e+01
    1.0329744720e+02    1.8768001556e+01
    1.0339803314e+02    1.8813199997e+01
    1.0349788666e+02    1.8857997894e+01
    1.0359757996e+02    1.8902797699e+01
    1.0369864655e+02    1.8947898865e+01
    1.0379770660e+02    1.8992202759e+01
    1.0389817047e+02    1.9037099838e+01
    1.0399803925e+02    1.9081598282e+01
    1.0409745789e+02    1.9125900269e+01
    1.0419802094e+02    1.9170499802e+01
    1.0429865265e+02    1.9215198517e+01
    1.0439865112e+02    1.9259500504e+01
    1.0449745941e+02    1.9303201675e+01
    1.0459824371e+02    1.9347600937e+01
    1.0469860840e+02    1.9391698837e+01
    1.0479772186e+02    1.9435199738e+01
    1.0489810944e+02    1.9479099274e+01
    1.0499841309e+02    1.9522798538e+01
    1.0509858704e+02    1.9566299438e+01
    1.0519731903e+02    1.9608999252e+01
    1.0529698944e+02    1.9651901245e+01
    1.0539730835e+02    1.9694999695e+01
    1.0549777222e+02    1.9737901688e+01
    1.0559786224e+02    1.9780399323e+01
    1.0569785309e+02    1.9822799683e+01
    1.0579740906e+02    1.9864801407e+01
    1.0589817047e+02    1.9906997681e+01
    1.0599842072e+02    1.9948801041e+01
    1.0609754181e+02    1.9989997864e+01
    1.0619882202e+02    2.0031799316e+01
    1.0629714966e+02    2.0072198868e+01
    1.0639755249e+02    2.0113300323e+01
    1.0649800873e+02    2.0154199600e+01
    1.0659851074e+02    2.0194900513e+01
    1.0669702911e+02    2.0234699249e+01
    1.0679757690e+02    2.0275100708e+01
    1.0689733124e+02    2.0315000534e+01
    1.0699730682e+02    2.0354801178e+01
    1.0709716034e+02    2.0394401550e+01
    1.0719835663e+02    2.0434301376e+01
    1.0729762268e+02    2.0473501205e+01
    1.0739839935e+02    2.0512901306e+01
    1.0749803162e+02    2.0551900864e+01
    1.0759813690e+02    2.0590799332e+01
    1.0769702911e+02    2.0629201889e+01
    1.0779769135e+02    2.0668098450e+01
    1.0789836121e+02    2.0706899643e+01
    1.0799880219e+02    2.0745500565e+01
    1.0809809113e+02    2.0783500671e+01
    1.0819786072e+02    2.0821599960e+01
    1.0829866791e+02    2.0859899521e+01
    1.0839803314e+02    2.0897499084e+01
    1.0849858093e+02    2.0935499191e+01
    1.0859761047e+02    2.0972702026e+01
    1.0869766235e+02    2.1010099411e+01
    1.0879873657e+02    2.1047800064e+01
    1.0889721680e+02    2.1084499359e+01
    1.0899880219e+02    2.1122100830e+01
    1.0909736633e+02    2.1158601761e+01
    1.0919795990e+02    2.1195598602e+01
    1.0929850006e+02    2.1232500076e+01
    1.0939861298e+02    2.1269102097e+01
    1.0949755859e+02    2.1305099487e+01
    1.0959857178e+02    2.1341901779e+01
    1.0969856262e+02    2.1378299713e+01
    1.0979805756e+02    2.1414300919e+01
    1.0989807892e+02    2.1450498581e+01
    1.0999726105e+02    2.1486299515e+01
    1.1009728241e+02    2.1543199539e+01
    1.1019808197e+02    2.1601100922e+01
    1.1029727173e+02    2.1658000946e+01
    1.1039814758e+02    2.1715902328e+01
    1.1049738312e+02    2.1772800446e+01
    1.1059838867e+02    2.1830801010e+01
    1.1069702911e+02    2.1887401581e+01
    1.1079875183e+02    2.1945798874e+01
    1.1089732361e+02    2.2002300262e+01
    1.1099829865e+02    2.2060298920e+01
    1.1109825134e+02    2.2117698669e+01
    1.1119698334e+02    2.2174398422e+01
    1.1129715729e+02    2.2231998444e+01
    1.1139816284e+02    2.2289899826e+01
    1.1149851227e+02    2.2347497940e+01
    1.1159812164e+02    2.2404500961e+01
    1.1169847870e+02    2.2461999893e+01
    1.1179792023e+02    2.2518899918e+01
    1.1189813232e+02    2.2576101303e+01
    1.1199812317e+02    2.2633199692e+01
    1.1209838104e+02    2.2690399170e+01
    1.1219821167e+02    2.2747299194e+01
    1.1229782867e+02    2.2803802490e+01
    1.1239859009e+02    2.2861000061e+01
    1.1249768066e+02    2.2917100906e+01
    1.1259861755e+02    2.2974201202e+01
    1.1269741821e+02    2.3029899597e+01
    1.1279798889e+02    2.3086400986e+01
    1.1289723206e+02    2.3142299652e+01
    1.1299848938e+02    2.3198902130e+01
    1.1309768677e+02    2.3254499435e+01
    1.1319683838e+02    2.3309799194e+01
    1.1329797363e+02    2.3366098404e+01
    1.1339833832e+02    2.3422000885e+01
    1.1349767303e+02    2.3477197647e+01
    1.1359710693e+02    2.3532402039e+01
    1.1369822693e+02    2.3588300705e+01
    1.1379731750e+02    2.3643100739e+01
    1.1389781952e+02    2.3698598862e+01
    1.1399732208e+02    2.3753498077e+01
    1.1409726715e+02    2.3808601379e+01
    1.1419766235e+02    2.3863700867e+01
    1.1429837036e+02    2.3919099808e+01
    1.1439779663e+02    2.3973600388e+01
    1.1449864197e+02    2.4028800964e+01
    1.1459739685e+02    2.4082700729e+01
    1.1469763184e+02    2.4137201309e+01
    1.1479746246e+02    2.4191501617e+01
    1.1489782715e+02    2.4245899200e+01
    1.1499810028e+02    2.4299999237e+01
    1.1509819794e+02    2.4353801727e+01
    1.1519879150e+02    2.4407798767e+01
    1.1529727936e+02    2.4460399628e+01
    1.1539756775e+02    2.4513700485e+01
    1.1549771118e+02    2.4566801071e+01
    1.1559777832e+02    2.4619598389e+01
    1.1569779968e+02    2.4672000885e+01
    1.1579750061e+02    2.4724201202e+01
    1.1589701080e+02    2.4775901794e+01
    1.1599759674e+02    2.4827999115e+01
    1.1609822083e+02    2.4879798889e+01
    1.1619699860e+02    2.4930501938e+01
    1.1629736328e+02    2.4981700897e+01
    1.1639779663e+02    2.5032699585e+01
    1.1649830627e+02    2.5083499908e+01
    1.1659686279e+02    2.5133201599e+01
    1.1669745636e+02    2.5183700562e+01
    1.1679810333e+02    2.5233901978e+01
    1.1689797211e+02    2.5283601761e+01
    1.1699820709e+02    2.5333202362e+01
    1.1709780121e+02    2.5382299423e+01
    1.1719853210e+02    2.5431798935e+01
    1.1729685974e+02    2.5479999542e+01
    1.1739775848e+02    2.5529199600e+01
    1.1749775696e+02    2.5577898026e+01
    1.1759709930e+02    2.5625999451e+01
    1.1769738007e+02    2.5674499512e+01
    1.1779820251e+02    2.5723098755e+01
    1.1789688110e+02    2.5770502090e+01
    1.1799742889e+02    2.5818599701e+01
    1.1809696198e+02    2.5866197586e+01
    1.1819686127e+02    2.5913801193e+01
    1.1829779816e+02    2.5961599350e+01
    1.1839765167e+02    2.6008798599e+01
    1.1849830627e+02    2.6056299210e+01
    1.1859697723e+02    2.6102600098e+01
    1.1869850159e+02    2.6150098801e+01
    1.1879739380e+02    2.6196300507e+01
    1.1889813232e+02    2.6243198395e+01
    1.1899855804e+02    2.6289701462e+01
    1.1909863281e+02    2.6335998535e+01
    1.1919841003e+02    2.6381999969e+01
    1.1929839325e+02    2.6427999496e+01
    1.1939674377e+02    2.6473102570e+01
    1.1949784088e+02    2.6519401550e+01
    1.1959696960e+02    2.6564701080e+01
    1.1969860840e+02    2.6610898972e+01
    1.1979730988e+02    2.6655899048e+01
    1.1989704132e+02    2.6701099396e+01
    1.1999839783e+02    2.6747100830e+01
    1.2009832764e+02    2.6815500259e+01
    1.2019702911e+02    2.6883501053e+01
    1.2029798126e+02    2.6952898026e+01
    1.2039840698e+02    2.7022001266e+01
    1.2049746704e+02    2.7090200424e+01
    1.2059839630e+02    2.7159702301e+01
    1.2069819641e+02    2.7228300095e+01
    1.2079762268e+02    2.7296699524e+01
    1.2089765930e+02    2.7365501404e+01
    1.2099774170e+02    2.7434400558e+01
    1.2109789276e+02    2.7503398895e+01
    1.2119673920e+02    2.7571500778e+01
    1.2129785156e+02    2.7641000748e+01
    1.2139811707e+02    2.7710000992e+01
    1.2149752808e+02    2.7778301239e+01
    1.2159797668e+02    2.7847299576e+01
    1.2169786072e+02    2.7915802002e+01
    1.2179691315e+02    2.7983800888e+01
    1.2189707184e+02    2.8052398682e+01
    1.2199713898e+02    2.8120698929e+01
    1.2209689331e+02    2.8188898087e+01
    1.2219714355e+02    2.8257099152e+01
    1.2229724121e+02    2.8325199127e+01
    1.2239733887e+02    2.8393098831e+01
    1.2249781036e+02    2.8461301804e+01
    1.2259813690e+02    2.8529001236e+01
    1.2269654846e+02    2.8595500946e+01
    1.2279759979e+02    2.8663501740e+01
    1.2289697266e+02    2.8730201721e+01
    1.2299835205e+02    2.8798101425e+01
    1.2309765625e+02    2.8864501953e+01
    1.2319690704e+02    2.8930698395e+01
    1.2329840088e+02    2.8998201370e+01
    1.2339856720e+02    2.9064899445e+01
    1.2349729919e+02    2.9130199432e+01
    1.2359677124e+02    2.9196201324e+01
    1.2369796753e+02    2.9263000488e+01
    1.2379714966e+02    2.9328399658e+01
    1.2389746094e+02    2.9394498825e+01
    1.2399844360e+02    2.9460899353e+01
    1.2409735107e+02    2.9525899887e+01
    1.2419724274e+02    2.9591299057e+01
    1.2429802704e+02    2.9657300949e+01
    1.2439720154e+02    2.9722000122e+01
    1.2449810028e+02    2.9787702560e+01
    1.2459691620e+02    2.9851900101e+01
    1.2469676971e+02    2.9916698456e+01
    1.2479756165e+02    2.9981901169e+01
    1.2489794922e+02    3.0046501160e+01
    1.2499817657e+02    3.0110898972e+01
    1.2509825897e+02    3.0174999237e+01
    1.2519703674e+02    3.0238000870e+01
    1.2529727936e+02    3.0301599503e+01
    1.2539758301e+02    3.0364999771e+01
    1.2549745941e+02    3.0427902222e+01
    1.2559719849e+02    3.0490400314e+01
    1.2569714355e+02    3.0552799225e+01
    1.2579704285e+02    3.0614799500e+01
    1.2589768982e+02    3.0677000046e+01
    1.2599817657e+02    3.0738798141e+01
    1.2609848785e+02    3.0800199509e+01
    1.2619735718e+02    3.0860502243e+01
    1.2629781342e+02    3.0921300888e+01
    1.2639836121e+02    3.0981998444e+01
    1.2649697113e+02    3.1041299820e+01
    1.2659767151e+02    3.1101400375e+01
    1.2669843292e+02    3.1161499023e+01
    1.2679721832e+02    3.1219999313e+01
    1.2689694977e+02    3.1278800964e+01
    1.2699684143e+02    3.1337598801e+01
    1.2709783173e+02    3.1396699905e+01
    1.2719792938e+02    3.1455198288e+01
    1.2729827118e+02    3.1513500214e+01
    1.2739736938e+02    3.1570898056e+01
    1.2749735260e+02    3.1628698349e+01
    1.2759771729e+02    3.1686498642e+01
    1.2769700623e+02    3.1743400574e+01
    1.2779711914e+02    3.1800699234e+01
    1.2789821625e+02    3.1858299255e+01
    1.2799664307e+02    3.1914199829e+01
    1.2809844971e+02    3.1972000122e+01
    1.2819712830e+02    3.2027698517e+01
    1.2829666138e+02    3.2083797455e+01
    1.2839736938e+02    3.2140300751e+01
    1.2849801636e+02    3.2196598053e+01
    1.2859829712e+02    3.2252502441e+01
    1.2869683838e+02    3.2307296753e+01
    1.2879690552e+02    3.2362701416e+01
    1.2889787292e+02    3.2418601990e+01
    1.2899674988e+02    3.2472995758e+01
    1.2909796143e+02    3.2528602600e+01
    1.2919752502e+02    3.2583095551e+01
    1.2929760742e+02    3.2637798309e+01
    1.2939810181e+02    3.2692497253e+01
    1.2949838257e+02    3.2746997833e+01
    1.2959773254e+02    3.2800804138e+01
    1.2969723511e+02    3.2854698181e+01
    1.2979699707e+02    3.2908496857e+01
    1.2989854431e+02    3.2963298798e+01
    1.2999810791e+02    3.3016899109e+01
    1.3009831238e+02    3.3096000671e+01
    1.3019868469e+02    3.3175697327e+01
    1.3029705811e+02    3.3253597260e+01
    1.3039677429e+02    3.3332801819e+01
    1.3049731445e+02    3.3412502289e+01
    1.3059762573e+02    3.3492000580e+01
    1.3069827271e+02    3.3571800232e+01
    1.3079708862e+02    3.3650100708e+01
    1.3089677429e+02    3.3729198456e+01
    1.3099824524e+02    3.3809600830e+01
    1.3109829712e+02    3.3888900757e+01
    1.3119869995e+02    3.3968502045e+01
    1.3129757690e+02    3.4046802521e+01
    1.3139700317e+02    3.4125495911e+01
    1.3149786377e+02    3.4205200195e+01
    1.3159840393e+02    3.4284702301e+01
    1.3169784546e+02    3.4363101959e+01
    1.3179847717e+02    3.4442401886e+01
    1.3189700317e+02    3.4519798279e+01
    1.3199856567e+02    3.4599601746e+01
    1.3209805298e+02    3.4677600861e+01
    1.3219746399e+02    3.4755302429e+01
    1.3229762268e+02    3.4833499908e+01
    1.3239694214e+02    3.4910800934e+01
    1.3249856567e+02    3.4989696503e+01
    1.3259834290e+02    3.5066902161e+01
    1.3269854736e+02    3.5144397736e+01
    1.3279725647e+02    3.5220401764e+01
    1.3289877319e+02    3.5298503876e+01
    1.3299826050e+02    3.5374603271e+01
    1.3309779358e+02    3.5450801849e+01
    1.3319717407e+02    3.5526397705e+01
    1.3329866028e+02    3.5603500366e+01
    1.3339825439e+02    3.5679096222e+01
    1.3349783325e+02    3.5754398346e+01
    1.3359718323e+02    3.5829399109e+01
    1.3369851685e+02    3.5905696869e+01
    1.3379782104e+02    3.5980297089e+01
    1.3389804077e+02    3.6055503845e+01
    1.3399824524e+02    3.6130401611e+01
    1.3409881592e+02    3.6205501556e+01
    1.3419746399e+02    3.6278995514e+01
    1.3429811096e+02    3.6353698730e+01
    1.3439793396e+02    3.6427700043e+01
    1.3449896240e+02    3.6502502441e+01
    1.3459788513e+02    3.6575401306e+01
    1.3469799805e+02    3.6649002075e+01
    1.3479742432e+02    3.6721702576e+01
    1.3489770508e+02    3.6794898987e+01
    1.3499740601e+02    3.6867404938e+01
    1.3509823608e+02    3.6940399170e+01
    1.3519775391e+02    3.7012298584e+01
    1.3529856873e+02    3.7084594727e+01
    1.3539895630e+02    3.7156398773e+01
    1.3549867249e+02    3.7227203369e+01
    1.3559777832e+02    3.7297401428e+01
    1.3569897461e+02    3.7368602753e+01
    1.3579826355e+02    3.7438301086e+01
    1.3589898682e+02    3.7508502960e+01
    1.3599830627e+02    3.7577297211e+01
    1.3609875488e+02    3.7646598816e+01
    1.3619726562e+02    3.7714195251e+01
    1.3629786682e+02    3.7782897949e+01
    1.3639859009e+02    3.7851402283e+01
    1.3649739075e+02    3.7918304443e+01
    1.3659829712e+02    3.7986198425e+01
    1.3669726562e+02    3.8052497864e+01
    1.3679832458e+02    3.8119800568e+01
    1.3689845276e+02    3.8186397552e+01
    1.3699890137e+02    3.8252700806e+01
    1.3709817505e+02    3.8318096161e+01
    1.3719775391e+02    3.8383502960e+01
    1.3729780579e+02    3.8448902130e+01
    1.3739720154e+02    3.8513595581e+01
    1.3749880981e+02    3.8579498291e+01
    1.3759823608e+02    3.8643898010e+01
    1.3769827271e+02    3.8708396912e+01
    1.3779776001e+02    3.8772296906e+01
    1.3789799500e+02    3.8836502075e+01
    1.3799838257e+02    3.8900596619e+01
    1.3809913635e+02    3.8964694977e+01
    1.3819815063e+02    3.9027503967e+01
    1.3829905701e+02    3.9091297150e+01
    1.3839787292e+02    3.9153598785e+01
    1.3849790955e+02    3.9216400146e+01
    1.3859826660e+02    3.9279205322e+01
    1.3869767761e+02    3.9341297150e+01
    1.3879809570e+02    3.9403697968e+01
    1.3889802551e+02    3.9465599060e+01
    1.3899900818e+02    3.9527904510e+01
    1.3909851074e+02    3.9589202881e+01
    1.3919836426e+02    3.9650596619e+01
    1.3929882812e+02    3.9712100983e+01
    1.3939828491e+02    3.9772701263e+01
    1.3949819946e+02    3.9833602905e+01
    1.3959788513e+02    3.9894100189e+01
    1.3969866943e+02    3.9955196381e+01
    1.3979733276e+02    4.0014801025e+01
    1.3989802551e+02    4.0075599670e+01
    1.3999740601e+02    4.0135498047e+01
    1.4009910583e+02    4.0221397400e+01
    1.4019897461e+02    4.0306301117e+01
    1.4029873657e+02    4.0390899658e+01
    1.4039758301e+02    4.0474800110e+01
    1.4049749756e+02    4.0559604645e+01
    1.4059872437e+02    4.0645599365e+01
    1.4069830322e+02    4.0730003357e+01
    1.4079841614e+02    4.0814796448e+01
    1.4089767456e+02    4.0898902893e+01
    1.4099851990e+02    4.0984302521e+01
    1.4109838867e+02    4.1068897247e+01
    1.4119772339e+02    4.1152797699e+01
    1.4129794312e+02    4.1237602234e+01
    1.4139913940e+02    4.1323001862e+01
    1.4149925232e+02    4.1407402039e+01
    1.4159744263e+02    4.1490097046e+01
    1.4169802856e+02    4.1574596405e+01
    1.4179830933e+02    4.1658702850e+01
    1.4189877319e+02    4.1742797852e+01
    1.4199754333e+02    4.1825298309e+01
    1.4209864807e+02    4.1909500122e+01
    1.4219908142e+02    4.1993003845e+01
    1.4229934692e+02    4.2076000214e+01
    1.4239775085e+02    4.2157100677e+01
    1.4249884033e+02    4.2240398407e+01
    1.4259808350e+02    4.2321800232e+01
    1.4269949341e+02    4.2404804230e+01
    1.4279884338e+02    4.2485702515e+01
    1.4289840698e+02    4.2566501617e+01
    1.4299783325e+02    4.2646999359e+01
    1.4309913635e+02    4.2728595734e+01
    1.4319842529e+02    4.2808403015e+01
    1.4329766846e+02    4.2887901306e+01
    1.4339892578e+02    4.2968700409e+01
    1.4349810791e+02    4.3047599792e+01
    1.4359936523e+02    4.3127799988e+01
    1.4369865417e+02    4.3206497192e+01
    1.4379809570e+02    4.3284801483e+01
    1.4389790344e+02    4.3363201141e+01
    1.4399928284e+02    4.3442695618e+01
    1.4409748840e+02    4.3519397736e+01
    1.4419802856e+02    4.3597698212e+01
    1.4429890442e+02    4.3675994873e+01
    1.4439767456e+02    4.3752403259e+01
    1.4449885559e+02    4.3830402374e+01
    1.4459794617e+02    4.3906597137e+01
    1.4469787598e+02    4.3983001709e+01
    1.4479914856e+02    4.4060199738e+01
    1.4489918518e+02    4.4136100769e+01
    1.4499822998e+02    4.4210903168e+01
    1.4509933472e+02    4.4286796570e+01
    1.4519871521e+02    4.4361202240e+01
    1.4529774475e+02    4.4434898376e+01
    1.4539828491e+02    4.4509399414e+01
    1.4549827576e+02    4.4583000183e+01
    1.4559878540e+02    4.4656604767e+01
    1.4569914246e+02    4.4729602814e+01
    1.4579786682e+02    4.4801002502e+01
    1.4589845276e+02    4.4873401642e+01
    1.4599934387e+02    4.4945598602e+01
    1.4609831238e+02    4.5016002655e+01
    1.4619906616e+02    4.5087200165e+01
    1.4629789734e+02    4.5156799316e+01
    1.4639884949e+02    4.5227302551e+01
    1.4649787903e+02    4.5296298981e+01
    1.4659904480e+02    4.5366397858e+01
    1.4669828796e+02    4.5434597015e+01
    1.4679965210e+02    4.5504199982e+01
    1.4689949036e+02    4.5572196960e+01
    1.4699864197e+02    4.5639598846e+01
    1.4709968567e+02    4.5707901001e+01
    1.4719834900e+02    4.5774303436e+01
    1.4729927063e+02    4.5841999054e+01
    1.4739900208e+02    4.5908599854e+01
    1.4749801636e+02    4.5974601746e+01
    1.4759812927e+02    4.6041000366e+01
    1.4769828796e+02    4.6107101440e+01
    1.4779884338e+02    4.6173397064e+01
    1.4789961243e+02    4.6239601135e+01
    1.4799838257e+02    4.6304203033e+01
    1.4809864807e+02    4.6369598389e+01
    1.4819813538e+02    4.6434204102e+01
    1.4829945374e+02    4.6499900818e+01
    1.4839968872e+02    4.6564498901e+01
    1.4849822998e+02    4.6628002167e+01
    1.4859844971e+02    4.6692203522e+01
    1.4869874573e+02    4.6756198883e+01
    1.4879905701e+02    4.6819602966e+01
    1.4889892578e+02    4.6883403778e+01
    1.4899934387e+02    4.6947296143e+01
    1.4909915161e+02    4.7009696960e+01
    1.4919827271e+02    4.7071701050e+01
    1.4929847717e+02    4.7134201050e+01
    1.4939907837e+02    4.7197002411e+01
    1.4949874878e+02    4.7259696960e+01
    1.4959826660e+02    4.7320499420e+01
    1.4969981384e+02    4.7383499146e+01
    1.4979928589e+02    4.7444999695e+01
    1.4989863586e+02    4.7506603241e+01
    1.4999902344e+02    4.7567604065e+01
    1.5009802246e+02    4.7652400970e+01
    1.5019912720e+02    4.7738304138e+01
    1.5029800415e+02    4.7821998596e+01
    1.5039816284e+02    4.7907005310e+01
    1.5049923706e+02    4.7992698669e+01
    1.5059977722e+02    4.8078002930e+01
    1.5069880676e+02    4.8162197113e+01
    1.5079817200e+02    4.8245903015e+01
    1.5089875793e+02    4.8330997467e+01
    1.5099954224e+02    4.8416698456e+01
    1.5109889221e+02    4.8500198364e+01
    1.5119949341e+02    4.8584899902e+01
    1.5129823303e+02    4.8667896271e+01
    1.5139936829e+02    4.8752700806e+01
    1.5149955750e+02    4.8837501526e+01
    1.5159947205e+02    4.8920497894e+01
    1.5169952393e+02    4.9004100800e+01
    1.5179924011e+02    4.9086997986e+01
    1.5189842224e+02    4.9169303894e+01
    1.5199842834e+02    4.9252197266e+01
    1.5209918213e+02    4.9334903717e+01
    1.5219940186e+02    4.9417896271e+01
    1.5229937744e+02    4.9499000549e+01
    1.5239981079e+02    4.9581096649e+01
    1.5249836731e+02    4.9661502838e+01
    1.5259956360e+02    4.9742904663e+01
    1.5269815063e+02    4.9822502136e+01
    1.5279847717e+02    4.9902397156e+01
    1.5290002441e+02    4.9983299255e+01
    1.5299917603e+02    5.0062004089e+01
    1.5310008240e+02    5.0141998291e+01
    1.5319903564e+02    5.0220302582e+01
    1.5329998779e+02    5.0298496246e+01
    1.5339855957e+02    5.0375602722e+01
    1.5349908447e+02    5.0453796387e+01
    1.5359960938e+02    5.0531600952e+01
    1.5369815063e+02    5.0607799530e+01
    1.5379968262e+02    5.0685600281e+01
    1.5389941406e+02    5.0761596680e+01
    1.5399812317e+02    5.0836700439e+01
    1.5409848022e+02    5.0912097931e+01
    1.5419862366e+02    5.0987499237e+01
    1.5429850769e+02    5.1062995911e+01
    1.5439860535e+02    5.1137901306e+01
    1.5449957275e+02    5.1213203430e+01
    1.5459855652e+02    5.1285999298e+01
    1.5469961548e+02    5.1360500336e+01
    1.5480001831e+02    5.1434497833e+01
    1.5489935303e+02    5.1506603241e+01
    1.5499987793e+02    5.1579696655e+01
    1.5509832764e+02    5.1651302338e+01
    1.5519909668e+02    5.1723098755e+01
    1.5529881287e+02    5.1794101715e+01
    1.5539961243e+02    5.1866004944e+01
    1.5549832153e+02    5.1935501099e+01
    1.5559851074e+02    5.2005496979e+01
    1.5569989014e+02    5.2076198578e+01
    1.5580007935e+02    5.2145202637e+01
    1.5589828491e+02    5.2212600708e+01
    1.5599853516e+02    5.2280605316e+01
    1.5609950256e+02    5.2349098206e+01
    1.5619851685e+02    5.2416103363e+01
    1.5629965210e+02    5.2483497620e+01
    1.5639872742e+02    5.2549602509e+01
    1.5649971008e+02    5.2616394043e+01
    1.5660032654e+02    5.2682395935e+01
    1.5669871521e+02    5.2746398926e+01
    1.5679908752e+02    5.2810997009e+01
    1.5689991760e+02    5.2876701355e+01
    1.5699917603e+02    5.2940399170e+01
    1.5709951782e+02    5.3005203247e+01
    1.5719964600e+02    5.3069000244e+01
    1.5729968262e+02    5.3132705688e+01
    1.5739991760e+02    5.3195899963e+01
    1.5749865723e+02    5.3258102417e+01
    1.5759982300e+02    5.3321395874e+01
    1.5769885254e+02    5.3383804321e+01
    1.5779928589e+02    5.3446800232e+01
    1.5789837646e+02    5.3507598877e+01
    1.5799952698e+02    5.3571098328e+01
    1.5810038757e+02    5.3632797241e+01
    1.5819851685e+02    5.3693397522e+01
    1.5829962158e+02    5.3755302429e+01
    1.5839862061e+02    5.3816200256e+01
    1.5849969482e+02    5.3877700806e+01
    1.5859870911e+02    5.3938201904e+01
    1.5869990540e+02    5.3999000549e+01
    1.5879965210e+02    5.4058898926e+01
    1.5889869690e+02    5.4118698120e+01
    1.5899864197e+02    5.4177803040e+01
    1.5910011292e+02    5.4238296509e+01
    1.5919895935e+02    5.4297698975e+01
    1.5929930115e+02    5.4356597900e+01
    1.5940011597e+02    5.4416397095e+01
    1.5950015259e+02    5.4475303650e+01
    1.5959884644e+02    5.4533103943e+01
    1.5970004272e+02    5.4591804504e+01
    1.5979873657e+02    5.4649200439e+01
    1.5989913940e+02    5.4706703186e+01
    1.5999964905e+02    5.4764999390e+01
    1.6010005188e+02    5.4845199585e+01
    1.6020043945e+02    5.4925300598e+01
    1.6029864502e+02    5.5002700806e+01
    1.6040005493e+02    5.5083000183e+01
    1.6050054932e+02    5.5162498474e+01
    1.6060038757e+02    5.5240997314e+01
    1.6069873047e+02    5.5318702698e+01
    1.6079986572e+02    5.5397895813e+01
    1.6090049744e+02    5.5476699829e+01
    1.6100050354e+02    5.5555397034e+01
    1.6110000610e+02    5.5633697510e+01
    1.6120021057e+02    5.5711700439e+01
    1.6130049133e+02    5.5789398193e+01
    1.6139935303e+02    5.5866104126e+01
    1.6150039673e+02    5.5944099426e+01
    1.6160058594e+02    5.6021308899e+01
    1.6170051575e+02    5.6098495483e+01
    1.6180050659e+02    5.6174400330e+01
    1.6189976501e+02    5.6250106812e+01
    1.6199972534e+02    5.6326293945e+01
    1.6210067749e+02    5.6402603149e+01
    1.6219894409e+02    5.6475807190e+01
    1.6229876709e+02    5.6551094055e+01
    1.6239877319e+02    5.6624694824e+01
    1.6249986267e+02    5.6700210571e+01
    1.6259889221e+02    5.6772590637e+01
    1.6269929504e+02    5.6846305847e+01
    1.6279971313e+02    5.6918594360e+01
    1.6290072632e+02    5.6991401672e+01
    1.6299937439e+02    5.7062705994e+01
    1.6309986877e+02    5.7134498596e+01
    1.6320074463e+02    5.7206192017e+01
    1.6329978943e+02    5.7275596619e+01
    1.6340007019e+02    5.7345497131e+01
    1.6350033569e+02    5.7416099548e+01
    1.6360040283e+02    5.7484596252e+01
    1.6370051575e+02    5.7553703308e+01
    1.6379953003e+02    5.7622200012e+01
    1.6389888000e+02    5.7689804077e+01
    1.6399888611e+02    5.7757896423e+01
    1.6409979248e+02    5.7825195312e+01
    1.6419952393e+02    5.7892089844e+01
    1.6430067444e+02    5.7960205078e+01
    1.6439955139e+02    5.8025909424e+01
    1.6450000000e+02    5.8092407227e+01
    1.6460055542e+02    5.8158500671e+01
    1.6469935608e+02    5.8222099304e+01
    1.6479911804e+02    5.8286697388e+01
    1.6489938354e+02    5.8351997375e+01
    1.6499929810e+02    5.8415596008e+01
    1.6509931946e+02    5.8479499817e+01
    1.6519914246e+02    5.8542297363e+01
    1.6530065918e+02    5.8606704712e+01
    1.6539883423e+02    5.8667610168e+01
    1.6550044250e+02    5.8730003357e+01
    1.6560041809e+02    5.8791694641e+01
    1.6569892883e+02    5.8851707458e+01
    1.6580032349e+02    5.8913101196e+01
    1.6590005493e+02    5.8972900391e+01
    1.6600076294e+02    5.9033706665e+01
    1.6609950256e+02    5.9091499329e+01
    1.6619975281e+02    5.9150207520e+01
    1.6629977417e+02    5.9208900452e+01
    1.6639973450e+02    5.9267402649e+01
    1.6650027466e+02    5.9325401306e+01
    1.6660049438e+02    5.9382591248e+01
    1.6669999695e+02    5.9438903809e+01
    1.6680090332e+02    5.9496307373e+01
    1.6690025330e+02    5.9552200317e+01
    1.6699993896e+02    5.9608200073e+01
    1.6709907532e+02    5.9664108276e+01
    1.6719958496e+02    5.9720108032e+01
    1.6730006409e+02    5.9776107788e+01
    1.6739907837e+02    5.9830505371e+01
    1.6750064087e+02    5.9886001587e+01
    1.6759901428e+02    5.9940292358e+01
    1.6769956970e+02    5.9995292664e+01
    1.6780009460e+02    6.0050209045e+01
    1.6790036011e+02    6.0104499817e+01
    1.6800000000e+02    6.0158699036e+01
    1.6809953308e+02    6.0212799072e+01
    1.6820097351e+02    6.0267395020e+01
    1.6829962158e+02    6.0319900513e+01
    1.6840017700e+02    6.0373603821e+01
    1.6850001526e+02    6.0427490234e+01
    1.6859994507e+02    6.0480094910e+01
    1.6869981384e+02    6.0533500671e+01
    1.6880070496e+02    6.0585800171e+01
    1.6890092468e+02    6.0639198303e+01
    1.6899977112e+02    6.0689903259e+01
    1.6910003662e+02    6.0742805481e+01
    1.6919953918e+02    6.0793792725e+01
    1.6930070496e+02    6.0846496582e+01
    1.6939923096e+02    6.0896903992e+01
    1.6950044250e+02    6.0948089600e+01
    1.6960055542e+02    6.0999099731e+01
    1.6969992065e+02    6.1050201416e+01
    1.6980070496e+02    6.1100494385e+01
    1.6990080261e+02    6.1150901794e+01
    1.7000082397e+02    6.1201194763e+01
    1.7009919739e+02    6.1270393372e+01
    1.7020117188e+02    6.1341590881e+01
    1.7030105591e+02    6.1411506653e+01
    1.7040014648e+02    6.1479797363e+01
    1.7050030518e+02    6.1549896240e+01
    1.7060017395e+02    6.1618301392e+01
    1.7070057678e+02    6.1687606812e+01
    1.7079954529e+02    6.1756301880e+01
    1.7089970398e+02    6.1824592590e+01
    1.7099923706e+02    6.1892799377e+01
    1.7110093689e+02    6.1961692810e+01
    1.7120042419e+02    6.2029495239e+01
    1.7130087280e+02    6.2097099304e+01
    1.7139965820e+02    6.2163703918e+01
    1.7150102234e+02    6.2231994629e+01
    1.7160040283e+02    6.2297790527e+01
    1.7170069885e+02    6.2364395142e+01
    1.7180026245e+02    6.2430099487e+01
    1.7189997864e+02    6.2495101929e+01
    1.7200079346e+02    6.2560501099e+01
    1.7209930420e+02    6.2623992920e+01
    1.7220013428e+02    6.2689498901e+01
    1.7230029297e+02    6.2752792358e+01
    1.7240025330e+02    6.2816101074e+01
    1.7250100708e+02    6.2879295349e+01
    1.7259997559e+02    6.2940605164e+01
    1.7270094299e+02    6.3003402710e+01
    1.7280096436e+02    6.3064704895e+01
    1.7290022278e+02    6.3124900818e+01
    1.7300068665e+02    6.3185302734e+01
    1.7310098267e+02    6.3245506287e+01
    1.7319955444e+02    6.3303802490e+01
    1.7330038452e+02    6.3363098145e+01
    1.7340055847e+02    6.3422195435e+01
    1.7350088501e+02    6.3480697632e+01
    1.7360066223e+02    6.3537902832e+01
    1.7370028687e+02    6.3594993591e+01
    1.7380134583e+02    6.3652793884e+01
    1.7390048218e+02    6.3709205627e+01
    1.7400009155e+02    6.3765296936e+01
    1.7410087585e+02    6.3821601868e+01
    1.7420060730e+02    6.3876792908e+01
    1.7430046082e+02    6.3932304382e+01
    1.7440014648e+02    6.3986793518e+01
    1.7450117493e+02    6.4042297363e+01
    1.7460038757e+02    6.4096206665e+01
    1.7469995117e+02    6.4149993896e+01
    1.7480090332e+02    6.4203506470e+01
    1.7490037537e+02    6.4256790161e+01
    1.7499964905e+02    6.4309104919e+01
    1.7510093689e+02    6.4361907959e+01
    1.7519960022e+02    6.4413795471e+01
    1.7530044556e+02    6.4465705872e+01
    1.7540022278e+02    6.4517501831e+01
    1.7550035095e+02    6.4568199158e+01
    1.7559951782e+02    6.4618591309e+01
    1.7570042419e+02    6.4668907166e+01
    1.7580122375e+02    6.4719100952e+01
    1.7590003967e+02    6.4768005371e+01
    1.7600042725e+02    6.4817306519e+01
    1.7610087585e+02    6.4866195679e+01
    1.7620011902e+02    6.4914306641e+01
    1.7630099487e+02    6.4963607788e+01
    1.7639962769e+02    6.5010307312e+01
    1.7650074768e+02    6.5058509827e+01
    1.7660006714e+02    6.5105201721e+01
    1.7670005798e+02    6.5152000427e+01
    1.7679992676e+02    6.5198997498e+01
    1.7690153503e+02    6.5246002197e+01
    1.7700000000e+02    6.5291999817e+01
    1.7709985352e+02    6.5338996887e+01
    1.7720126343e+02    6.5386001587e+01
    1.7730064392e+02    6.5430999756e+01
    1.7739970398e+02    6.5476997375e+01
    1.7749995422e+02    6.5521995544e+01
    1.7760070801e+02    6.5568000793e+01
    1.7770108032e+02    6.5613006592e+01
    1.7780140686e+02    6.5658996582e+01
    1.7790017700e+02    6.5702995300e+01
    1.7800126648e+02    6.5749000549e+01
    1.7810040283e+02    6.5793998718e+01
    1.7820141602e+02    6.5838005066e+01
    1.7830151367e+02    6.5882003784e+01
    1.7840008545e+02    6.5926010132e+01
    1.7850097656e+02    6.5970001221e+01
    1.7859967041e+02    6.6014007568e+01
    1.7870013428e+02    6.6057991028e+01
    1.7879992676e+02    6.6100997925e+01
    1.7890002441e+02    6.6143997192e+01
    1.7899975586e+02    6.6187004089e+01
    1.7910157776e+02    6.6231002808e+01
    1.7920153809e+02    6.6273002625e+01
    1.7930085754e+02    6.6314994812e+01
    1.7940025330e+02    6.6355995178e+01
    1.7950141907e+02    6.6397994995e+01
    1.7960075378e+02    6.6440002441e+01
    1.7970101929e+02    6.6481002808e+01
    1.7980076599e+02    6.6522003174e+01
    1.7990144348e+02    6.6563003540e+01
    1.8000010681e+02    6.6601997375e+01
    1.8010023499e+02    6.6658996582e+01
    1.8020048523e+02    6.6717002869e+01
    1.8030079651e+02    6.6773002625e+01
    1.8040000916e+02    6.6830001831e+01
    1.8050035095e+02    6.6886001587e+01
    1.8060050964e+02    6.6943008423e+01
    1.8070158386e+02    6.6999008179e+01
    1.8080038452e+02    6.7054000854e+01
    1.8090147400e+02    6.7110000610e+01
    1.8100109863e+02    6.7164001465e+01
    1.8110032654e+02    6.7219001770e+01
    1.8120085144e+02    6.7272994995e+01
    1.8130174255e+02    6.7327995300e+01
    1.8139990234e+02    6.7379997253e+01
    1.8150128174e+02    6.7433990479e+01
    1.8160119629e+02    6.7486000061e+01
    1.8170132446e+02    6.7538002014e+01
    1.8179997253e+02    6.7590003967e+01
    1.8190008545e+02    6.7642005920e+01
    1.8200166321e+02    6.7692001343e+01
    1.8210015869e+02    6.7743003845e+01
    1.8220033264e+02    6.7792999268e+01
    1.8230024719e+02    6.7841995239e+01
    1.8240191650e+02    6.7891998291e+01
    1.8250073242e+02    6.7940002441e+01
    1.8260168457e+02    6.7987998962e+01
    1.8270094299e+02    6.8036003113e+01
    1.8280117798e+02    6.8083000183e+01
    1.8290034485e+02    6.8128997803e+01
    1.8300050354e+02    6.8174995422e+01
    1.8310044861e+02    6.8221008301e+01
    1.8320053101e+02    6.8266990662e+01
    1.8330126953e+02    6.8310997009e+01
    1.8340121460e+02    6.8355995178e+01
    1.8350004578e+02    6.8400001526e+01
    1.8360133362e+02    6.8444999695e+01
    1.8370031738e+02    6.8486999512e+01
    1.8380058289e+02    6.8532005310e+01
    1.8390118408e+02    6.8574996948e+01
    1.8400134277e+02    6.8618003845e+01
    1.8410098267e+02    6.8660003662e+01
    1.8420152283e+02    6.8702995300e+01
    1.8430180359e+02    6.8744995117e+01
    1.8440164185e+02    6.8787002563e+01
    1.8450166321e+02    6.8829010010e+01
    1.8460183716e+02    6.8869995117e+01
    1.8470016479e+02    6.8909996033e+01
    1.8480006409e+02    6.8951995850e+01
    1.8490048218e+02    6.8991996765e+01
    1.8500085449e+02    6.9033004761e+01
    1.8510125732e+02    6.9072990417e+01
    1.8520065308e+02    6.9112991333e+01
    1.8530061340e+02    6.9152008057e+01
    1.8540165710e+02    6.9192993164e+01
    1.8550204468e+02    6.9231994629e+01
    1.8560147095e+02    6.9270996094e+01
    1.8570133972e+02    6.9308990479e+01
    1.8580114746e+02    6.9347999573e+01
    1.8590032959e+02    6.9385993958e+01
    1.8600018311e+02    6.9423004150e+01
    1.8610159302e+02    6.9462005615e+01
    1.8620205688e+02    6.9499008179e+01
    1.8630038452e+02    6.9536003113e+01
    1.8640046692e+02    6.9574005127e+01
    1.8650048828e+02    6.9610000610e+01
    1.8660032654e+02    6.9647003174e+01
    1.8670147705e+02    6.9683998108e+01
    1.8680039978e+02    6.9720001221e+01
    1.8690063477e+02    6.9756996155e+01
    1.8700082397e+02    6.9792991638e+01
    1.8710072327e+02    6.9829002380e+01
    1.8720210266e+02    6.9864997864e+01
    1.8730099487e+02    6.9900001526e+01
    1.8740121460e+02    6.9934997559e+01
    1.8750213623e+02    6.9971000671e+01
    1.8760168457e+02    7.0006996155e+01
    1.8770199585e+02    7.0041992188e+01
    1.8780099487e+02    7.0076004028e+01
    1.8790063477e+02    7.0111007690e+01
    1.8800057983e+02    7.0145004272e+01
    1.8810223389e+02    7.0180000305e+01
    1.8820143127e+02    7.0214004517e+01
    1.8830097961e+02    7.0248001099e+01
    1.8840080261e+02    7.0280998230e+01
    1.8850227356e+02    7.0315002441e+01
    1.8860023499e+02    7.0346992493e+01
    1.8870089722e+02    7.0380004883e+01
    1.8880038452e+02    7.0412002563e+01
    1.8890083313e+02    7.0444999695e+01
    1.8900071716e+02    7.0477005005e+01
    1.8910110474e+02    7.0509002686e+01
    1.8920118713e+02    7.0539001465e+01
    1.8930116272e+02    7.0570999146e+01
    1.8940136719e+02    7.0600997925e+01
    1.8950152588e+02    7.0631988525e+01
    1.8960154724e+02    7.0661010742e+01
    1.8970164490e+02    7.0691009521e+01
    1.8980213928e+02    7.0720001221e+01
    1.8990203857e+02    7.0749008179e+01
    1.9000184631e+02    7.0777999878e+01
    1.9010220337e+02    7.0820007324e+01
    1.9020239258e+02    7.0863006592e+01
    1.9030073547e+02    7.0904998779e+01
    1.9040231323e+02    7.0947998047e+01
    1.9050047302e+02    7.0989013672e+01
    1.9060064697e+02    7.1029006958e+01
    1.9070115662e+02    7.1070999146e+01
    1.9080201721e+02    7.1111007690e+01
    1.9090170288e+02    7.1151992798e+01
    1.9100068665e+02    7.1192001343e+01
    1.9110127258e+02    7.1232009888e+01
    1.9120225525e+02    7.1270996094e+01
    1.9130206299e+02    7.1309997559e+01
    1.9140080261e+02    7.1348007202e+01
    1.9150219727e+02    7.1386993408e+01
    1.9160177612e+02    7.1425003052e+01
    1.9170155334e+02    7.1460998535e+01
    1.9180047607e+02    7.1498001099e+01
    1.9190171814e+02    7.1535995483e+01
    1.9200114441e+02    7.1570999146e+01
    1.9210046387e+02    7.1608001709e+01
    1.9220173645e+02    7.1643005371e+01
    1.9230174255e+02    7.1679000854e+01
    1.9240173340e+02    7.1714004517e+01
    1.9250224304e+02    7.1748001099e+01
    1.9260214233e+02    7.1782012939e+01
    1.9270120239e+02    7.1816009521e+01
    1.9280151367e+02    7.1850006104e+01
    1.9290162659e+02    7.1882995605e+01
    1.9300100708e+02    7.1915008545e+01
    1.9310215759e+02    7.1948989868e+01
    1.9320185852e+02    7.1981002808e+01
    1.9330181885e+02    7.2013000488e+01
    1.9340138245e+02    7.2044998169e+01
    1.9350212097e+02    7.2076995850e+01
    1.9360087585e+02    7.2109008789e+01
    1.9370086670e+02    7.2140991211e+01
    1.9380165100e+02    7.2171997070e+01
    1.9390136719e+02    7.2204010010e+01
    1.9400155640e+02    7.2235000610e+01
    1.9410066223e+02    7.2266998291e+01
    1.9420166016e+02    7.2298995972e+01
    1.9430064392e+02    7.2328994751e+01
    1.9440103149e+02    7.2360000610e+01
[...]
    2.5130558777e+02    8.3129974365e+01
    2.5140458679e+02    8.3106994629e+01
    2.5150535583e+02    8.3083007812e+01
    2.5160589600e+02    8.3058990479e+01
    2.5170611572e+02    8.3035003662e+01
    2.5180609131e+02    8.3010986328e+01
    2.5190577698e+02    8.2985992432e+01
    2.5200511169e+02    8.2960998535e+01
    2.5210452271e+02    8.2936981201e+01
    2.5220555115e+02    8.2911987305e+01
    2.5230587769e+02    8.2885986328e+01
    2.5240559387e+02    8.2859008789e+01
    2.5250616455e+02    8.2833007812e+01
    2.5260455322e+02    8.2807983398e+01
    2.5270498657e+02    8.2779998779e+01
    2.5280581665e+02    8.2752014160e+01
    2.5290454102e+02    8.2725982666e+01
    2.5300541687e+02    8.2697998047e+01
    2.5310467529e+02    8.2669982910e+01
    2.5320620728e+02    8.2640991211e+01
    2.5330464172e+02    8.2612976074e+01
    2.5340478516e+02    8.2582977295e+01
    2.5350569153e+02    8.2554016113e+01
    2.5360496521e+02    8.2523986816e+01
    2.5370622253e+02    8.2493988037e+01
    2.5380520630e+02    8.2463989258e+01
    2.5390440369e+02    8.2434020996e+01
    2.5400590515e+02    8.2402984619e+01
    2.5410565186e+02    8.2371002197e+01
    2.5420512390e+02    8.2339996338e+01
    2.5430468750e+02    8.2308013916e+01
    2.5440618896e+02    8.2274993896e+01
    2.5450564575e+02    8.2243011475e+01
    2.5460502625e+02    8.2209991455e+01
    2.5470628357e+02    8.2177001953e+01
    2.5480543518e+02    8.2143005371e+01
    2.5490437317e+02    8.2109008789e+01
    2.5500509644e+02    8.2073974609e+01
    2.5510560608e+02    8.2040008545e+01
    2.5520602417e+02    8.2003997803e+01
    2.5530441284e+02    8.1968994141e+01
    2.5540451050e+02    8.1933013916e+01
    2.5550633240e+02    8.1895019531e+01
    2.5560606384e+02    8.1859008789e+01
    2.5570565796e+02    8.1821990967e+01
    2.5580511475e+02    8.1783996582e+01
    2.5590446472e+02    8.1747009277e+01
    2.5600567627e+02    8.1708007812e+01
    2.5610494995e+02    8.1667999268e+01
    2.5620507812e+02    8.1628021240e+01
    2.5630545044e+02    8.1587982178e+01
    2.5640603638e+02    8.1548004150e+01
    2.5650640869e+02    8.1507019043e+01
    2.5660488892e+02    8.1467010498e+01
    2.5670608521e+02    8.1425018311e+01
    2.5680596924e+02    8.1382995605e+01
    2.5690457153e+02    8.1342010498e+01
    2.5700476074e+02    8.1300018311e+01
    2.5710461426e+02    8.1256988525e+01
    2.5720547485e+02    8.1213989258e+01
    2.5730462646e+02    8.1171997070e+01
    2.5740554810e+02    8.1127990723e+01
    2.5750463867e+02    8.1084991455e+01
    2.5760601807e+02    8.1040985107e+01
    2.5770520020e+02    8.0998016357e+01
    2.5780648804e+02    8.0953002930e+01
    2.5790542603e+02    8.0908996582e+01
    2.5800607300e+02    8.0864990234e+01
    2.5810647583e+02    8.0820007324e+01
    2.5820526123e+02    8.0776000977e+01
    2.5830615234e+02    8.0730987549e+01
    2.5840496826e+02    8.0687011719e+01
    2.5850576782e+02    8.0640991211e+01
    2.5860647583e+02    8.0596008301e+01
    2.5870498657e+02    8.0549987793e+01
    2.5880526733e+02    8.0503997803e+01
    2.5890615845e+02    8.0458007812e+01
    2.5900500488e+02    8.0412994385e+01
    2.5910620117e+02    8.0365997314e+01
    2.5920608521e+02    8.0319000244e+01
    2.5930511475e+02    8.0273010254e+01
    2.5940585327e+02    8.0225982666e+01
    2.5950540161e+02    8.0179016113e+01
    2.5960565186e+02    8.0132019043e+01
    2.5970581055e+02    8.0084014893e+01
    2.5980487061e+02    8.0037994385e+01
    2.5990567017e+02    7.9990020752e+01
    2.6000592041e+02    7.9942016602e+01
    2.6010610962e+02    7.9895996094e+01
    2.6020553589e+02    7.9849029541e+01
    2.6030575562e+02    7.9803009033e+01
    2.6040536499e+02    7.9755981445e+01
    2.6050622559e+02    7.9708007812e+01
    2.6060549927e+02    7.9661010742e+01
    2.6070495605e+02    7.9613983154e+01
    2.6080599976e+02    7.9565979004e+01
    2.6090512085e+02    7.9520019531e+01
    2.6100659180e+02    7.9470977783e+01
    2.6110653687e+02    7.9422973633e+01
    2.6120654297e+02    7.9375000000e+01
    2.6130645752e+02    7.9326995850e+01
    2.6140643311e+02    7.9278991699e+01
    2.6150640869e+02    7.9230010986e+01
    2.6160629272e+02    7.9182006836e+01
    2.6170602417e+02    7.9132995605e+01
    2.6180557251e+02    7.9083984375e+01
    2.6190487671e+02    7.9034973145e+01
    2.6200598145e+02    7.8984008789e+01
    2.6210504150e+02    7.8934997559e+01
    2.6220581055e+02    7.8884002686e+01
    2.6230633545e+02    7.8833007812e+01
    2.6240673828e+02    7.8781982422e+01
    2.6250515747e+02    7.8730987549e+01
    2.6260552979e+02    7.8679992676e+01
    2.6270587158e+02    7.8627990723e+01
    2.6280624390e+02    7.8574005127e+01
    2.6290652466e+02    7.8522003174e+01
    2.6300500488e+02    7.8468994141e+01
    2.6310589600e+02    7.8416015625e+01
    2.6320510864e+02    7.8361999512e+01
    2.6330676270e+02    7.8307006836e+01
    2.6340588379e+02    7.8253997803e+01
    2.6350595093e+02    7.8197998047e+01
    2.6360665894e+02    7.8143005371e+01
    2.6370498657e+02    7.8088012695e+01
    2.6380670166e+02    7.8030975342e+01
    2.6390679932e+02    7.7975006104e+01
    2.6400650024e+02    7.7920013428e+01
    2.6410583496e+02    7.7863983154e+01
    2.6420556641e+02    7.7806976318e+01
    2.6430639648e+02    7.7750000000e+01
    2.6440557861e+02    7.7694000244e+01
    2.6450497437e+02    7.7636016846e+01
    2.6460604858e+02    7.7578979492e+01
    2.6470553589e+02    7.7520996094e+01
    2.6480603027e+02    7.7463989258e+01
    2.6490621948e+02    7.7406005859e+01
    2.6500622559e+02    7.7347991943e+01
    2.6510623169e+02    7.7291015625e+01
    2.6520608521e+02    7.7233001709e+01
    2.6530581665e+02    7.7175018311e+01
    2.6540551758e+02    7.7117004395e+01
    2.6550503540e+02    7.7058990479e+01
    2.6560641479e+02    7.6998992920e+01
    2.6570574951e+02    7.6941986084e+01
    2.6580697632e+02    7.6881988525e+01
    2.6590612793e+02    7.6824005127e+01
    2.6600515747e+02    7.6765991211e+01
    2.6610650635e+02    7.6705993652e+01
    2.6620581055e+02    7.6646972656e+01
    2.6630645752e+02    7.6588012695e+01
    2.6640701294e+02    7.6529998779e+01
    2.6650534058e+02    7.6471984863e+01
    2.6660580444e+02    7.6413024902e+01
    2.6670693970e+02    7.6352996826e+01
    2.6680541992e+02    7.6295013428e+01
    2.6690594482e+02    7.6236999512e+01
    2.6700576782e+02    7.6178985596e+01
    2.6710543823e+02    7.6119995117e+01
    2.6720556641e+02    7.6062011719e+01
    2.6730673218e+02    7.6002990723e+01
    2.6740658569e+02    7.5945007324e+01
    2.6750659180e+02    7.5886993408e+01
    2.6760659790e+02    7.5829010010e+01
    2.6770657349e+02    7.5771026611e+01
    2.6780679321e+02    7.5712005615e+01
    2.6790704346e+02    7.5654998779e+01
    2.6800534058e+02    7.5597991943e+01
    2.6810562134e+02    7.5539001465e+01
    2.6820596313e+02    7.5480987549e+01
    2.6830630493e+02    7.5421997070e+01
    2.6840664673e+02    7.5364990234e+01
    2.6850695801e+02    7.5307006836e+01
    2.6860525513e+02    7.5248992920e+01
    2.6870538330e+02    7.5191009521e+01
    2.6880541992e+02    7.5132019043e+01
    2.6890554810e+02    7.5074005127e+01
    2.6900561523e+02    7.5015991211e+01
    2.6910559082e+02    7.4957000732e+01
    2.6920715332e+02    7.4898010254e+01
    2.6930618286e+02    7.4840026855e+01
    2.6940707397e+02    7.4781005859e+01
    2.6950601196e+02    7.4722991943e+01
    2.6960702515e+02    7.4662994385e+01
    2.6970626831e+02    7.4605010986e+01
    2.6980612183e+02    7.4546020508e+01
    2.6990625000e+02    7.4486999512e+01
    2.7000698853e+02    7.4427001953e+01
    2.7010610962e+02    7.4367004395e+01
    2.7020581055e+02    7.4305999756e+01
    2.7030538940e+02    7.4244018555e+01
    2.7040591431e+02    7.4182983398e+01
    2.7050601196e+02    7.4121002197e+01
    2.7060635376e+02    7.4059020996e+01
    2.7070516968e+02    7.3998016357e+01
    2.7080596924e+02    7.3936981201e+01
    2.7090652466e+02    7.3873992920e+01
    2.7100689697e+02    7.3811004639e+01
    2.7110665894e+02    7.3750000000e+01
    2.7120648193e+02    7.3687988281e+01
    2.7130718994e+02    7.3625000000e+01
    2.7140609741e+02    7.3563018799e+01
    2.7150683594e+02    7.3500976562e+01
    2.7160723877e+02    7.3436981201e+01
    2.7170721436e+02    7.3375000000e+01
    2.7180725098e+02    7.3312011719e+01
    2.7190548706e+02    7.3250000000e+01
    2.7200585938e+02    7.3186981201e+01
    2.7210610962e+02    7.3122985840e+01
    2.7220623779e+02    7.3059997559e+01
    2.7230624390e+02    7.2996002197e+01
    2.7240606689e+02    7.2932006836e+01
    2.7250576782e+02    7.2869018555e+01
    2.7260733032e+02    7.2804016113e+01
    2.7270681763e+02    7.2739990234e+01
    2.7280630493e+02    7.2677001953e+01
    2.7290585327e+02    7.2611999512e+01
    2.7300634766e+02    7.2548004150e+01
    2.7310693359e+02    7.2481994629e+01
    2.7320550537e+02    7.2419006348e+01
    2.7330624390e+02    7.2354003906e+01
    2.7340551758e+02    7.2289001465e+01
    2.7350744629e+02    7.2223999023e+01
    2.7360543823e+02    7.2160980225e+01
    2.7370709229e+02    7.2095001221e+01
    2.7380593872e+02    7.2030975342e+01
    2.7390646362e+02    7.1966979980e+01
    2.7400729370e+02    7.1903015137e+01
    2.7410620117e+02    7.1838989258e+01
    2.7420559692e+02    7.1775024414e+01
    2.7430737305e+02    7.1710998535e+01
    2.7440542603e+02    7.1647979736e+01
    2.7450747681e+02    7.1583007812e+01
    2.7460595703e+02    7.1519989014e+01
    2.7470727539e+02    7.1455993652e+01
    2.7480661011e+02    7.1393005371e+01
    2.7490594482e+02    7.1329986572e+01
    2.7500720215e+02    7.1265991211e+01
    2.7510641479e+02    7.1203002930e+01
    2.7520565796e+02    7.1140991211e+01
    2.7530691528e+02    7.1076995850e+01
    2.7540606689e+02    7.1014984131e+01
    2.7550704956e+02    7.0951019287e+01
    2.7560592651e+02    7.0889984131e+01
    2.7570675659e+02    7.0826995850e+01
    2.7580746460e+02    7.0764007568e+01
    2.7590600586e+02    7.0703002930e+01
    2.7600650024e+02    7.0640991211e+01
    2.7610671997e+02    7.0579010010e+01
    2.7620672607e+02    7.0516998291e+01
    2.7630657959e+02    7.0455017090e+01
    2.7640631104e+02    7.0393981934e+01
    2.7650601196e+02    7.0333007812e+01
    2.7660586548e+02    7.0270996094e+01
    2.7670596313e+02    7.0209991455e+01
    2.7680636597e+02    7.0148986816e+01
    2.7690719604e+02    7.0085998535e+01
    2.7700683594e+02    7.0026000977e+01
    2.7710717773e+02    6.9963989258e+01
    2.7720669556e+02    6.9904022217e+01
    2.7730712891e+02    6.9842010498e+01
    2.7740570068e+02    6.9782012939e+01
    2.7750747681e+02    6.9720001221e+01
    2.7760708618e+02    6.9657989502e+01
    2.7770654297e+02    6.9597991943e+01
    2.7780657959e+02    6.9536987305e+01
    2.7790606689e+02    6.9475006104e+01
    2.7800753784e+02    6.9412994385e+01
    2.7810626221e+02    6.9350982666e+01
    2.7820602417e+02    6.9290008545e+01
    2.7830578613e+02    6.9227996826e+01
    2.7840579224e+02    6.9165985107e+01
    2.7850625610e+02    6.9102996826e+01
    2.7860668945e+02    6.9040008545e+01
    2.7870709229e+02    6.8976989746e+01
    2.7880718994e+02    6.8915008545e+01
    2.7890725708e+02    6.8851989746e+01
    2.7900744629e+02    6.8787994385e+01
    2.7910766602e+02    6.8725006104e+01
    2.7920593262e+02    6.8662017822e+01
    2.7930621338e+02    6.8597991943e+01
    2.7940643311e+02    6.8533996582e+01
    2.7950668335e+02    6.8470001221e+01
    2.7960696411e+02    6.8404998779e+01
    2.7970733643e+02    6.8341003418e+01
    2.7980590820e+02    6.8276977539e+01
    2.7990585327e+02    6.8213012695e+01
    2.8000582886e+02    6.8148010254e+01
    2.8010614014e+02    6.8079010010e+01
    2.8020730591e+02    6.8010009766e+01
    2.8030630493e+02    6.7942016602e+01
    2.8040756226e+02    6.7872009277e+01
    2.8050772095e+02    6.7804016113e+01
    2.8060635376e+02    6.7736999512e+01
    2.8070660400e+02    6.7667999268e+01
    2.8080633545e+02    6.7601013184e+01
    2.8090603638e+02    6.7531982422e+01
    2.8100744629e+02    6.7462982178e+01
    2.8110705566e+02    6.7395019531e+01
    2.8120758057e+02    6.7325988770e+01
    2.8130630493e+02    6.7259002686e+01
    2.8140771484e+02    6.7190002441e+01
    2.8150607300e+02    6.7123016357e+01
    2.8160678101e+02    6.7052978516e+01
    2.8170709229e+02    6.6984985352e+01
    2.8180746460e+02    6.6916015625e+01
    2.8190618896e+02    6.6848999023e+01
    2.8200704956e+02    6.6781005859e+01
    2.8210797119e+02    6.6710998535e+01
    2.8220660400e+02    6.6644012451e+01
    2.8230722046e+02    6.6574981689e+01
    2.8240600586e+02    6.6507995605e+01
    2.8250686646e+02    6.6438995361e+01
    2.8260784912e+02    6.6371002197e+01
    2.8270693970e+02    6.6303009033e+01
    2.8280801392e+02    6.6234985352e+01
    2.8290698242e+02    6.6167999268e+01
    2.8300778198e+02    6.6099975586e+01
    2.8310644531e+02    6.6032989502e+01
    2.8320703125e+02    6.5966003418e+01
    2.8330758667e+02    6.5898010254e+01
    2.8340640259e+02    6.5833007812e+01
    2.8350738525e+02    6.5764984131e+01
    2.8360739136e+02    6.5697998047e+01
    2.8370739746e+02    6.5631988525e+01
    2.8380798340e+02    6.5565002441e+01
    2.8390667725e+02    6.5498992920e+01
    2.8400622559e+02    6.5433990479e+01
    2.8410800171e+02    6.5365997314e+01
    2.8420605469e+02    6.5300994873e+01
    2.8430697632e+02    6.5234008789e+01
    2.8440643311e+02    6.5169006348e+01
    2.8450802612e+02    6.5101989746e+01
    2.8460684204e+02    6.5036987305e+01
    2.8470681763e+02    6.4971008301e+01
    2.8480682373e+02    6.4904998779e+01
    2.8490618896e+02    6.4839996338e+01
    2.8500772095e+02    6.4773010254e+01
    2.8510717773e+02    6.4707977295e+01
    2.8520715332e+02    6.4641998291e+01
    2.8530688477e+02    6.4577026367e+01
    2.8540667725e+02    6.4511016846e+01
    2.8550656128e+02    6.4445007324e+01
    2.8560653687e+02    6.4380004883e+01
    2.8570660400e+02    6.4313995361e+01
    2.8580670166e+02    6.4247985840e+01
    2.8590686035e+02    6.4183013916e+01
    2.8600711060e+02    6.4117004395e+01
    2.8610736084e+02    6.4050994873e+01
    2.8620773315e+02    6.3984008789e+01
    2.8630636597e+02    6.3919006348e+01
    2.8640740967e+02    6.3852996826e+01
    2.8650643921e+02    6.3787994385e+01
    2.8660733032e+02    6.3721008301e+01
    2.8670697021e+02    6.3654998779e+01
    2.8680743408e+02    6.3588989258e+01
    2.8690643311e+02    6.3523986816e+01
    2.8700750732e+02    6.3457000732e+01
    2.8710684204e+02    6.3391998291e+01
    2.8720819092e+02    6.3324981689e+01
    2.8730728149e+02    6.3259002686e+01
    2.8740823364e+02    6.3192016602e+01
    2.8750680542e+02    6.3127014160e+01
    2.8760675049e+02    6.3061004639e+01
    2.8770803833e+02    6.2994018555e+01
    2.8780688477e+02    6.2928009033e+01
    2.8790673828e+02    6.2861999512e+01
    2.8800646973e+02    6.2794982910e+01
    2.8810745239e+02    6.2728027344e+01
    2.8820788574e+02    6.2661010742e+01
    2.8830773926e+02    6.2593963623e+01
    2.8840792847e+02    6.2526000977e+01
    2.8850833130e+02    6.2457977295e+01
    2.8860812378e+02    6.2390991211e+01
    2.8870642090e+02    6.2322998047e+01
    2.8880813599e+02    6.2253997803e+01
    2.8890820312e+02    6.2186004639e+01
    2.8900823975e+02    6.2117034912e+01
    2.8910839844e+02    6.2049041748e+01
    2.8920666504e+02    6.1981994629e+01
    2.8930700684e+02    6.1912994385e+01
    2.8940750122e+02    6.1844970703e+01
    2.8950805664e+02    6.1776000977e+01
    2.8960668945e+02    6.1709014893e+01
    2.8970739746e+02    6.1640014648e+01
    2.8980645752e+02    6.1572998047e+01
    2.8990792847e+02    6.1503967285e+01
    2.9000839233e+02    6.1434967041e+01
    2.9010681152e+02    6.1365020752e+01
    2.9020709229e+02    6.1292022705e+01
    2.9030654907e+02    6.1219970703e+01
    2.9040695190e+02    6.1148010254e+01
    2.9050790405e+02    6.1075012207e+01
    2.9060736084e+02    6.1003997803e+01
    2.9070761108e+02    6.0932006836e+01
    2.9080831909e+02    6.0860015869e+01
    2.9090692139e+02    6.0788970947e+01
    2.9100756836e+02    6.0717987061e+01
    2.9110671997e+02    6.0648986816e+01
    2.9120782471e+02    6.0575988770e+01
    2.9130691528e+02    6.0507019043e+01
    2.9140689087e+02    6.0435974121e+01
    2.9150781250e+02    6.0363983154e+01
    2.9160760498e+02    6.0294006348e+01
    2.9170739746e+02    6.0224029541e+01
    2.9180722046e+02    6.0154022217e+01
    2.9190710449e+02    6.0083984375e+01
    2.9200714111e+02    6.0014038086e+01
    2.9210733032e+02    5.9944030762e+01
    2.9220767212e+02    5.9874023438e+01
    2.9230813599e+02    5.9804016113e+01
    2.9240673828e+02    5.9735992432e+01
    2.9250747681e+02    5.9666992188e+01
    2.9260830688e+02    5.9597015381e+01
    2.9270724487e+02    5.9528015137e+01
    2.9280819702e+02    5.9459014893e+01
    2.9290716553e+02    5.9390960693e+01
    2.9300814819e+02    5.9320983887e+01
    2.9310708618e+02    5.9253021240e+01
    2.9320797729e+02    5.9184020996e+01
    2.9330688477e+02    5.9115997314e+01
    2.9340792847e+02    5.9047973633e+01
    2.9350708008e+02    5.8979980469e+01
    2.9360681152e+02    5.8911987305e+01
    2.9370809937e+02    5.8843017578e+01
    2.9380709839e+02    5.8774993896e+01
    2.9390829468e+02    5.8707031250e+01
    2.9400750732e+02    5.8639038086e+01
    2.9410781860e+02    5.8571014404e+01
    2.9420690918e+02    5.8502990723e+01
    2.9430728149e+02    5.8434967041e+01
    2.9440774536e+02    5.8367004395e+01
    2.9450701904e+02    5.8299011230e+01
    2.9460821533e+02    5.8229003906e+01
    2.9470837402e+02    5.8161010742e+01
    2.9480822754e+02    5.8090972900e+01
    2.9490808105e+02    5.8023010254e+01
    2.9500784302e+02    5.7954040527e+01
    2.9510736084e+02    5.7886016846e+01
    2.9520736694e+02    5.7815979004e+01
    2.9530764771e+02    5.7745971680e+01
    2.9540783691e+02    5.7677032471e+01
    2.9550765991e+02    5.7606994629e+01
    2.9560717773e+02    5.7537963867e+01
    2.9570880127e+02    5.7467010498e+01
    2.9580850220e+02    5.7398010254e+01
    2.9590832520e+02    5.7328002930e+01
    2.9600817871e+02    5.7258026123e+01
    2.9610803223e+02    5.7187988281e+01
    2.9620809937e+02    5.7118988037e+01
    2.9630816650e+02    5.7049011230e+01
    2.9640826416e+02    5.6980010986e+01
    2.9650823975e+02    5.6910034180e+01
    2.9660861206e+02    5.6841003418e+01
    2.9670706177e+02    5.6772003174e+01
    2.9680883789e+02    5.6702026367e+01
    2.9690704346e+02    5.6634002686e+01
    2.9700775146e+02    5.6564025879e+01
    2.9710678101e+02    5.6495971680e+01
    2.9720785522e+02    5.6425964355e+01
    2.9730856323e+02    5.6356994629e+01
    2.9740753174e+02    5.6289001465e+01
    2.9750869751e+02    5.6217987061e+01
    2.9760809326e+02    5.6149017334e+01
    2.9770758057e+02    5.6080993652e+01
    2.9780734253e+02    5.6010986328e+01
    2.9790859985e+02    5.5942016602e+01
    2.9800842285e+02    5.5870971680e+01
    2.9810824585e+02    5.5802001953e+01
    2.9820803833e+02    5.5733032227e+01
    2.9830786133e+02    5.5664001465e+01
    2.9840771484e+02    5.5595001221e+01
    2.9850808716e+02    5.5524017334e+01
    2.9860876465e+02    5.5455017090e+01
    2.9870733643e+02    5.5384979248e+01
    2.9880752563e+02    5.5315979004e+01
    2.9890786743e+02    5.5246002197e+01
    2.9900839233e+02    5.5176971436e+01
    2.9910711670e+02    5.5107971191e+01
    2.9920806885e+02    5.5037994385e+01
    2.9930715942e+02    5.4970001221e+01
    2.9940832520e+02    5.4899993896e+01
    2.9950738525e+02    5.4832031250e+01
    2.9960839844e+02    5.4763000488e+01
    2.9970730591e+02    5.4695007324e+01
    2.9980822754e+02    5.4626983643e+01
    2.9990829468e+02    5.4558013916e+01
endcurve
