Curveplot
LS-DYNA keyword deck by LS-PrePost
Abscissa
Ordinate
XY data
CHOP_NASZ_mo-1 #pts=3000
* Minval=    -1.2904600525e+02 at time=       234.1050872803
* Maxval=     1.4505800436e-06 at time=         2.6994926929
    0.0000000000e+00    0.0000000000e+00
    9.8183788359e-02    9.3886997110e-44
    1.9912311435e-01    1.9489799652e-34
    2.9914626479e-01    1.6454400110e-27
    3.9893028140e-01    2.6216499968e-21
    4.9987983704e-01    2.0051198979e-15
    5.9893918037e-01    5.1823501046e-10
    6.9821006060e-01    1.7025699961e-08
    7.9874593019e-01    5.9250698570e-08
    8.9882433414e-01    1.2070499622e-07
    9.9832749367e-01    1.8261299317e-07
    1.0999573469e+00    2.1900399361e-07
    1.1990598440e+00    2.2052799409e-07
    1.2982653379e+00    2.2386099374e-07
    1.3986650705e+00    2.6871799719e-07
    1.4996013641e+00    3.3965699231e-07
    1.5996849537e+00    4.1585099098e-07
    1.6981848478e+00    4.6087899364e-07
    1.7999788523e+00    4.9305498351e-07
    1.8988424540e+00    5.3482597195e-07
    1.9994133711e+00    5.7122400676e-07
    2.0989580154e+00    5.4917001080e-07
    2.1992669106e+00    4.7153798732e-07
    2.2983224392e+00    4.5627700729e-07
    2.3979117870e+00    6.2825398572e-07
    2.4989500046e+00    1.0108700508e-06
    2.5995516777e+00    1.3830000398e-06
    2.6994926929e+00    1.4505800436e-06
    2.7996888161e+00    9.8045097729e-07
    2.8994047642e+00   -7.9385500840e-08
    2.9979913235e+00   -1.5979200043e-06
    3.0980477333e+00   -3.4372799291e-06
    3.1992988586e+00   -5.5089899433e-06
    3.2992305756e+00   -7.8064504123e-06
    3.3995552063e+00   -1.0528900020e-05
    3.4997022152e+00   -1.3803200090e-05
    3.5991342068e+00   -1.7630800357e-05
    3.6984682083e+00   -2.1936199118e-05
    3.7986755371e+00   -2.6595500458e-05
    3.8990821838e+00   -3.1449999369e-05
    3.9984014034e+00   -3.6399498640e-05
    4.0992770195e+00   -4.1558498197e-05
    4.1981892586e+00   -4.6766701416e-05
    4.2979784012e+00   -5.2245100960e-05
    4.3989949226e+00   -5.8113098930e-05
    4.4994268417e+00   -6.4410902269e-05
    4.5986452103e+00   -7.1295202360e-05
    4.6987481117e+00   -7.9146600910e-05
    4.7985696793e+00   -8.8178399892e-05
    4.8981180191e+00   -9.8668198916e-05
    4.9979515076e+00   -1.1092999921e-04
    5.0988612175e+00   -1.2528100342e-04
    5.1990551949e+00   -1.4158700651e-04
    5.2997980118e+00   -1.6013800632e-04
    5.3985314369e+00   -1.8056199769e-04
    5.4989075661e+00   -2.0380399656e-04
    5.5980806351e+00   -2.2945500677e-04
    5.6982302666e+00   -2.5830799132e-04
    5.7982525826e+00   -2.9033000465e-04
    5.8983926773e+00   -3.2584299333e-04
    5.9997043610e+00   -3.6549501237e-04
    6.0987768173e+00   -4.0804399760e-04
    6.1986193657e+00   -4.5479199616e-04
    6.2991733551e+00   -5.0579302479e-04
    6.3982605934e+00   -5.5988802342e-04
    6.4995446205e+00   -6.1919802101e-04
    6.5997424126e+00   -6.8195798667e-04
    6.6981744766e+00   -7.4762001168e-04
    6.7997589111e+00   -8.1949401647e-04
    6.8993792534e+00   -8.9394900715e-04
    6.9995565414e+00   -9.7283301875e-04
    7.0997915268e+00   -1.0559499497e-03
    7.1987843513e+00   -1.1422899552e-03
    7.2995963097e+00   -1.2345600408e-03
    7.3998112679e+00   -1.3305100147e-03
    7.4993724823e+00   -1.4298500028e-03
    7.5993847847e+00   -1.5336700017e-03
    7.6991977692e+00   -1.6414100537e-03
    7.7982468605e+00   -1.7524700379e-03
    7.8989233971e+00   -1.8694900209e-03
    7.9986028671e+00   -1.9892000128e-03
    8.0983963013e+00   -2.1127499640e-03
    8.1994724274e+00   -2.2418200970e-03
    8.2984075546e+00   -2.3723400664e-03
    8.3988151550e+00   -2.5092998985e-03
    8.4993610382e+00   -2.6510299649e-03
    8.5992784500e+00   -2.7960799634e-03
    8.6999092102e+00   -2.9459600337e-03
    8.7994432449e+00   -3.0976899434e-03
    8.8991546631e+00   -3.2531400211e-03
    8.9984941483e+00   -3.4115400631e-03
    9.0998392105e+00   -3.5767999943e-03
    9.1995410919e+00   -3.7429200020e-03
    9.2982311249e+00   -3.9107599296e-03
    9.3980522156e+00   -4.0840897709e-03
    9.4979400635e+00   -4.2613898404e-03
    9.5987491608e+00   -4.4443598017e-03
    9.6984415054e+00   -4.6290499158e-03
    9.7999868393e+00   -4.8205000348e-03
    9.8994026184e+00   -5.0107799470e-03
    9.9998521805e+00   -5.2057900466e-03
    1.0098519325e+01   -5.4002101533e-03
    1.0199457169e+01   -5.6021800265e-03
    1.0299710274e+01   -5.8056400158e-03
    1.0399371147e+01   -6.0104001313e-03
    1.0498679161e+01   -6.2167397700e-03
    1.0599512100e+01   -6.4288200811e-03
    1.0698548317e+01   -6.6399700008e-03
    1.0799074173e+01   -6.8573500030e-03
    1.0899873734e+01   -7.0781698450e-03
    1.0999960899e+01   -7.2999699041e-03
    1.1099374771e+01   -7.5228097849e-03
    1.1199412346e+01   -7.7500101179e-03
    1.1298261642e+01   -7.9779904336e-03
    1.1398068428e+01   -8.2119796425e-03
    1.1498903275e+01   -8.4522003308e-03
    1.1598305702e+01   -8.6925700307e-03
    1.1699919701e+01   -8.9420499280e-03
    1.1797915459e+01   -9.1865202412e-03
    1.1898461342e+01   -9.4414902851e-03
    1.1999602318e+01   -9.7020398825e-03
    1.2098773003e+01   -9.9612297490e-03
    1.2199694633e+01   -1.0228600353e-02
    1.2298727036e+01   -1.0494500399e-02
    1.2399748802e+01   -1.0769600049e-02
    1.2499246597e+01   -1.1044699699e-02
    1.2598966599e+01   -1.1324499734e-02
    1.2698843002e+01   -1.1609200388e-02
    1.2798324585e+01   -1.1897400022e-02
    1.2899444580e+01   -1.2195300311e-02
    1.2998724937e+01   -1.2492899783e-02
    1.3099512100e+01   -1.2799800374e-02
    1.3198291779e+01   -1.3105100021e-02
    1.3298863411e+01   -1.3420199975e-02
    1.3398011208e+01   -1.3735299930e-02
    1.3498142242e+01   -1.4058399945e-02
    1.3598805428e+01   -1.4388400130e-02
    1.3699188232e+01   -1.4722400345e-02
    1.3798082352e+01   -1.5055799857e-02
    1.3899313927e+01   -1.5401300043e-02
    1.3999874115e+01   -1.5748500824e-02
    1.4098267555e+01   -1.6092300415e-02
    1.4198948860e+01   -1.6448099166e-02
    1.4299620628e+01   -1.6807999462e-02
    1.4398451805e+01   -1.7165500671e-02
    1.4498159409e+01   -1.7530599609e-02
    1.4599633217e+01   -1.7907399684e-02
    1.4697935104e+01   -1.8277900293e-02
    1.4798772812e+01   -1.8664300442e-02
    1.4898574829e+01   -1.9053399563e-02
    1.4998423576e+01   -1.9449900836e-02
    1.5098880768e+01   -1.9856600091e-02
    1.5199631691e+01   -2.0272599533e-02
    1.5299453735e+01   -2.0693199709e-02
    1.5399840355e+01   -2.1124899387e-02
    1.5498711586e+01   -2.1558899432e-02
    1.5598532677e+01   -2.2006500512e-02
    1.5698728561e+01   -2.2466000170e-02
    1.5799994469e+01   -2.2941099480e-02
    1.5898333549e+01   -2.3413600400e-02
    1.5999801636e+01   -2.3912800476e-02
    1.6098541260e+01   -2.4410700426e-02
    1.6200017929e+01   -2.4935100228e-02
    1.6299877167e+01   -2.5463899598e-02
    1.6399007797e+01   -2.6001399383e-02
    1.6499197006e+01   -2.6557400823e-02
    1.6598306656e+01   -2.7120599523e-02
    1.6699092865e+01   -2.7707099915e-02
    1.6798330307e+01   -2.8298299760e-02
    1.6899732590e+01   -2.8916100040e-02
    1.6998058319e+01   -2.9528299347e-02
    1.7098949432e+01   -3.0169999227e-02
    1.7198297501e+01   -3.0815599486e-02
    1.7298633575e+01   -3.1481601298e-02
    1.7398145676e+01   -3.2156001776e-02
    1.7499736786e+01   -3.2858401537e-02
    1.7599243164e+01   -3.3559400588e-02
    1.7698213577e+01   -3.4269601107e-02
    1.7798057556e+01   -3.4999001771e-02
    1.7899745941e+01   -3.5755399615e-02
    1.7998996735e+01   -3.6506500095e-02
    1.8099042892e+01   -3.7276200950e-02
    1.8198150635e+01   -3.8051400334e-02
    1.8299657822e+01   -3.8858801126e-02
    1.8399873734e+01   -3.9669800550e-02
    1.8499559402e+01   -4.0490001440e-02
    1.8598203659e+01   -4.1314501315e-02
    1.8699617386e+01   -4.2174600065e-02
    1.8799816132e+01   -4.3036501855e-02
    1.8898628235e+01   -4.3898098171e-02
    1.8998750687e+01   -4.4782999903e-02
    1.9098970413e+01   -4.5680798590e-02
    1.9199937820e+01   -4.6597100794e-02
    1.9298763275e+01   -4.7504898161e-02
    1.9398580551e+01   -4.8432998359e-02
    1.9499242783e+01   -4.9380499870e-02
    1.9598770142e+01   -5.0328798592e-02
    1.9699743271e+01   -5.1302101463e-02
    1.9798460007e+01   -5.2263800055e-02
    1.9899494171e+01   -5.3257498890e-02
    1.9998291016e+01   -5.4238200188e-02
    2.0098955154e+01   -5.5246498436e-02
    2.0199647903e+01   -5.6264299899e-02
    2.0299768448e+01   -5.7285100222e-02
    2.0399539948e+01   -5.8310400695e-02
    2.0498609543e+01   -5.9336200356e-02
    2.0599105835e+01   -6.0384999961e-02
    2.0698131561e+01   -6.1426900327e-02
    2.0798519135e+01   -6.2491901219e-02
    2.0899551392e+01   -6.3572198153e-02
    2.0999647141e+01   -6.4650602639e-02
    2.1099111557e+01   -6.5730400383e-02
    2.1198966980e+01   -6.6823303699e-02
    2.1298326492e+01   -6.7920796573e-02
    2.1398935318e+01   -6.9042697549e-02
    2.1499458313e+01   -7.0174403489e-02
    2.1598619461e+01   -7.1300901473e-02
    2.1698289871e+01   -7.2443597019e-02
    2.1799348831e+01   -7.3613703251e-02
    2.1897935867e+01   -7.4766598642e-02
    2.1999275208e+01   -7.5963497162e-02
    2.2097919464e+01   -7.7139601111e-02
    2.2198156357e+01   -7.8345701098e-02
    2.2299243927e+01   -7.9573698342e-02
    2.2400039673e+01   -8.0810502172e-02
    2.2498214722e+01   -8.2027398050e-02
    2.2599086761e+01   -8.3290196955e-02
    2.2698888779e+01   -8.4551997483e-02
    2.2799312592e+01   -8.5834398866e-02
    2.2899595261e+01   -8.7128199637e-02
    2.2998430252e+01   -8.8416598737e-02
    2.3099084854e+01   -8.9741997421e-02
    2.3199552536e+01   -9.1077901423e-02
    2.3299903870e+01   -9.2424601316e-02
    2.3399003983e+01   -9.3766696751e-02
    2.3498929977e+01   -9.5132701099e-02
    2.3598531723e+01   -9.6506997943e-02
    2.3698837280e+01   -9.7903497517e-02
    2.3799287796e+01   -9.9313996732e-02
    2.3898925781e+01   -1.0072399676e-01
    2.3999414444e+01   -1.0215800256e-01
    2.4099821091e+01   -1.0360299796e-01
    2.4199785233e+01   -1.0505200177e-01
    2.4299215317e+01   -1.0650499910e-01
    2.4398683548e+01   -1.0796999931e-01
    2.4498859406e+01   -1.0945799947e-01
    2.4599990845e+01   -1.1097300053e-01
    2.4699514389e+01   -1.1247699708e-01
    2.4799453735e+01   -1.1400199682e-01
    2.4899499893e+01   -1.1554399878e-01
    2.4998231888e+01   -1.1708000302e-01
    2.5099704742e+01   -1.1867599934e-01
    2.5198339462e+01   -1.2024399638e-01
    2.5299097061e+01   -1.2186300009e-01
    2.5399494171e+01   -1.2349300086e-01
    2.5499496460e+01   -1.2513600290e-01
    2.5599704742e+01   -1.2680099905e-01
    2.5699876785e+01   -1.2848499417e-01
    2.5799884796e+01   -1.3018600643e-01
    2.5899108887e+01   -1.3189500570e-01
    2.5998329163e+01   -1.3362599909e-01
    2.6099086761e+01   -1.3540500402e-01
    2.6199541092e+01   -1.3720299304e-01
    2.6299970627e+01   -1.3902400434e-01
    2.6399118423e+01   -1.4084500074e-01
    2.6499774933e+01   -1.4271800220e-01
    2.6598541260e+01   -1.4458000660e-01
    2.6699808121e+01   -1.4651499689e-01
    2.6799467087e+01   -1.4844399691e-01
    2.6899703979e+01   -1.5040999651e-01
    2.6999322891e+01   -1.5238800645e-01
    2.7098617554e+01   -1.5438500047e-01
    2.7199611664e+01   -1.5644000471e-01
    2.7298065186e+01   -1.5847000480e-01
    2.7399250031e+01   -1.6058099270e-01
    2.7499807358e+01   -1.6270400584e-01
    2.7599348068e+01   -1.6482999921e-01
    2.7699430466e+01   -1.6699199378e-01
    2.7799060822e+01   -1.6916899383e-01
    2.7899314880e+01   -1.7138299346e-01
    2.7998985291e+01   -1.7360900342e-01
    2.8098850250e+01   -1.7586299777e-01
    2.8199756622e+01   -1.7816500366e-01
    2.8298299789e+01   -1.8043600023e-01
    2.8398641586e+01   -1.8277299404e-01
    2.8500015259e+01   -1.8515799940e-01
    2.8597982407e+01   -1.8748700619e-01
    2.8700023651e+01   -1.8993499875e-01
    2.8798591614e+01   -1.9232299924e-01
    2.8899835587e+01   -1.9479699433e-01
    2.8998102188e+01   -1.9721899927e-01
    2.9099990845e+01   -1.9975399971e-01
    2.9198360443e+01   -2.0222200453e-01
    2.9299106598e+01   -2.0476999879e-01
    2.9398105621e+01   -2.0729300380e-01
    2.9499437332e+01   -2.0989599824e-01
    2.9599403381e+01   -2.1248400211e-01
    2.9699005127e+01   -2.1508200467e-01
    2.9799058914e+01   -2.1770900488e-01
    2.9898826599e+01   -2.2034600377e-01
    2.9998357773e+01   -2.2299200296e-01
    3.0098888397e+01   -2.2568100691e-01
    3.0199832916e+01   -2.2839699686e-01
    3.0299915314e+01   -2.3110599816e-01
    3.0399776459e+01   -2.3382200301e-01
    3.0498529434e+01   -2.3652200401e-01
    3.0599279404e+01   -2.3929099739e-01
    3.0698387146e+01   -2.4202899635e-01
    3.0798753738e+01   -2.4481600523e-01
    3.0899684906e+01   -2.4763299525e-01
    3.0999702454e+01   -2.5043898821e-01
    3.1099124908e+01   -2.5324198604e-01
    3.1198778152e+01   -2.5606599450e-01
    3.1298311234e+01   -2.5890299678e-01
    3.1398508072e+01   -2.6177498698e-01
    3.1499303818e+01   -2.6468101144e-01
    3.1599107742e+01   -2.6757600904e-01
    3.1698919296e+01   -2.7048799396e-01
    3.1798555374e+01   -2.7341300249e-01
    3.1899126053e+01   -2.7638399601e-01
    3.1999755859e+01   -2.7937600017e-01
    3.2098369598e+01   -2.8232601285e-01
    3.2198089600e+01   -2.8532901406e-01
    3.2298179626e+01   -2.8836199641e-01
    3.2399063110e+01   -2.9143899679e-01
    3.2499000549e+01   -2.9450801015e-01
    3.2599899292e+01   -2.9762700200e-01
    3.2699657440e+01   -3.0073198676e-01
    3.2799022675e+01   -3.0384600163e-01
    3.2898643494e+01   -3.0699101090e-01
    3.2999446869e+01   -3.1019699574e-01
    3.3098613739e+01   -3.1337198615e-01
    3.3199157715e+01   -3.1661298871e-01
    3.3298656464e+01   -3.1984201074e-01
    3.3399826050e+01   -3.2314598560e-01
    3.3499744415e+01   -3.2643100619e-01
    3.3599918365e+01   -3.2974600792e-01
    3.3699794769e+01   -3.3307299018e-01
    3.3798305511e+01   -3.3637401462e-01
    3.3898357391e+01   -3.3974701166e-01
    3.3998065948e+01   -3.4312701225e-01
    3.4099456787e+01   -3.4658399224e-01
    3.4198986053e+01   -3.4999701381e-01
    3.4299285889e+01   -3.5345599055e-01
    3.4399330139e+01   -3.5692599416e-01
    3.4498596191e+01   -3.6039000750e-01
    3.4599075317e+01   -3.6391898990e-01
    3.4699577332e+01   -3.6747199297e-01
    3.4798046112e+01   -3.7097701430e-01
    3.4898307800e+01   -3.7457200885e-01
    3.4999942780e+01   -3.7824401259e-01
    3.5099067688e+01   -3.8185399771e-01
    3.5199687958e+01   -3.8554900885e-01
    3.5298454285e+01   -3.8920500875e-01
    3.5398876190e+01   -3.9295199513e-01
    3.5498523712e+01   -3.9670199156e-01
    3.5598751068e+01   -4.0050798655e-01
    3.5698947906e+01   -4.0434700251e-01
    3.5798839569e+01   -4.0821099281e-01
    3.5899185181e+01   -4.1212901473e-01
    3.5998168945e+01   -4.1603198647e-01
    3.6099449158e+01   -4.2006599903e-01
    3.6199863434e+01   -4.2410600185e-01
    3.6299209595e+01   -4.2814400792e-01
    3.6399646759e+01   -4.3226701021e-01
    3.6499813080e+01   -4.3641999364e-01
    3.6598258972e+01   -4.4054299593e-01
    3.6699520111e+01   -4.4482800364e-01
    3.6799983978e+01   -4.4912201166e-01
    3.6899822235e+01   -4.5343300700e-01
    3.6998287201e+01   -4.5772498846e-01
    3.7098762512e+01   -4.6214801073e-01
    3.7199153900e+01   -4.6661001444e-01
    3.7298419952e+01   -4.7106599808e-01
    3.7398902893e+01   -4.7561898828e-01
    3.7498867035e+01   -4.8019099236e-01
    3.7598621368e+01   -4.8479500413e-01
    3.7698493958e+01   -4.8944699764e-01
    3.7798793793e+01   -4.9415999651e-01
    3.7899002075e+01   -4.9891099334e-01
    3.7998519897e+01   -5.0366997719e-01
    3.8098690033e+01   -5.0850099325e-01
    3.8199634552e+01   -5.1341098547e-01
    3.8298583984e+01   -5.1826500893e-01
    3.8399978638e+01   -5.2328097820e-01
    3.8499069214e+01   -5.2822500467e-01
    3.8599227905e+01   -5.3326302767e-01
    3.8699016571e+01   -5.3832101822e-01
    3.8798889160e+01   -5.4342097044e-01
    3.8899158478e+01   -5.4857802391e-01
    3.8999721527e+01   -5.5378800631e-01
    3.9098751068e+01   -5.5895400047e-01
    3.9199024200e+01   -5.6422197819e-01
    3.9298969269e+01   -5.6950598955e-01
    3.9399429321e+01   -5.7485300303e-01
    3.9499420166e+01   -5.8020800352e-01
    3.9598690033e+01   -5.8555799723e-01
    3.9698402405e+01   -5.9096497297e-01
    3.9798267365e+01   -5.9640997648e-01
    3.9899662018e+01   -6.0196697712e-01
    3.9998157501e+01   -6.0739099979e-01
    4.0098312378e+01   -6.1293298006e-01
    4.0199260712e+01   -6.1854499578e-01
    4.0299274445e+01   -6.2413102388e-01
    4.0399101257e+01   -6.2972998619e-01
    4.0499881744e+01   -6.3540601730e-01
    4.0598751068e+01   -6.4099699259e-01
    4.0697849274e+01   -6.4662301540e-01
    4.0798099518e+01   -6.5233999491e-01
    4.0898983002e+01   -6.5811502934e-01
    4.0999225616e+01   -6.6387701035e-01
    4.1098846436e+01   -6.6962397099e-01
    4.1198230743e+01   -6.7538201809e-01
    4.1299804688e+01   -6.8129301071e-01
    4.1398517609e+01   -6.8706399202e-01
    4.1499492645e+01   -6.9299501181e-01
    4.1599098206e+01   -6.9887399673e-01
    4.1698673248e+01   -7.0477801561e-01
    4.1798664093e+01   -7.1073698997e-01
    4.1899353027e+01   -7.1676802635e-01
    4.1998130798e+01   -7.2271400690e-01
    4.2098697662e+01   -7.2879898548e-01
    4.2198337555e+01   -7.3485702276e-01
    4.2299415588e+01   -7.4103397131e-01
    4.2397911072e+01   -7.4708497524e-01
    4.2498508453e+01   -7.5329798460e-01
    4.2599517822e+01   -7.5957101583e-01
    4.2698760986e+01   -7.6576799154e-01
    4.2797988892e+01   -7.7199900150e-01
    4.2898094177e+01   -7.7832198143e-01
    4.2999389648e+01   -7.8475701809e-01
    4.3098480225e+01   -7.9108798504e-01
    4.3199134827e+01   -7.9755502939e-01
    4.3299274445e+01   -8.0402201414e-01
    4.3398456573e+01   -8.1046199799e-01
    4.3498039246e+01   -8.1696301699e-01
    4.3598197937e+01   -8.2353597879e-01
    4.3699562073e+01   -8.3022499084e-01
    4.3798164368e+01   -8.3676499128e-01
    4.3898494720e+01   -8.4345197678e-01
    4.3997955322e+01   -8.5011500120e-01
    4.4099380493e+01   -8.5694098473e-01
    4.4199527740e+01   -8.6371397972e-01
    4.4299797058e+01   -8.7052798271e-01
    4.4399765015e+01   -8.7735402584e-01
    4.4499065399e+01   -8.8416898251e-01
    4.4599613190e+01   -8.9110600948e-01
    4.4699859619e+01   -8.9806097746e-01
    4.4799285889e+01   -9.0499800444e-01
    4.4899593353e+01   -9.1203898191e-01
    4.4998767853e+01   -9.1904300451e-01
    4.5098468781e+01   -9.2613101006e-01
    4.5199489594e+01   -9.3336099386e-01
    4.5298721313e+01   -9.4051200151e-01
    4.5399169922e+01   -9.4779902697e-01
    4.5498218536e+01   -9.5503497124e-01
    4.5598464966e+01   -9.6241098642e-01
    4.5698719025e+01   -9.6984297037e-01
    4.5798614502e+01   -9.7730600834e-01
    4.5898624420e+01   -9.8483502865e-01
    4.5999057770e+01   -9.9245697260e-01
    4.6098060608e+01   -1.0000300407e+00
    4.6197959900e+01   -1.0077400208e+00
    4.6298259735e+01   -1.0155400038e+00
    4.6398853302e+01   -1.0234299898e+00
    4.6498332977e+01   -1.0312900543e+00
    4.6598827362e+01   -1.0392999649e+00
    4.6699333191e+01   -1.0473799706e+00
    4.6799842834e+01   -1.0555299520e+00
    4.6898353577e+01   -1.0635800362e+00
    4.6998882294e+01   -1.0718699694e+00
    4.7099407196e+01   -1.0802099705e+00
    4.7199050903e+01   -1.0885499716e+00
    4.7299301147e+01   -1.0970100164e+00
    4.7397838593e+01   -1.1053899527e+00
    4.7498901367e+01   -1.1140500307e+00
    4.7598457336e+01   -1.1226500273e+00
    4.7699333191e+01   -1.1314200163e+00
    4.7799705505e+01   -1.1402100325e+00
    4.7897842407e+01   -1.1488699913e+00
    4.7998027802e+01   -1.1577800512e+00
    4.8098144531e+01   -1.1667399406e+00
    4.8198638916e+01   -1.1757999659e+00
    4.8299163818e+01   -1.1849199533e+00
    4.8398986816e+01   -1.1940399408e+00
    4.8499298096e+01   -1.2032799721e+00
    4.8599334717e+01   -1.2125500441e+00
    4.8698936462e+01   -1.2218400240e+00
    4.8798774719e+01   -1.2312099934e+00
    4.8899101257e+01   -1.2406799793e+00
    4.8997840881e+01   -1.2500599623e+00
    4.9097698212e+01   -1.2596000433e+00
    4.9198036194e+01   -1.2692400217e+00
    4.9299808502e+01   -1.2790700197e+00
    4.9398326874e+01   -1.2886400223e+00
    4.9498130798e+01   -1.2983900309e+00
    4.9598773956e+01   -1.3082699776e+00
    4.9699417114e+01   -1.3181999922e+00
    4.9799125671e+01   -1.3280800581e+00
    4.9899223328e+01   -1.3380399942e+00
    4.9997806549e+01   -1.3479000330e+00
    5.0097949982e+01   -1.3579399586e+00
    5.0198936462e+01   -1.3681199551e+00
    5.0298686981e+01   -1.3782000542e+00
    5.0398563385e+01   -1.3883299828e+00
    5.0499801636e+01   -1.3986400366e+00
    5.0598510742e+01   -1.4087200165e+00
    5.0699558258e+01   -1.4190800190e+00
    5.0797702789e+01   -1.4291700125e+00
    5.0898761749e+01   -1.4395899773e+00
    5.0999065399e+01   -1.4499700069e+00
    5.1098777771e+01   -1.4603199959e+00
    5.1197803497e+01   -1.4706300497e+00
    5.1299434662e+01   -1.4812599421e+00
    5.1398513794e+01   -1.4916499853e+00
    5.1497718811e+01   -1.5020999908e+00
    5.1599037170e+01   -1.5128099918e+00
    5.1698665619e+01   -1.5233800411e+00
    5.1798736572e+01   -1.5340399742e+00
    5.1898002625e+01   -1.5446599722e+00
    5.1998893738e+01   -1.5555000305e+00
    5.2099208832e+01   -1.5663199425e+00
    5.2198104858e+01   -1.5770299435e+00
    5.2298912048e+01   -1.5879900455e+00
    5.2398891449e+01   -1.5989099741e+00
    5.2499500275e+01   -1.6099499464e+00
    5.2599430084e+01   -1.6209700108e+00
    5.2698680878e+01   -1.6319500208e+00
    5.2798683167e+01   -1.6430799961e+00
    5.2898925781e+01   -1.6542799473e+00
    5.2998336792e+01   -1.6654399633e+00
    5.3098972321e+01   -1.6767899990e+00
    5.3199756622e+01   -1.6882200241e+00
    5.3299705505e+01   -1.6995899677e+00
    5.3398967743e+01   -1.7109400034e+00
    5.3498081207e+01   -1.7223199606e+00
    5.3597942352e+01   -1.7338399887e+00
    5.3698688507e+01   -1.7455199957e+00
    5.3799427032e+01   -1.7572400570e+00
    5.3898696899e+01   -1.7688399553e+00
    5.3997852325e+01   -1.7804800272e+00
    5.4098926544e+01   -1.7923799753e+00
    5.4199199677e+01   -1.8042500019e+00
    5.4299488068e+01   -1.8161599636e+00
    5.4399444580e+01   -1.8280899525e+00
    5.4498874664e+01   -1.8400000334e+00
    5.4599510193e+01   -1.8521100283e+00
    5.4697708130e+01   -1.8639800549e+00
    5.4798896790e+01   -1.8762799501e+00
    5.4899265289e+01   -1.8885400295e+00
    5.4998733521e+01   -1.9007500410e+00
    5.5098186493e+01   -1.9130200148e+00
    5.5199020386e+01   -1.9255399704e+00
    5.5298252106e+01   -1.9379299879e+00
    5.5398723602e+01   -1.9505399466e+00
    5.5498664856e+01   -1.9631700516e+00
    5.5598934174e+01   -1.9759099483e+00
    5.5699199677e+01   -1.9887299538e+00
    5.5798797607e+01   -2.0015399456e+00
    5.5898223877e+01   -2.0144100189e+00
    5.5998676300e+01   -2.0275099277e+00
    5.6099124908e+01   -2.0406899452e+00
    5.6199584961e+01   -2.0539600849e+00
    5.6297779083e+01   -2.0670199394e+00
    5.6398277283e+01   -2.0804800987e+00
    5.6499656677e+01   -2.0941500664e+00
    5.6598178864e+01   -2.1075201035e+00
    5.6698722839e+01   -2.1212599277e+00
    5.6799278259e+01   -2.1350998878e+00
    5.6897842407e+01   -2.1487600803e+00
    5.6998920441e+01   -2.1628599167e+00
    5.7099506378e+01   -2.1769800186e+00
    5.7198726654e+01   -2.1909999847e+00
    5.7299350739e+01   -2.2053101063e+00
    5.7397956848e+01   -2.2194299698e+00
    5.7499572754e+01   -2.2340700626e+00
    5.7598880768e+01   -2.2484600544e+00
    5.7698261261e+01   -2.2629599571e+00
    5.7798713684e+01   -2.2776899338e+00
    5.7899173737e+01   -2.2925200462e+00
    5.7999431610e+01   -2.3074100018e+00
    5.8097606659e+01   -2.3220698833e+00
    5.8199443817e+01   -2.3373699188e+00
    5.8298030853e+01   -2.3522601128e+00
    5.8398441315e+01   -2.3675200939e+00
    5.8497840881e+01   -2.3827099800e+00
    5.8597908020e+01   -2.3980801105e+00
    5.8699375153e+01   -2.4137599468e+00
    5.8799114227e+01   -2.4292500019e+00
    5.8899513245e+01   -2.4449200630e+00
    5.8997829437e+01   -2.4603400230e+00
    5.9097881317e+01   -2.4761099815e+00
    5.9198299408e+01   -2.4920101166e+00
    5.9299518585e+01   -2.5081200600e+00
    5.9398120880e+01   -2.5238800049e+00
    5.9498588562e+01   -2.5399999619e+00
    5.9599578857e+01   -2.5562798977e+00
    5.9698368073e+01   -2.5722699165e+00
    5.9797969818e+01   -2.5884499550e+00
    5.9899490356e+01   -2.6050000191e+00
    5.9998550415e+01   -2.6212100983e+00
    6.0098800659e+01   -2.6376600266e+00
    6.0197673798e+01   -2.6539399624e+00
    6.0299591064e+01   -2.6707599163e+00
    6.0399276733e+01   -2.6872699261e+00
    6.0498588562e+01   -2.7037599087e+00
    6.0599491119e+01   -2.7205600739e+00
    6.0698345184e+01   -2.7370600700e+00
    6.0798645020e+01   -2.7538399696e+00
    6.0899639130e+01   -2.7707901001e+00
    6.0997974396e+01   -2.7873299122e+00
    6.1097682953e+01   -2.8041400909e+00
    6.1198387146e+01   -2.8211700916e+00
    6.1297801971e+01   -2.8380200863e+00
    6.1398715973e+01   -2.8551800251e+00
    6.1497650146e+01   -2.8720600605e+00
    6.1598873138e+01   -2.8893699646e+00
    6.1698242188e+01   -2.9064199924e+00
    6.1798027039e+01   -2.9235999584e+00
    6.1898254395e+01   -2.9409101009e+00
    6.1998786926e+01   -2.9583299160e+00
    6.2099498749e+01   -2.9758400917e+00
    6.2199020386e+01   -2.9932000637e+00
    6.2298179626e+01   -3.0105500221e+00
    6.2398490906e+01   -3.0281701088e+00
    6.2499271393e+01   -3.0459299088e+00
    6.2597793579e+01   -3.0633599758e+00
    6.2699069977e+01   -3.0813400745e+00
    6.2799461365e+01   -3.0992300510e+00
    6.2898593903e+01   -3.1169600487e+00
    6.2999542236e+01   -3.1350901127e+00
    6.3098785400e+01   -3.1529800892e+00
    6.3197685242e+01   -3.1708800793e+00
    6.3297672272e+01   -3.1890399456e+00
    6.3398708344e+01   -3.2074499130e+00
    6.3499557495e+01   -3.2258999348e+00
    6.3599258423e+01   -3.2442100048e+00
    6.3698112488e+01   -3.2624199390e+00
    6.3798973083e+01   -3.2810800076e+00
    6.3897838593e+01   -3.2994298935e+00
    6.3998752594e+01   -3.3182199001e+00
    6.4099327087e+01   -3.3370199203e+00
    6.4197654724e+01   -3.3554599285e+00
    6.4298240662e+01   -3.3743898869e+00
    6.4398399353e+01   -3.3933100700e+00
    6.4499412537e+01   -3.4124600887e+00
    6.4598121643e+01   -3.4312400818e+00
    6.4698661804e+01   -3.4504499435e+00
    6.4798332214e+01   -3.4695699215e+00
    6.4898757935e+01   -3.4889199734e+00
    6.4997772217e+01   -3.5080800056e+00
    6.5099143982e+01   -3.5277900696e+00
    6.5197891235e+01   -3.5470800400e+00
    6.5299224854e+01   -3.5669701099e+00
    6.5397705078e+01   -3.5863900185e+00
    6.5497535706e+01   -3.6061699390e+00
    6.5597808838e+01   -3.6261401176e+00
    6.5697944641e+01   -3.6461899281e+00
    6.5799468994e+01   -3.6666300297e+00
    6.5899177551e+01   -3.6868100166e+00
    6.5997619629e+01   -3.7068400383e+00
    6.6098075867e+01   -3.7273900509e+00
    6.6198547363e+01   -3.7480599880e+00
    6.6297752380e+01   -3.7685999870e+00
    6.6398277283e+01   -3.7895100117e+00
    6.6498817444e+01   -3.8105599880e+00
    6.6599380493e+01   -3.8317201138e+00
    6.6697944641e+01   -3.8525800705e+00
    6.6798538208e+01   -3.8739900589e+00
    6.6899154663e+01   -3.8955299854e+00
    6.6997772217e+01   -3.9167499542e+00
    6.7098403931e+01   -3.9385199547e+00
    6.7197799683e+01   -3.9601399899e+00
    6.7299232483e+01   -3.9823300838e+00
    6.7397903442e+01   -4.0040202141e+00
    6.7499450684e+01   -4.0264601707e+00
    6.7598495483e+01   -4.0484600067e+00
    6.7698562622e+01   -4.0707898140e+00
    6.7799079895e+01   -4.0933399200e+00
    6.7899513245e+01   -4.1159901619e+00
    6.7997550964e+01   -4.1381998062e+00
    6.8097465515e+01   -4.1609401703e+00
    6.8197738647e+01   -4.1838698387e+00
    6.8298423767e+01   -4.2070097923e+00
    6.8399162292e+01   -4.2302598953e+00
    6.8497413635e+01   -4.2530498505e+00
    6.8597419739e+01   -4.2763500214e+00
    6.8698593140e+01   -4.3000302315e+00
    6.8797821045e+01   -4.3233499527e+00
    6.8898292542e+01   -4.3470602036e+00
    6.8998565674e+01   -4.3708200455e+00
    6.9098815918e+01   -4.3946800232e+00
    6.9199317932e+01   -4.4186801910e+00
    6.9297958374e+01   -4.4423298836e+00
    6.9398658752e+01   -4.4665598869e+00
    6.9497528076e+01   -4.4904298782e+00
    6.9598785400e+01   -4.5149598122e+00
    6.9699012756e+01   -4.5393199921e+00
    6.9798469543e+01   -4.5635700226e+00
    6.9897918701e+01   -4.5878901482e+00
    6.9998741150e+01   -4.6125998497e+00
    7.0098770142e+01   -4.6371898651e+00
    7.0197593689e+01   -4.6615300179e+00
    7.0299331665e+01   -4.6866598129e+00
    7.0398887634e+01   -4.7112998962e+00
    7.0498146057e+01   -4.7359199524e+00
    7.0598922729e+01   -4.7609601021e+00
    7.0697723389e+01   -4.7855701447e+00
    7.0797935486e+01   -4.8105797768e+00
    7.0898986816e+01   -4.8358497620e+00
    7.0997436523e+01   -4.8605198860e+00
    7.1099281311e+01   -4.8860797882e+00
    7.1197463989e+01   -4.9107699394e+00
    7.1298927307e+01   -4.9363498688e+00
    7.1398429871e+01   -4.9614801407e+00
    7.1497489929e+01   -4.9865698814e+00
    7.1598602295e+01   -5.0122299194e+00
    7.1697875977e+01   -5.0374798775e+00
    7.1797737122e+01   -5.0629401207e+00
    7.1898521423e+01   -5.0887098312e+00
    7.1998237610e+01   -5.1142702103e+00
    7.2098480225e+01   -5.1400299072e+00
    7.2197616577e+01   -5.1655697823e+00
    7.2298660278e+01   -5.1916699409e+00
    7.2398811340e+01   -5.2176098824e+00
    7.2499229431e+01   -5.2437000275e+00
    7.2599159241e+01   -5.2697300911e+00
    7.2698158264e+01   -5.2955899239e+00
    7.2798927307e+01   -5.3220000267e+00
    7.2898223877e+01   -5.3481001854e+00
    7.2999290466e+01   -5.3747401237e+00
    7.3098312378e+01   -5.4009299278e+00
    7.3199340820e+01   -5.4277200699e+00
    7.3297927856e+01   -5.4539399147e+00
    7.3398887634e+01   -5.4808797836e+00
    7.3499389648e+01   -5.5077700615e+00
    7.3599090576e+01   -5.5345201492e+00
    7.3698051453e+01   -5.5611600876e+00
    7.3799026489e+01   -5.5884099007e+00
    7.3897460938e+01   -5.6150598526e+00
    7.3998039246e+01   -5.6423702240e+00
    7.4099250793e+01   -5.6699299812e+00
    7.4197731018e+01   -5.6968197823e+00
    7.4298301697e+01   -5.7243700027e+00
    7.4398780823e+01   -5.7519698143e+00
    7.4497955322e+01   -5.7792901993e+00
    7.4598747253e+01   -5.8071599007e+00
    7.4698951721e+01   -5.8349499702e+00
    7.4799346924e+01   -5.8628802299e+00
    7.4897666931e+01   -5.8903398514e+00
    7.4997718811e+01   -5.9183797836e+00
    7.5097938538e+01   -5.9465799332e+00
    7.5198051453e+01   -5.9748601913e+00
    7.5297737122e+01   -6.0031299591e+00
    7.5398223877e+01   -6.0317401886e+00
    7.5498619080e+01   -6.0604400635e+00
    7.5598892212e+01   -6.0892200470e+00
    7.5698959351e+01   -6.1180701256e+00
    7.5798217773e+01   -6.1468100548e+00
    7.5898078918e+01   -6.1758499146e+00
    7.5998512268e+01   -6.2051901817e+00
    7.6098945618e+01   -6.2346601486e+00
    7.6198135376e+01   -6.2638998032e+00
    7.6299026489e+01   -6.2937798500e+00
    7.6397537231e+01   -6.3230900764e+00
    7.6498077393e+01   -6.3531298637e+00
    7.6598640442e+01   -6.3833198547e+00
    7.6699226379e+01   -6.4136500359e+00
    7.6797813416e+01   -6.4435200691e+00
    7.6898445129e+01   -6.4741401672e+00
    7.6999084473e+01   -6.5048999786e+00
    7.7097724915e+01   -6.5351700783e+00
    7.7197547913e+01   -6.5659399033e+00
    7.7297508240e+01   -6.5968799591e+00
    7.7398239136e+01   -6.6281900406e+00
    7.7499069214e+01   -6.6596698761e+00
    7.7597511292e+01   -6.6905198097e+00
    7.7697578430e+01   -6.7220001221e+00
    7.7798149109e+01   -6.7537698746e+00
    7.7898727417e+01   -6.7856698036e+00
    7.7999000549e+01   -6.8175902367e+00
    7.8099029541e+01   -6.8495497704e+00
    7.8198097229e+01   -6.8813199997e+00
    7.8298843384e+01   -6.9137501717e+00
    7.8397895813e+01   -6.9457597733e+00
    7.8498397827e+01   -6.9783501625e+00
    7.8598243713e+01   -7.0108399391e+00
    7.8699134827e+01   -7.0437798500e+00
    7.8798233032e+01   -7.0762500763e+00
    7.8898757935e+01   -7.1092901230e+00
    7.8999099731e+01   -7.1423802376e+00
    7.9098800659e+01   -7.1753501892e+00
    7.9197227478e+01   -7.2080101967e+00
    7.9298713684e+01   -7.2417697906e+00
    7.9397483826e+01   -7.2747201920e+00
    7.9498268127e+01   -7.3084402084e+00
    7.9597702026e+01   -7.3417801857e+00
    7.9698463440e+01   -7.3756599426e+00
    7.9798706055e+01   -7.4094400406e+00
    7.9898254395e+01   -7.4430599213e+00
    7.9999183655e+01   -7.4772100449e+00
    8.0099342346e+01   -7.5111699104e+00
    8.0198188782e+01   -7.5447301865e+00
    8.0297851562e+01   -7.5786399841e+00
    8.0397384644e+01   -7.6125497818e+00
    8.0498878479e+01   -7.6471700668e+00
    8.0597755432e+01   -7.6809601784e+00
    8.0698669434e+01   -7.7154898643e+00
    8.0798789978e+01   -7.7498002052e+00
    8.0897834778e+01   -7.7837901115e+00
    8.0998413086e+01   -7.8183498383e+00
    8.1098167419e+01   -7.8526601791e+00
    8.1198059082e+01   -7.8870701790e+00
    8.1297584534e+01   -7.9214100838e+00
    8.1399230957e+01   -7.9565300941e+00
    8.1498573303e+01   -7.9909000397e+00
    8.1597755432e+01   -8.0252799988e+00
    8.1699058533e+01   -8.0604496002e+00
    8.1798805237e+01   -8.0951404572e+00
    8.1897491455e+01   -8.1295204163e+00
    8.1998199463e+01   -8.1646699905e+00
    8.2097534180e+01   -8.1993999481e+00
    8.2198646545e+01   -8.2348203659e+00
    8.2297843933e+01   -8.2696304321e+00
    8.2397819519e+01   -8.3047895432e+00
    8.2497947693e+01   -8.3400802612e+00
    8.2597587585e+01   -8.3752698898e+00
    8.2698677063e+01   -8.4110403061e+00
    8.2798019409e+01   -8.4462699890e+00
    8.2899147034e+01   -8.4822196960e+00
    8.2998252869e+01   -8.5175304413e+00
    8.3097335815e+01   -8.5529098511e+00
    8.3198417664e+01   -8.5890798569e+00
    8.3297454834e+01   -8.6246004105e+00
    8.3398284912e+01   -8.6608400345e+00
    8.3498504639e+01   -8.6969499588e+00
    8.3598274231e+01   -8.7329702377e+00
    8.3697303772e+01   -8.7688102722e+00
    8.3798347473e+01   -8.8054504395e+00
    8.3898452759e+01   -8.8418502808e+00
    8.3998771667e+01   -8.8783998489e+00
    8.4097610474e+01   -8.9144897461e+00
    8.4198112488e+01   -8.9512796402e+00
    8.4298561096e+01   -8.9881296158e+00
    8.4398628235e+01   -9.0249300003e+00
    8.4497459412e+01   -9.0613603592e+00
    8.4598266602e+01   -9.0986204147e+00
    8.4698417664e+01   -9.1357402802e+00
    8.4797554016e+01   -9.1725702286e+00
    8.4898002625e+01   -9.2100000381e+00
    8.4997154236e+01   -9.2470598221e+00
    8.5098831177e+01   -9.2851800919e+00
    8.5197196960e+01   -9.3221797943e+00
    8.5298828125e+01   -9.3605298996e+00
    8.5397277832e+01   -9.3978004456e+00
    8.5498176575e+01   -9.4361200333e+00
    8.5598411560e+01   -9.4743204117e+00
    8.5698425293e+01   -9.5125703812e+00
    8.5797668457e+01   -9.5506696701e+00
    8.5897262573e+01   -9.5890302658e+00
    8.5997642517e+01   -9.6278295517e+00
    8.6098022461e+01   -9.6667699814e+00
    8.6199165344e+01   -9.7061595917e+00
    8.6298286438e+01   -9.7448997498e+00
    8.6398757935e+01   -9.7843103409e+00
    8.6497253418e+01   -9.8230895996e+00
    8.6597785950e+01   -9.8628101349e+00
    8.6698348999e+01   -9.9026899338e+00
    8.6798927307e+01   -9.9427099228e+00
    8.6897521973e+01   -9.9820899963e+00
    8.6998008728e+01   -1.0022399902e+01
    8.7097480774e+01   -1.0062399864e+01
    8.7199012756e+01   -1.0103300095e+01
    8.7298263550e+01   -1.0143500328e+01
    8.7399002075e+01   -1.0184399605e+01
    8.7498977661e+01   -1.0225099564e+01
    8.7597389221e+01   -1.0265299797e+01
    8.7698982239e+01   -1.0307000160e+01
    8.7797431946e+01   -1.0347399712e+01
    8.7898033142e+01   -1.0388899803e+01
    8.7998367310e+01   -1.0430399895e+01
    8.8098220825e+01   -1.0471799850e+01
    8.8198577881e+01   -1.0513600349e+01
    8.8297332764e+01   -1.0554800034e+01
    8.8398300171e+01   -1.0597000122e+01
    8.8498825073e+01   -1.0639200211e+01
    8.8598434448e+01   -1.0680999756e+01
    8.8699089050e+01   -1.0723500252e+01
    8.8797904968e+01   -1.0765199661e+01
    8.8898475647e+01   -1.0807800293e+01
    8.8999099731e+01   -1.0850600243e+01
    8.9097602844e+01   -1.0892499924e+01
    8.9198226929e+01   -1.0935400009e+01
    8.9298820496e+01   -1.0978400230e+01
    8.9397926331e+01   -1.1020799637e+01
    8.9498771667e+01   -1.1064100266e+01
    8.9597633362e+01   -1.1106599808e+01
    8.9697586060e+01   -1.1149600029e+01
    8.9798973083e+01   -1.1193300247e+01
    8.9898147583e+01   -1.1236200333e+01
    8.9999160767e+01   -1.1279899597e+01
    9.0097259521e+01   -1.1322299957e+01
    9.0198120117e+01   -1.1366000175e+01
    9.0297683716e+01   -1.1409199715e+01
    9.0399131775e+01   -1.1453300476e+01
    9.0498565674e+01   -1.1496500015e+01
    9.0597503662e+01   -1.1539600372e+01
    9.0698234558e+01   -1.1583399773e+01
    9.0798393250e+01   -1.1627099991e+01
    9.0897216797e+01   -1.1670200348e+01
    9.0997528076e+01   -1.1713999748e+01
    9.1097534180e+01   -1.1757599831e+01
    9.1199119568e+01   -1.1802000046e+01
    9.1298919678e+01   -1.1845700264e+01
    9.1398345947e+01   -1.1889200211e+01
    9.1497810364e+01   -1.1932800293e+01
    9.1597274780e+01   -1.1976400375e+01
    9.1698348999e+01   -1.2020799637e+01
    9.1797943115e+01   -1.2064599991e+01
    9.1898361206e+01   -1.2108799934e+01
    9.1998710632e+01   -1.2152999878e+01
    9.2098670959e+01   -1.2196999550e+01
    9.2197799683e+01   -1.2240799904e+01
    9.2297500610e+01   -1.2284899712e+01
    9.2397270203e+01   -1.2329000473e+01
    9.2497146606e+01   -1.2373299599e+01
    9.2598716736e+01   -1.2418399811e+01
    9.2697563171e+01   -1.2462300301e+01
    9.2799087524e+01   -1.2507499695e+01
    9.2898223877e+01   -1.2551699638e+01
    9.2997360229e+01   -1.2595999718e+01
    9.3098487854e+01   -1.2641200066e+01
    9.3197570801e+01   -1.2685600281e+01
    9.3298645020e+01   -1.2730999947e+01
    9.3397590637e+01   -1.2775500298e+01
    9.3497581482e+01   -1.2820500374e+01
    9.3597373962e+01   -1.2865500450e+01
    9.3698448181e+01   -1.2911100388e+01
    9.3797485352e+01   -1.2955900192e+01
    9.3898063660e+01   -1.3001500130e+01
    9.3998168945e+01   -1.3046999931e+01
    9.4098831177e+01   -1.3092800140e+01
    9.4197235107e+01   -1.3137599945e+01
    9.4297615051e+01   -1.3183400154e+01
    9.4397552490e+01   -1.3229100227e+01
    9.4498397827e+01   -1.3275300026e+01
    9.4597183228e+01   -1.3320699692e+01
    9.4697586060e+01   -1.3366900444e+01
    9.4798522949e+01   -1.3413499832e+01
    9.4898948669e+01   -1.3459899902e+01
    9.4998558044e+01   -1.3505999565e+01
    9.5098770142e+01   -1.3552599907e+01
    9.5197601318e+01   -1.3598600388e+01
    9.5297447205e+01   -1.3645299911e+01
    9.5397842407e+01   -1.3692299843e+01
    9.5498519897e+01   -1.3739600182e+01
    9.5598686218e+01   -1.3786700249e+01
    9.5698699951e+01   -1.3833999634e+01
    9.5797882080e+01   -1.3880999565e+01
    9.5897994995e+01   -1.3928600311e+01
    9.5998298645e+01   -1.3976400375e+01
    9.6099105835e+01   -1.4024600029e+01
    9.6198791504e+01   -1.4072400093e+01
    9.6297157288e+01   -1.4119700432e+01
    9.6397583008e+01   -1.4168199539e+01
    9.6498054504e+01   -1.4216799736e+01
    9.6598564148e+01   -1.4265600204e+01
    9.6697082520e+01   -1.4313500404e+01
    9.6797630310e+01   -1.4362600327e+01
    9.6898208618e+01   -1.4411899567e+01
    9.6997657776e+01   -1.4460700035e+01
    9.7097152710e+01   -1.4509699821e+01
    9.7198387146e+01   -1.4559700012e+01
    9.7297431946e+01   -1.4608699799e+01
    9.7398178101e+01   -1.4658699989e+01
    9.7499053955e+01   -1.4708900452e+01
    9.7597404480e+01   -1.4758000374e+01
    9.7698837280e+01   -1.4808699608e+01
    9.7797302246e+01   -1.4858099937e+01
    9.7897918701e+01   -1.4908599854e+01
    9.7998336792e+01   -1.4959199905e+01
    9.8097831726e+01   -1.5009400368e+01
    9.8198570251e+01   -1.5060299873e+01
    9.8297325134e+01   -1.5110400200e+01
    9.8398536682e+01   -1.5161800385e+01
    9.8499061584e+01   -1.5213000298e+01
    9.8598472595e+01   -1.5263600349e+01
    9.8698883057e+01   -1.5314900398e+01
    9.8797882080e+01   -1.5365599632e+01
    9.8898460388e+01   -1.5417200089e+01
    9.8997726440e+01   -1.5468199730e+01
    9.9098762512e+01   -1.5520199776e+01
    9.9197280884e+01   -1.5570899963e+01
    9.9297790527e+01   -1.5622799873e+01
    9.9397377014e+01   -1.5674200058e+01
    9.9498268127e+01   -1.5726499557e+01
    9.9597183228e+01   -1.5777700424e+01
    9.9697731018e+01   -1.5829899788e+01
    9.9797698975e+01   -1.5881799698e+01
    9.9898788452e+01   -1.5934300423e+01
    9.9997863770e+01   -1.5985899925e+01
    1.0009793854e+02   -1.6038000107e+01
    1.0019891357e+02   -1.6090499878e+01
    1.0029840088e+02   -1.6142400742e+01
    1.0039762878e+02   -1.6194099426e+01
    1.0049706268e+02   -1.6246000290e+01
    1.0059812927e+02   -1.6298700333e+01
    1.0069702911e+02   -1.6350400925e+01
    1.0079696655e+02   -1.6402500153e+01
    1.0089778900e+02   -1.6455200195e+01
    1.0099755859e+02   -1.6507400513e+01
    1.0109745789e+02   -1.6559600830e+01
    1.0119873047e+02   -1.6612499237e+01
    1.0129843140e+02   -1.6664699554e+01
    1.0139746857e+02   -1.6716499329e+01
    1.0149851227e+02   -1.6769399643e+01
    1.0159795380e+02   -1.6821500778e+01
    1.0169882965e+02   -1.6874399185e+01
    1.0179828644e+02   -1.6926500320e+01
    1.0189882660e+02   -1.6979299545e+01
    1.0199703217e+02   -1.7030899048e+01
    1.0209732056e+02   -1.7083599091e+01
    1.0219748688e+02   -1.7136299133e+01
    1.0229852295e+02   -1.7189399719e+01
    1.0239785767e+02   -1.7241800308e+01
    1.0249742126e+02   -1.7294300079e+01
    1.0259876251e+02   -1.7347799301e+01
    1.0269750214e+02   -1.7399900436e+01
    1.0279778290e+02   -1.7452999115e+01
    1.0289897156e+02   -1.7506500244e+01
    1.0299813080e+02   -1.7559099197e+01
    1.0309726715e+02   -1.7611700058e+01
    1.0319838715e+02   -1.7665500641e+01
    1.0329744720e+02   -1.7718200684e+01
    1.0339803314e+02   -1.7771699905e+01
    1.0349788666e+02   -1.7825000763e+01
    1.0359757996e+02   -1.7878200531e+01
    1.0369864655e+02   -1.7932300568e+01
    1.0379770660e+02   -1.7985300064e+01
    1.0389817047e+02   -1.8039199829e+01
    1.0399803925e+02   -1.8092899323e+01
    1.0409745789e+02   -1.8146299362e+01
    1.0419802094e+02   -1.8200500488e+01
    1.0429865265e+02   -1.8254800797e+01
    1.0439865112e+02   -1.8308799744e+01
    1.0449745941e+02   -1.8362300873e+01
    1.0459824371e+02   -1.8416999817e+01
    1.0469860840e+02   -1.8471500397e+01
    1.0479772186e+02   -1.8525499344e+01
    1.0489810944e+02   -1.8580200195e+01
    1.0499841309e+02   -1.8635099411e+01
    1.0509858704e+02   -1.8689899445e+01
    1.0519731903e+02   -1.8744199753e+01
    1.0529698944e+02   -1.8798999786e+01
    1.0539730835e+02   -1.8854400635e+01
    1.0549777222e+02   -1.8909999847e+01
    1.0559786224e+02   -1.8965499878e+01
    1.0569785309e+02   -1.9021099091e+01
    1.0579740906e+02   -1.9076700211e+01
    1.0589817047e+02   -1.9132999420e+01
    1.0599842072e+02   -1.9189199448e+01
    1.0609754181e+02   -1.9244899750e+01
    1.0619882202e+02   -1.9302000046e+01
    1.0629714966e+02   -1.9357599258e+01
    1.0639755249e+02   -1.9414499283e+01
    1.0649800873e+02   -1.9471599579e+01
    1.0659851074e+02   -1.9528900146e+01
    1.0669702911e+02   -1.9585199356e+01
    1.0679757690e+02   -1.9642799377e+01
    1.0689733124e+02   -1.9700099945e+01
    1.0699730682e+02   -1.9757699966e+01
    1.0709716034e+02   -1.9815299988e+01
    1.0719835663e+02   -1.9873899460e+01
    1.0729762268e+02   -1.9931400299e+01
    1.0739839935e+02   -1.9989999771e+01
    1.0749803162e+02   -2.0048000336e+01
    1.0759813690e+02   -2.0106500626e+01
    1.0769702911e+02   -2.0164300919e+01
    1.0779769135e+02   -2.0223300934e+01
    1.0789836121e+02   -2.0282400131e+01
    1.0799880219e+02   -2.0341499329e+01
    1.0809809113e+02   -2.0399999619e+01
    1.0819786072e+02   -2.0458999634e+01
    1.0829866791e+02   -2.0518600464e+01
    1.0839803314e+02   -2.0577400208e+01
    1.0849858093e+02   -2.0637100220e+01
    1.0859761047e+02   -2.0695999146e+01
    1.0869766235e+02   -2.0755500793e+01
    1.0879873657e+02   -2.0815799713e+01
    1.0889721680e+02   -2.0874599457e+01
    1.0899880219e+02   -2.0935300827e+01
    1.0909736633e+02   -2.0994300842e+01
    1.0919795990e+02   -2.1054599762e+01
    1.0929850006e+02   -2.1114900589e+01
    1.0939861298e+02   -2.1174999237e+01
    1.0949755859e+02   -2.1234500885e+01
    1.0959857178e+02   -2.1295299530e+01
    1.0969856262e+02   -2.1355499268e+01
    1.0979805756e+02   -2.1415500641e+01
    1.0989807892e+02   -2.1475799561e+01
    1.0999726105e+02   -2.1535699844e+01
    1.1009728241e+02   -2.1596099854e+01
    1.1019808197e+02   -2.1656900406e+01
    1.1029727173e+02   -2.1716800690e+01
    1.1039814758e+02   -2.1777799606e+01
    1.1049738312e+02   -2.1837799072e+01
    1.1059838867e+02   -2.1898799896e+01
    1.1069702911e+02   -2.1958400726e+01
    1.1079875183e+02   -2.2019899368e+01
    1.1089732361e+02   -2.2079500198e+01
    1.1099829865e+02   -2.2140600204e+01
    1.1109825134e+02   -2.2201099396e+01
    1.1119698334e+02   -2.2260799408e+01
    1.1129715729e+02   -2.2321399689e+01
    1.1139816284e+02   -2.2382499695e+01
    1.1149851227e+02   -2.2443300247e+01
    1.1159812164e+02   -2.2503599167e+01
    1.1169847870e+02   -2.2564399719e+01
    1.1179792023e+02   -2.2624599457e+01
    1.1189813232e+02   -2.2685400009e+01
    1.1199812317e+02   -2.2746099472e+01
    1.1209838104e+02   -2.2806900024e+01
    1.1219821167e+02   -2.2867500305e+01
    1.1229782867e+02   -2.2928100586e+01
    1.1239859009e+02   -2.2989299774e+01
    1.1249768066e+02   -2.3049600601e+01
    1.1259861755e+02   -2.3111099243e+01
    1.1269741821e+02   -2.3171300888e+01
    1.1279798889e+02   -2.3232700348e+01
    1.1289723206e+02   -2.3293300629e+01
    1.1299848938e+02   -2.3355199814e+01
    1.1309768677e+02   -2.3415899277e+01
    1.1319683838e+02   -2.3476699829e+01
    1.1329797363e+02   -2.3538700104e+01
    1.1339833832e+02   -2.3600299835e+01
    1.1349767303e+02   -2.3661399841e+01
    1.1359710693e+02   -2.3722600937e+01
    1.1369822693e+02   -2.3784999847e+01
    1.1379731750e+02   -2.3846200943e+01
    1.1389781952e+02   -2.3908300400e+01
    1.1399732208e+02   -2.3969900131e+01
    1.1409726715e+02   -2.4031900406e+01
    1.1419766235e+02   -2.4094200134e+01
    1.1429837036e+02   -2.4156799316e+01
    1.1439779663e+02   -2.4218700409e+01
    1.1449864197e+02   -2.4281700134e+01
    1.1459739685e+02   -2.4343399048e+01
    1.1469763184e+02   -2.4406200409e+01
    1.1479746246e+02   -2.4468799591e+01
    1.1489782715e+02   -2.4531900406e+01
    1.1499810028e+02   -2.4595100403e+01
    1.1509819794e+02   -2.4658300400e+01
    1.1519879150e+02   -2.4722000122e+01
    1.1529727936e+02   -2.4784500122e+01
    1.1539756775e+02   -2.4848300934e+01
    1.1549771118e+02   -2.4912099838e+01
    1.1559777832e+02   -2.4976100922e+01
    1.1569779968e+02   -2.5040199280e+01
    1.1579750061e+02   -2.5104200363e+01
    1.1589701080e+02   -2.5168300629e+01
    1.1599759674e+02   -2.5233299255e+01
    1.1609822083e+02   -2.5298500061e+01
    1.1619699860e+02   -2.5362600327e+01
    1.1629736328e+02   -2.5427999496e+01
    1.1639779663e+02   -2.5493600845e+01
    1.1649830627e+02   -2.5559400558e+01
    1.1659686279e+02   -2.5624000549e+01
    1.1669745636e+02   -2.5690200806e+01
    1.1679810333e+02   -2.5756599426e+01
    1.1689797211e+02   -2.5822700500e+01
    1.1699820709e+02   -2.5889099121e+01
    1.1709780121e+02   -2.5955299377e+01
    1.1719853210e+02   -2.6022399902e+01
    1.1729685974e+02   -2.6087999344e+01
    1.1739775848e+02   -2.6155500412e+01
    1.1749775696e+02   -2.6222499847e+01
    1.1759709930e+02   -2.6289199829e+01
    1.1769738007e+02   -2.6356599808e+01
    1.1779820251e+02   -2.6424600601e+01
    1.1789688110e+02   -2.6491199493e+01
    1.1799742889e+02   -2.6559299469e+01
    1.1809696198e+02   -2.6626699448e+01
    1.1819686127e+02   -2.6694499969e+01
    1.1829779816e+02   -2.6763099670e+01
    1.1839765167e+02   -2.6831100464e+01
    1.1849830627e+02   -2.6899799347e+01
    1.1859697723e+02   -2.6967100143e+01
    1.1869850159e+02   -2.7036600113e+01
    1.1879739380e+02   -2.7104299545e+01
    1.1889813232e+02   -2.7173299789e+01
    1.1899855804e+02   -2.7242200851e+01
    1.1909863281e+02   -2.7311000824e+01
    1.1919841003e+02   -2.7379600525e+01
    1.1929839325e+02   -2.7448499680e+01
    1.1939674377e+02   -2.7516300201e+01
    1.1949784088e+02   -2.7586000443e+01
    1.1959696960e+02   -2.7654399872e+01
    1.1969860840e+02   -2.7724599838e+01
    1.1979730988e+02   -2.7792900085e+01
    1.1989704132e+02   -2.7861900330e+01
    1.1999839783e+02   -2.7931999207e+01
    1.2009832764e+02   -2.8001199722e+01
    1.2019702911e+02   -2.8069599152e+01
    1.2029798126e+02   -2.8139499664e+01
    1.2039840698e+02   -2.8209100723e+01
    1.2049746704e+02   -2.8277700424e+01
    1.2059839630e+02   -2.8347700119e+01
    1.2069819641e+02   -2.8416900635e+01
    1.2079762268e+02   -2.8485799789e+01
    1.2089765930e+02   -2.8555200577e+01
    1.2099774170e+02   -2.8624599457e+01
    1.2109789276e+02   -2.8694099426e+01
    1.2119673920e+02   -2.8762599945e+01
    1.2129785156e+02   -2.8832799911e+01
    1.2139811707e+02   -2.8902399063e+01
    1.2149752808e+02   -2.8971500397e+01
    1.2159797668e+02   -2.9041299820e+01
    1.2169786072e+02   -2.9110700607e+01
    1.2179691315e+02   -2.9179599762e+01
    1.2189707184e+02   -2.9249200821e+01
    1.2199713898e+02   -2.9318899155e+01
    1.2209689331e+02   -2.9388399124e+01
    1.2219714355e+02   -2.9458299637e+01
    1.2229724121e+02   -2.9528099060e+01
    1.2239733887e+02   -2.9597900391e+01
    1.2249781036e+02   -2.9668100357e+01
    1.2259813690e+02   -2.9738300323e+01
    1.2269654846e+02   -2.9807199478e+01
    1.2279759979e+02   -2.9878000259e+01
    1.2289697266e+02   -2.9947700500e+01
    1.2299835205e+02   -3.0018899918e+01
    1.2309765625e+02   -3.0088699341e+01
    1.2319690704e+02   -3.0158500671e+01
    1.2329840088e+02   -3.0230100632e+01
    1.2339856720e+02   -3.0300800323e+01
    1.2349729919e+02   -3.0370599747e+01
    1.2359677124e+02   -3.0440999985e+01
    1.2369796753e+02   -3.0512699127e+01
    1.2379714966e+02   -3.0583099365e+01
    1.2389746094e+02   -3.0654499054e+01
    1.2399844360e+02   -3.0726400375e+01
    1.2409735107e+02   -3.0797000885e+01
    1.2419724274e+02   -3.0868299484e+01
    1.2429802704e+02   -3.0940500259e+01
    1.2439720154e+02   -3.1011600494e+01
    1.2449810028e+02   -3.1084100723e+01
    1.2459691620e+02   -3.1155300140e+01
    1.2469676971e+02   -3.1227300644e+01
    1.2479756165e+02   -3.1300199509e+01
    1.2489794922e+02   -3.1372900009e+01
    1.2499817657e+02   -3.1445699692e+01
    1.2509825897e+02   -3.1518600464e+01
    1.2519703674e+02   -3.1590599060e+01
    1.2529727936e+02   -3.1663999557e+01
    1.2539758301e+02   -3.1737499237e+01
    1.2549745941e+02   -3.1811000824e+01
    1.2559719849e+02   -3.1884500504e+01
    1.2569714355e+02   -3.1958299637e+01
    1.2579704285e+02   -3.2032398224e+01
    1.2589768982e+02   -3.2107101440e+01
    1.2599817657e+02   -3.2181999207e+01
    1.2609848785e+02   -3.2256900787e+01
    1.2619735718e+02   -3.2330898285e+01
    1.2629781342e+02   -3.2406398773e+01
    1.2639836121e+02   -3.2482101440e+01
    1.2649697113e+02   -3.2556499481e+01
    1.2659767151e+02   -3.2632701874e+01
    1.2669843292e+02   -3.2709201813e+01
    1.2679721832e+02   -3.2784301758e+01
    1.2689694977e+02   -3.2860298157e+01
    1.2699684143e+02   -3.2936698914e+01
    1.2709783173e+02   -3.3013999939e+01
    1.2719792938e+02   -3.3090801239e+01
    1.2729827118e+02   -3.3167999268e+01
    1.2739736938e+02   -3.3244400024e+01
    1.2749735260e+02   -3.3321601868e+01
    1.2759771729e+02   -3.3399299622e+01
    1.2769700623e+02   -3.3476299286e+01
    1.2779711914e+02   -3.3554000854e+01
    1.2789821625e+02   -3.3632701874e+01
    1.2799664307e+02   -3.3709400177e+01
    1.2809844971e+02   -3.3788898468e+01
    1.2819712830e+02   -3.3866100311e+01
    1.2829666138e+02   -3.3944000244e+01
    1.2839736938e+02   -3.4022998810e+01
    1.2849801636e+02   -3.4102001190e+01
    1.2859829712e+02   -3.4180900574e+01
    1.2869683838e+02   -3.4258399963e+01
    1.2879690552e+02   -3.4337299347e+01
    1.2889787292e+02   -3.4416999817e+01
    1.2899674988e+02   -3.4495098114e+01
    1.2909796143e+02   -3.4575099945e+01
    1.2919752502e+02   -3.4653999329e+01
    1.2929760742e+02   -3.4733299255e+01
    1.2939810181e+02   -3.4812999725e+01
    1.2949838257e+02   -3.4892601013e+01
    1.2959773254e+02   -3.4971500397e+01
    1.2969723511e+02   -3.5050598145e+01
    1.2979699707e+02   -3.5129901886e+01
    1.2989854431e+02   -3.5210700989e+01
    1.2999810791e+02   -3.5290000916e+01
    1.3009831238e+02   -3.5369899750e+01
    1.3019868469e+02   -3.5449901581e+01
    1.3029705811e+02   -3.5528301239e+01
    1.3039677429e+02   -3.5607799530e+01
    1.3049731445e+02   -3.5687999725e+01
    1.3059762573e+02   -3.5768100739e+01
    1.3069827271e+02   -3.5848400116e+01
    1.3079708862e+02   -3.5927299500e+01
    1.3089677429e+02   -3.6006999969e+01
    1.3099824524e+02   -3.6088100433e+01
    1.3109829712e+02   -3.6168098450e+01
    1.3119869995e+02   -3.6248401642e+01
    1.3129757690e+02   -3.6327499390e+01
    1.3139700317e+02   -3.6407001495e+01
    1.3149786377e+02   -3.6487800598e+01
    1.3159840393e+02   -3.6568401337e+01
    1.3169784546e+02   -3.6648101807e+01
    1.3179847717e+02   -3.6728801727e+01
    1.3189700317e+02   -3.6807899475e+01
    1.3199856567e+02   -3.6889499664e+01
    1.3209805298e+02   -3.6969501495e+01
    1.3219746399e+02   -3.7049499512e+01
    1.3229762268e+02   -3.7130199432e+01
    1.3239694214e+02   -3.7210201263e+01
    1.3249856567e+02   -3.7292198181e+01
    1.3259834290e+02   -3.7372798920e+01
    1.3269854736e+02   -3.7453899384e+01
    1.3279725647e+02   -3.7533798218e+01
    1.3289877319e+02   -3.7616100311e+01
    1.3299826050e+02   -3.7696899414e+01
    1.3309779358e+02   -3.7777801514e+01
    1.3319717407e+02   -3.7858699799e+01
    1.3329866028e+02   -3.7941398621e+01
    1.3339825439e+02   -3.8022701263e+01
    1.3349783325e+02   -3.8104099274e+01
    1.3359718323e+02   -3.8185501099e+01
    1.3369851685e+02   -3.8268600464e+01
    1.3379782104e+02   -3.8350299835e+01
    1.3389804077e+02   -3.8432800293e+01
    1.3399824524e+02   -3.8515499115e+01
    1.3409881592e+02   -3.8598598480e+01
    1.3419746399e+02   -3.8680301666e+01
    1.3429811096e+02   -3.8763801575e+01
    1.3439793396e+02   -3.8846801758e+01
    1.3449896240e+02   -3.8930999756e+01
    1.3459788513e+02   -3.9013599396e+01
    1.3469799805e+02   -3.9097301483e+01
    1.3479742432e+02   -3.9180698395e+01
    1.3489770508e+02   -3.9264999390e+01
    1.3499740601e+02   -3.9348999023e+01
    1.3509823608e+02   -3.9434200287e+01
    1.3519775391e+02   -3.9518398285e+01
    1.3529856873e+02   -3.9604000092e+01
    1.3539895630e+02   -3.9689399719e+01
    1.3549867249e+02   -3.9774501801e+01
    1.3559777832e+02   -3.9859199524e+01
    1.3569897461e+02   -3.9945999146e+01
    1.3579826355e+02   -4.0031398773e+01
    1.3589898682e+02   -4.0118099213e+01
    1.3599830627e+02   -4.0203899384e+01
    1.3609875488e+02   -4.0291000366e+01
    1.3619726562e+02   -4.0376499176e+01
    1.3629786682e+02   -4.0464099884e+01
    1.3639859009e+02   -4.0551998138e+01
    1.3649739075e+02   -4.0638401031e+01
    1.3659829712e+02   -4.0726898193e+01
    1.3669726562e+02   -4.0813899994e+01
    1.3679832458e+02   -4.0902999878e+01
    1.3689845276e+02   -4.0991401672e+01
    1.3699890137e+02   -4.1080299377e+01
    1.3709817505e+02   -4.1168399811e+01
    1.3719775391e+02   -4.1256900787e+01
    1.3729780579e+02   -4.1346000671e+01
    1.3739720154e+02   -4.1434700012e+01
    1.3749880981e+02   -4.1525501251e+01
    1.3759823608e+02   -4.1614498138e+01
    1.3769827271e+02   -4.1704299927e+01
    1.3779776001e+02   -4.1793701172e+01
    1.3789799500e+02   -4.1883899689e+01
    1.3799838257e+02   -4.1974399567e+01
    1.3809913635e+02   -4.2065299988e+01
    1.3819815063e+02   -4.2154899597e+01
    1.3829905701e+02   -4.2246200562e+01
    1.3839787292e+02   -4.2335700989e+01
    1.3849790955e+02   -4.2426498413e+01
    1.3859826660e+02   -4.2517700195e+01
    1.3869767761e+02   -4.2608001709e+01
    1.3879809570e+02   -4.2699401855e+01
    1.3889802551e+02   -4.2790500641e+01
    1.3899900818e+02   -4.2882598877e+01
    1.3909851074e+02   -4.2973400116e+01
    1.3919836426e+02   -4.3064601898e+01
    1.3929882812e+02   -4.3156398773e+01
    1.3939828491e+02   -4.3247398376e+01
    1.3949819946e+02   -4.3338901520e+01
    1.3959788513e+02   -4.3430198669e+01
    1.3969866943e+02   -4.3522598267e+01
    1.3979733276e+02   -4.3613201141e+01
    1.3989802551e+02   -4.3705600739e+01
    1.3999740601e+02   -4.3796901703e+01
    1.4009910583e+02   -4.3890300751e+01
    1.4019897461e+02   -4.3982101440e+01
    1.4029873657e+02   -4.4073898315e+01
    1.4039758301e+02   -4.4164798737e+01
    1.4049749756e+02   -4.4256801605e+01
    1.4059872437e+02   -4.4349998474e+01
    1.4069830322e+02   -4.4441799164e+01
    1.4079841614e+02   -4.4534099579e+01
    1.4089767456e+02   -4.4625598907e+01
    1.4099851990e+02   -4.4718700409e+01
    1.4109838867e+02   -4.4810901642e+01
    1.4119772339e+02   -4.4902698517e+01
    1.4129794312e+02   -4.4995399475e+01
    1.4139913940e+02   -4.5089000702e+01
    1.4149925232e+02   -4.5181701660e+01
    1.4159744263e+02   -4.5272598267e+01
    1.4169802856e+02   -4.5365898132e+01
    1.4179830933e+02   -4.5458900452e+01
    1.4189877319e+02   -4.5552200317e+01
    1.4199754333e+02   -4.5644001007e+01
    1.4209864807e+02   -4.5738098145e+01
    1.4219908142e+02   -4.5831600189e+01
    1.4229934692e+02   -4.5924999237e+01
    1.4239775085e+02   -4.6016899109e+01
    1.4249884033e+02   -4.6111301422e+01
    1.4259808350e+02   -4.6204101562e+01
    1.4269949341e+02   -4.6298999786e+01
    1.4279884338e+02   -4.6392200470e+01
    1.4289840698e+02   -4.6485599518e+01
    1.4299783325e+02   -4.6579101562e+01
    1.4309913635e+02   -4.6674400330e+01
    1.4319842529e+02   -4.6768001556e+01
    1.4329766846e+02   -4.6861698151e+01
    1.4339892578e+02   -4.6957500458e+01
    1.4349810791e+02   -4.7051399231e+01
    1.4359936523e+02   -4.7147499084e+01
    1.4369865417e+02   -4.7241901398e+01
    1.4379809570e+02   -4.7336601257e+01
    1.4389790344e+02   -4.7431900024e+01
    1.4399928284e+02   -4.7528800964e+01
    1.4409748840e+02   -4.7622798920e+01
    1.4419802856e+02   -4.7719299316e+01
    1.4429890442e+02   -4.7816299438e+01
    1.4439767456e+02   -4.7911499023e+01
    1.4449885559e+02   -4.8009201050e+01
    1.4459794617e+02   -4.8105098724e+01
    1.4469787598e+02   -4.8201999664e+01
    1.4479914856e+02   -4.8300399780e+01
    1.4489918518e+02   -4.8397800446e+01
    1.4499822998e+02   -4.8494499207e+01
    1.4509933472e+02   -4.8593399048e+01
    1.4519871521e+02   -4.8690799713e+01
    1.4529774475e+02   -4.8788101196e+01
    1.4539828491e+02   -4.8887100220e+01
    1.4549827576e+02   -4.8985801697e+01
    1.4559878540e+02   -4.9085300446e+01
    1.4569914246e+02   -4.9184799194e+01
    1.4579786682e+02   -4.9282901764e+01
    1.4589845276e+02   -4.9383098602e+01
    1.4599934387e+02   -4.9483798981e+01
    1.4609831238e+02   -4.9582801819e+01
    1.4619906616e+02   -4.9683799744e+01
    1.4629789734e+02   -4.9783100128e+01
    1.4639884949e+02   -4.9884700775e+01
    1.4649787903e+02   -4.9984600067e+01
    1.4659904480e+02   -5.0086898804e+01
    1.4669828796e+02   -5.0187500000e+01
    1.4679965210e+02   -5.0290298462e+01
    1.4689949036e+02   -5.0391899109e+01
    1.4699864197e+02   -5.0492900848e+01
    1.4709968567e+02   -5.0596000671e+01
    1.4719834900e+02   -5.0696899414e+01
    1.4729927063e+02   -5.0800300598e+01
    1.4739900208e+02   -5.0902500153e+01
    1.4749801636e+02   -5.1004199982e+01
    1.4759812927e+02   -5.1107200623e+01
    1.4769828796e+02   -5.1210399628e+01
    1.4779884338e+02   -5.1313999176e+01
    1.4789961243e+02   -5.1418098450e+01
    1.4799838257e+02   -5.1520198822e+01
    1.4809864807e+02   -5.1624000549e+01
    1.4819813538e+02   -5.1727100372e+01
    1.4829945374e+02   -5.1832199097e+01
    1.4839968872e+02   -5.1936199188e+01
    1.4849822998e+02   -5.2038600922e+01
    1.4859844971e+02   -5.2142700195e+01
    1.4869874573e+02   -5.2247100830e+01
    1.4879905701e+02   -5.2351501465e+01
    1.4889892578e+02   -5.2455398560e+01
    1.4899934387e+02   -5.2560100555e+01
    1.4909915161e+02   -5.2664100647e+01
    1.4919827271e+02   -5.2767501831e+01
    1.4929847717e+02   -5.2872100830e+01
    1.4939907837e+02   -5.2977100372e+01
    1.4949874878e+02   -5.3081199646e+01
    1.4959826660e+02   -5.3185100555e+01
    1.4969981384e+02   -5.3291301727e+01
    1.4979928589e+02   -5.3395301819e+01
    1.4989863586e+02   -5.3499298096e+01
    1.4999902344e+02   -5.3604301453e+01
    1.5009802246e+02   -5.3708000183e+01
    1.5019912720e+02   -5.3813899994e+01
    1.5029800415e+02   -5.3917499542e+01
    1.5039816284e+02   -5.4022499084e+01
    1.5049923706e+02   -5.4128501892e+01
    1.5059977722e+02   -5.4234001160e+01
    1.5069880676e+02   -5.4338001251e+01
    1.5079817200e+02   -5.4442401886e+01
    1.5089875793e+02   -5.4548099518e+01
    1.5099954224e+02   -5.4654098511e+01
    1.5109889221e+02   -5.4758701324e+01
    1.5119949341e+02   -5.4864601135e+01
    1.5129823303e+02   -5.4968700409e+01
    1.5139936829e+02   -5.5075401306e+01
    1.5149955750e+02   -5.5181098938e+01
    1.5159947205e+02   -5.5286701202e+01
    1.5169952393e+02   -5.5392398834e+01
    1.5179924011e+02   -5.5497898102e+01
    1.5189842224e+02   -5.5603000641e+01
    1.5199842834e+02   -5.5708999634e+01
    1.5209918213e+02   -5.5815898895e+01
    1.5219940186e+02   -5.5922298431e+01
    1.5229937744e+02   -5.6028598785e+01
    1.5239981079e+02   -5.6135398865e+01
    1.5249836731e+02   -5.6240398407e+01
    1.5259956360e+02   -5.6348300934e+01
    1.5269815063e+02   -5.6453498840e+01
    1.5279847717e+02   -5.6560699463e+01
    1.5290002441e+02   -5.6669300079e+01
    1.5299917603e+02   -5.6775600433e+01
    1.5310008240e+02   -5.6883800507e+01
    1.5319903564e+02   -5.6990100861e+01
    1.5329998779e+02   -5.7098701477e+01
    1.5339855957e+02   -5.7204898834e+01
    1.5349908447e+02   -5.7313301086e+01
    1.5359960938e+02   -5.7421901703e+01
    1.5369815063e+02   -5.7528598785e+01
    1.5379968262e+02   -5.7638599396e+01
    1.5389941406e+02   -5.7746898651e+01
    1.5399812317e+02   -5.7854301453e+01
    1.5409848022e+02   -5.7963699341e+01
    1.5419862366e+02   -5.8073001862e+01
    1.5429850769e+02   -5.8182201385e+01
    1.5439860535e+02   -5.8291900635e+01
    1.5449957275e+02   -5.8402599335e+01
    1.5459855652e+02   -5.8511398315e+01
    1.5469961548e+02   -5.8622699738e+01
    1.5480001831e+02   -5.8733501434e+01
    1.5489935303e+02   -5.8843299866e+01
    1.5499987793e+02   -5.8954601288e+01
    1.5509832764e+02   -5.9063800812e+01
    1.5519909668e+02   -5.9175701141e+01
    1.5529881287e+02   -5.9286701202e+01
    1.5539961243e+02   -5.9399101257e+01
    1.5549832153e+02   -5.9509300232e+01
    1.5559851074e+02   -5.9621398926e+01
    1.5569989014e+02   -5.9734901428e+01
    1.5580007935e+02   -5.9847400665e+01
    1.5589828491e+02   -5.9957801819e+01
    1.5599853516e+02   -6.0070598602e+01
    1.5609950256e+02   -6.0184501648e+01
    1.5619851685e+02   -6.0296298981e+01
    1.5629965210e+02   -6.0410701752e+01
    1.5639872742e+02   -6.0522899628e+01
    1.5649971008e+02   -6.0637500763e+01
    1.5660032654e+02   -6.0751800537e+01
    1.5669871521e+02   -6.0863700867e+01
    1.5679908752e+02   -6.0978099823e+01
    1.5689991760e+02   -6.1093101501e+01
    1.5699917603e+02   -6.1206501007e+01
    1.5709951782e+02   -6.1321201324e+01
    1.5719964600e+02   -6.1435798645e+01
    1.5729968262e+02   -6.1550498962e+01
    1.5739991760e+02   -6.1665500641e+01
    1.5749865723e+02   -6.1778900146e+01
    1.5759982300e+02   -6.1895099640e+01
    1.5769885254e+02   -6.2009101868e+01
    1.5779928589e+02   -6.2124698639e+01
    1.5789837646e+02   -6.2238800049e+01
    1.5799952698e+02   -6.2355499268e+01
    1.5810038757e+02   -6.2471801758e+01
    1.5819851685e+02   -6.2585098267e+01
    1.5829962158e+02   -6.2701900482e+01
    1.5839862061e+02   -6.2816200256e+01
    1.5849969482e+02   -6.2932998657e+01
    1.5859870911e+02   -6.3047401428e+01
    1.5869990540e+02   -6.3164398193e+01
    1.5879965210e+02   -6.3279701233e+01
    1.5889869690e+02   -6.3394199371e+01
    1.5899864197e+02   -6.3509700775e+01
    1.5910011292e+02   -6.3626998901e+01
    1.5919895935e+02   -6.3741298676e+01
    1.5929930115e+02   -6.3857299805e+01
    1.5940011597e+02   -6.3973800659e+01
    1.5950015259e+02   -6.4089401245e+01
    1.5959884644e+02   -6.4203598022e+01
    1.5970004272e+02   -6.4320602417e+01
    1.5979873657e+02   -6.4434700012e+01
    1.5989913940e+02   -6.4550796509e+01
    1.5999964905e+02   -6.4666999817e+01
    1.6010005188e+02   -6.4783203125e+01
    1.6020043945e+02   -6.4899299622e+01
    1.6029864502e+02   -6.5013000488e+01
    1.6040005493e+02   -6.5130401611e+01
    1.6050054932e+02   -6.5246803284e+01
    1.6060038757e+02   -6.5362396240e+01
    1.6069873047e+02   -6.5476402283e+01
    1.6079986572e+02   -6.5593696594e+01
    1.6090049744e+02   -6.5710403442e+01
    1.6100050354e+02   -6.5826499939e+01
    1.6110000610e+02   -6.5942100525e+01
    1.6120021057e+02   -6.6058601379e+01
    1.6130049133e+02   -6.6175201416e+01
    1.6139935303e+02   -6.6290298462e+01
    1.6150039673e+02   -6.6407997131e+01
    1.6160058594e+02   -6.6524803162e+01
    1.6170051575e+02   -6.6641403198e+01
    1.6180050659e+02   -6.6758102417e+01
    1.6189976501e+02   -6.6874000549e+01
    1.6199972534e+02   -6.6990898132e+01
    1.6210067749e+02   -6.7109001160e+01
    1.6219894409e+02   -6.7223999023e+01
    1.6229876709e+02   -6.7341003418e+01
    1.6239877319e+02   -6.7458297729e+01
    1.6249986267e+02   -6.7576896667e+01
    1.6259889221e+02   -6.7693199158e+01
    1.6269929504e+02   -6.7811302185e+01
    1.6279971313e+02   -6.7929397583e+01
    1.6290072632e+02   -6.8048400879e+01
    1.6299937439e+02   -6.8164596558e+01
    1.6309986877e+02   -6.8283203125e+01
    1.6320074463e+02   -6.8402397156e+01
    1.6329978943e+02   -6.8519500732e+01
    1.6340007019e+02   -6.8638198853e+01
    1.6350033569e+02   -6.8757003784e+01
    1.6360040283e+02   -6.8875701904e+01
    1.6370051575e+02   -6.8994598389e+01
    1.6379953003e+02   -6.9112396240e+01
    1.6389888000e+02   -6.9230697632e+01
    1.6399888611e+02   -6.9349998474e+01
    1.6409979248e+02   -6.9470497131e+01
    1.6419952393e+02   -6.9589698792e+01
    1.6430067444e+02   -6.9710800171e+01
    1.6439955139e+02   -6.9829299927e+01
    1.6450000000e+02   -6.9949897766e+01
    1.6460055542e+02   -7.0070701599e+01
    1.6469935608e+02   -7.0189598083e+01
    1.6479911804e+02   -7.0309700012e+01
    1.6489938354e+02   -7.0430603027e+01
    1.6499929810e+02   -7.0551200867e+01
    1.6509931946e+02   -7.0672096252e+01
    1.6519914246e+02   -7.0792800903e+01
    1.6530065918e+02   -7.0915702820e+01
    1.6539883423e+02   -7.1034599304e+01
    1.6550044250e+02   -7.1157798767e+01
    1.6560041809e+02   -7.1279197693e+01
    1.6569892883e+02   -7.1398803711e+01
    1.6580032349e+02   -7.1522003174e+01
    1.6590005493e+02   -7.1643302917e+01
    1.6600076294e+02   -7.1765899658e+01
    1.6609950256e+02   -7.1886199951e+01
    1.6619975281e+02   -7.2008300781e+01
    1.6629977417e+02   -7.2130302429e+01
    1.6639973450e+02   -7.2252296448e+01
    1.6650027466e+02   -7.2375099182e+01
    1.6660049438e+02   -7.2497596741e+01
    1.6669999695e+02   -7.2619300842e+01
    1.6680090332e+02   -7.2742698669e+01
    1.6690025330e+02   -7.2864303589e+01
    1.6699993896e+02   -7.2986396790e+01
    1.6709907532e+02   -7.3107902527e+01
    1.6719958496e+02   -7.3231201172e+01
    1.6730006409e+02   -7.3354400635e+01
    1.6739907837e+02   -7.3475898743e+01
    1.6750064087e+02   -7.3600502014e+01
    1.6759901428e+02   -7.3721298218e+01
    1.6769956970e+02   -7.3844802856e+01
    1.6780009460e+02   -7.3968200684e+01
    1.6790036011e+02   -7.4091400146e+01
    1.6800000000e+02   -7.4213897705e+01
    1.6809953308e+02   -7.4336196899e+01
    1.6820097351e+02   -7.4460800171e+01
    1.6829962158e+02   -7.4582099915e+01
    1.6840017700e+02   -7.4705596924e+01
    1.6850001526e+02   -7.4828201294e+01
    1.6859994507e+02   -7.4950897217e+01
    1.6869981384e+02   -7.5073501587e+01
    1.6880070496e+02   -7.5197303772e+01
    1.6890092468e+02   -7.5320198059e+01
    1.6899977112e+02   -7.5441398621e+01
    1.6910003662e+02   -7.5564201355e+01
    1.6919953918e+02   -7.5686096191e+01
    1.6930070496e+02   -7.5809898376e+01
    1.6939923096e+02   -7.5930496216e+01
    1.6950044250e+02   -7.6054298401e+01
    1.6960055542e+02   -7.6176597595e+01
    1.6969992065e+02   -7.6298103333e+01
    1.6980070496e+02   -7.6421203613e+01
    1.6990080261e+02   -7.6543502808e+01
    1.7000082397e+02   -7.6665702820e+01
    1.7009919739e+02   -7.6785797119e+01
    1.7020117188e+02   -7.6910301208e+01
    1.7030105591e+02   -7.7032302856e+01
    1.7040014648e+02   -7.7153297424e+01
    1.7050030518e+02   -7.7275703430e+01
    1.7060017395e+02   -7.7397697449e+01
    1.7070057678e+02   -7.7520401001e+01
    1.7079954529e+02   -7.7641296387e+01
    1.7089970398e+02   -7.7763801575e+01
    1.7099923706e+02   -7.7885597229e+01
    1.7110093689e+02   -7.8010101318e+01
    1.7120042419e+02   -7.8131896973e+01
    1.7130087280e+02   -7.8254997253e+01
    1.7139965820e+02   -7.8376098633e+01
    1.7150102234e+02   -7.8500396729e+01
    1.7160040283e+02   -7.8622398376e+01
    1.7170069885e+02   -7.8745498657e+01
    1.7180026245e+02   -7.8867797852e+01
    1.7189997864e+02   -7.8990303040e+01
    1.7200079346e+02   -7.9114196777e+01
    1.7209930420e+02   -7.9235298157e+01
    1.7220013428e+02   -7.9359298706e+01
    1.7230029297e+02   -7.9482597351e+01
    1.7240025330e+02   -7.9605598450e+01
    1.7250100708e+02   -7.9729698181e+01
    1.7259997559e+02   -7.9851600647e+01
    1.7270094299e+02   -7.9975997925e+01
    1.7280096436e+02   -8.0099296570e+01
    1.7290022278e+02   -8.0221702576e+01
    1.7300068665e+02   -8.0345703125e+01
    1.7310098267e+02   -8.0469497681e+01
    1.7319955444e+02   -8.0591201782e+01
    1.7330038452e+02   -8.0715698242e+01
    1.7340055847e+02   -8.0839599609e+01
    1.7350088501e+02   -8.0963699341e+01
    1.7360066223e+02   -8.1087097168e+01
    1.7370028687e+02   -8.1210502625e+01
    1.7380134583e+02   -8.1335800171e+01
    1.7390048218e+02   -8.1458702087e+01
    1.7400009155e+02   -8.1582298279e+01
    1.7410087585e+02   -8.1707496643e+01
    1.7420060730e+02   -8.1831497192e+01
    1.7430046082e+02   -8.1955596924e+01
    1.7440014648e+02   -8.2079696655e+01
    1.7450117493e+02   -8.2205497742e+01
    1.7460038757e+02   -8.2329101562e+01
    1.7469995117e+02   -8.2453102112e+01
    1.7480090332e+02   -8.2579002380e+01
    1.7490037537e+02   -8.2703002930e+01
    1.7499964905e+02   -8.2826896667e+01
    1.7510093689e+02   -8.2953201294e+01
    1.7519960022e+02   -8.3076301575e+01
    1.7530044556e+02   -8.3202102661e+01
    1.7540022278e+02   -8.3326599121e+01
    1.7550035095e+02   -8.3451499939e+01
    1.7559951782e+02   -8.3575202942e+01
    1.7570042419e+02   -8.3700996399e+01
    1.7580122375e+02   -8.3826599121e+01
    1.7590003967e+02   -8.3949699402e+01
    1.7600042725e+02   -8.4074699402e+01
    1.7610087585e+02   -8.4199798584e+01
    1.7620011902e+02   -8.4323303223e+01
    1.7630099487e+02   -8.4448799133e+01
    1.7639962769e+02   -8.4571502686e+01
    1.7650074768e+02   -8.4697196960e+01
    1.7660006714e+02   -8.4820701599e+01
    1.7670005798e+02   -8.4944999695e+01
    1.7679992676e+02   -8.5069000244e+01
    1.7690153503e+02   -8.5195297241e+01
    1.7700000000e+02   -8.5317497253e+01
    1.7709985352e+02   -8.5441497803e+01
    1.7720126343e+02   -8.5567398071e+01
    1.7730064392e+02   -8.5690696716e+01
    1.7739970398e+02   -8.5813598633e+01
    1.7749995422e+02   -8.5937896729e+01
    1.7760070801e+02   -8.6062797546e+01
    1.7770108032e+02   -8.6187202454e+01
    1.7780140686e+02   -8.6311599731e+01
    1.7790017700e+02   -8.6433898926e+01
    1.7800126648e+02   -8.6559196472e+01
    1.7810040283e+02   -8.6681900024e+01
    1.7820141602e+02   -8.6806900024e+01
    1.7830151367e+02   -8.6930801392e+01
    1.7840008545e+02   -8.7052696228e+01
    1.7850097656e+02   -8.7177398682e+01
    1.7859967041e+02   -8.7299301147e+01
    1.7870013428e+02   -8.7423202515e+01
    1.7879992676e+02   -8.7546302795e+01
    1.7890002441e+02   -8.7669601440e+01
    1.7899975586e+02   -8.7792396545e+01
    1.7910157776e+02   -8.7917701721e+01
    1.7920153809e+02   -8.8040496826e+01
    1.7930085754e+02   -8.8162498474e+01
    1.7940025330e+02   -8.8284500122e+01
    1.7950141907e+02   -8.8408500671e+01
    1.7960075378e+02   -8.8530296326e+01
    1.7970101929e+02   -8.8653099060e+01
    1.7980076599e+02   -8.8775100708e+01
    1.7990144348e+02   -8.8898300171e+01
    1.8000010681e+02   -8.9018898010e+01
    1.8010023499e+02   -8.9141296387e+01
    1.8020048523e+02   -8.9263801575e+01
    1.8030079651e+02   -8.9386398315e+01
    1.8040000916e+02   -8.9507598877e+01
    1.8050035095e+02   -8.9630096436e+01
    1.8060050964e+02   -8.9752502441e+01
    1.8070158386e+02   -8.9875999451e+01
    1.8080038452e+02   -8.9996696472e+01
    1.8090147400e+02   -9.0120201111e+01
    1.8100109863e+02   -9.0241996765e+01
    1.8110032654e+02   -9.0363296509e+01
    1.8120085144e+02   -9.0486198425e+01
    1.8130174255e+02   -9.0609596252e+01
    1.8139990234e+02   -9.0729698181e+01
    1.8150128174e+02   -9.0853698730e+01
    1.8160119629e+02   -9.0975898743e+01
    1.8170132446e+02   -9.1098396301e+01
    1.8179997253e+02   -9.1219100952e+01
    1.8190008545e+02   -9.1341499329e+01
    1.8200166321e+02   -9.1465797424e+01
    1.8210015869e+02   -9.1586196899e+01
    1.8220033264e+02   -9.1708602905e+01
    1.8230024719e+02   -9.1830703735e+01
    1.8240191650e+02   -9.1954803467e+01
    1.8250073242e+02   -9.2075500488e+01
    1.8260168457e+02   -9.2198699951e+01
    1.8270094299e+02   -9.2319801331e+01
    1.8280117798e+02   -9.2442001343e+01
    1.8290034485e+02   -9.2562896729e+01
    1.8300050354e+02   -9.2684898376e+01
    1.8310044861e+02   -9.2806602478e+01
    1.8320053101e+02   -9.2928398132e+01
    1.8330126953e+02   -9.3051002502e+01
    1.8340121460e+02   -9.3172500610e+01
    1.8350004578e+02   -9.3292701721e+01
    1.8360133362e+02   -9.3415901184e+01
    1.8370031738e+02   -9.3536300659e+01
    1.8380058289e+02   -9.3658203125e+01
    1.8390118408e+02   -9.3780502319e+01
    1.8400134277e+02   -9.3902297974e+01
    1.8410098267e+02   -9.4023399353e+01
    1.8420152283e+02   -9.4145599365e+01
    1.8430180359e+02   -9.4267501831e+01
    1.8440164185e+02   -9.4388900757e+01
    1.8450166321e+02   -9.4510398865e+01
    1.8460183716e+02   -9.4632102966e+01
    1.8470016479e+02   -9.4751602173e+01
    1.8480006409e+02   -9.4872802734e+01
    1.8490048218e+02   -9.4994697571e+01
    1.8500085449e+02   -9.5116401672e+01
    1.8510125732e+02   -9.5238098145e+01
    1.8520065308e+02   -9.5358497620e+01
    1.8530061340e+02   -9.5479499817e+01
    1.8540165710e+02   -9.5601600647e+01
    1.8550204468e+02   -9.5722900391e+01
    1.8560147095e+02   -9.5842796326e+01
    1.8570133972e+02   -9.5963096619e+01
    1.8580114746e+02   -9.6083198547e+01
    1.8590032959e+02   -9.6202400208e+01
    1.8600018311e+02   -9.6322196960e+01
    1.8610159302e+02   -9.6443801880e+01
    1.8620205688e+02   -9.6564002991e+01
    1.8630038452e+02   -9.6681602478e+01
    1.8640046692e+02   -9.6801101685e+01
    1.8650048828e+02   -9.6920402527e+01
    1.8660032654e+02   -9.7039299011e+01
    1.8670147705e+02   -9.7159698486e+01
    1.8680039978e+02   -9.7277297974e+01
    1.8690063477e+02   -9.7396400452e+01
    1.8700082397e+02   -9.7515197754e+01
    1.8710072327e+02   -9.7633697510e+01
    1.8720210266e+02   -9.7753799438e+01
    1.8730099487e+02   -9.7870903015e+01
    1.8740121460e+02   -9.7989501953e+01
    1.8750213623e+02   -9.8108802795e+01
    1.8760168457e+02   -9.8226501465e+01
    1.8770199585e+02   -9.8344902039e+01
    1.8780099487e+02   -9.8461799622e+01
    1.8790063477e+02   -9.8579399109e+01
    1.8800057983e+02   -9.8697196960e+01
    1.8810223389e+02   -9.8817001343e+01
    1.8820143127e+02   -9.8933799744e+01
    1.8830097961e+02   -9.9051002502e+01
    1.8840080261e+02   -9.9168403625e+01
    1.8850227356e+02   -9.9287597656e+01
    1.8860023499e+02   -9.9402603149e+01
    1.8870089722e+02   -9.9520698547e+01
    1.8880038452e+02   -9.9637298584e+01
    1.8890083313e+02   -9.9754798889e+01
    1.8900071716e+02   -9.9871597290e+01
    1.8910110474e+02   -9.9988899231e+01
    1.8920118713e+02   -1.0010600281e+02
    1.8930116272e+02   -1.0022200012e+02
    1.8940136719e+02   -1.0033899689e+02
    1.8950152588e+02   -1.0045500183e+02
    1.8960154724e+02   -1.0057099915e+02
    1.8970164490e+02   -1.0068699646e+02
    1.8980213928e+02   -1.0080400085e+02
    1.8990203857e+02   -1.0091999817e+02
    1.9000184631e+02   -1.0103500366e+02
    1.9010220337e+02   -1.0115100098e+02
    1.9020239258e+02   -1.0126699829e+02
    1.9030073547e+02   -1.0137999725e+02
    1.9040231323e+02   -1.0149800110e+02
    1.9050047302e+02   -1.0161100006e+02
    1.9060064697e+02   -1.0172599792e+02
    1.9070115662e+02   -1.0184200287e+02
    1.9080201721e+02   -1.0195899963e+02
    1.9090170288e+02   -1.0207399750e+02
    1.9100068665e+02   -1.0218800354e+02
    1.9110127258e+02   -1.0230400085e+02
    1.9120225525e+02   -1.0241999817e+02
    1.9130206299e+02   -1.0253500366e+02
    1.9140080261e+02   -1.0264800262e+02
    1.9150219727e+02   -1.0276499939e+02
    1.9160177612e+02   -1.0287899780e+02
    1.9170155334e+02   -1.0299400330e+02
    1.9180047607e+02   -1.0310700226e+02
    1.9190171814e+02   -1.0322299957e+02
    1.9200114441e+02   -1.0333699799e+02
    1.9210046387e+02   -1.0345099640e+02
    1.9220173645e+02   -1.0356600189e+02
    1.9230174255e+02   -1.0368000031e+02
    1.9240173340e+02   -1.0379399872e+02
    1.9250224304e+02   -1.0390799713e+02
    1.9260214233e+02   -1.0402100372e+02
    1.9270120239e+02   -1.0413400269e+02
    1.9280151367e+02   -1.0424700165e+02
    1.9290162659e+02   -1.0436000061e+02
    1.9300100708e+02   -1.0447200012e+02
    1.9310215759e+02   -1.0458499908e+02
    1.9320185852e+02   -1.0469699860e+02
    1.9330181885e+02   -1.0480899811e+02
    1.9340138245e+02   -1.0492099762e+02
    1.9350212097e+02   -1.0503299713e+02
    1.9360087585e+02   -1.0514299774e+02
    1.9370086670e+02   -1.0525499725e+02
    1.9380165100e+02   -1.0536699677e+02
    1.9390136719e+02   -1.0547799683e+02
    1.9400155640e+02   -1.0558899689e+02
    1.9410066223e+02   -1.0569899750e+02
    1.9420166016e+02   -1.0581099701e+02
    1.9430064392e+02   -1.0592099762e+02
    1.9440103149e+02   -1.0603199768e+02
[...]
    2.5130558777e+02   -1.2706300354e+02
    2.5140458679e+02   -1.2704199982e+02
    2.5150535583e+02   -1.2702100372e+02
    2.5160589600e+02   -1.2699900055e+02
    2.5170611572e+02   -1.2697699738e+02
    2.5180609131e+02   -1.2695500183e+02
    2.5190577698e+02   -1.2693299866e+02
    2.5200511169e+02   -1.2691100311e+02
    2.5210452271e+02   -1.2688899994e+02
    2.5220555115e+02   -1.2686699677e+02
    2.5230587769e+02   -1.2684400177e+02
    2.5240559387e+02   -1.2682199860e+02
    2.5250616455e+02   -1.2679900360e+02
    2.5260455322e+02   -1.2677700043e+02
    2.5270498657e+02   -1.2675399780e+02
    2.5280581665e+02   -1.2673100281e+02
    2.5290454102e+02   -1.2670899963e+02
    2.5300541687e+02   -1.2668499756e+02
    2.5310467529e+02   -1.2666200256e+02
    2.5320620728e+02   -1.2663899994e+02
    2.5330464172e+02   -1.2661599731e+02
    2.5340478516e+02   -1.2659300232e+02
    2.5350569153e+02   -1.2656900024e+02
    2.5360496521e+02   -1.2654499817e+02
    2.5370622253e+02   -1.2652100372e+02
    2.5380520630e+02   -1.2649800110e+02
    2.5390440369e+02   -1.2647399902e+02
    2.5400590515e+02   -1.2644999695e+02
    2.5410565186e+02   -1.2642500305e+02
    2.5420512390e+02   -1.2640100098e+02
    2.5430468750e+02   -1.2637699890e+02
    2.5440618896e+02   -1.2635099792e+02
    2.5450564575e+02   -1.2632700348e+02
    2.5460502625e+02   -1.2630100250e+02
    2.5470628357e+02   -1.2627600098e+02
    2.5480543518e+02   -1.2625000000e+02
    2.5490437317e+02   -1.2622499847e+02
    2.5500509644e+02   -1.2619899750e+02
    2.5510560608e+02   -1.2617299652e+02
    2.5520602417e+02   -1.2614600372e+02
    2.5530441284e+02   -1.2612000275e+02
    2.5540451050e+02   -1.2609300232e+02
    2.5550633240e+02   -1.2606600189e+02
    2.5560606384e+02   -1.2603900146e+02
    2.5570565796e+02   -1.2601300049e+02
    2.5580511475e+02   -1.2598600006e+02
    2.5590446472e+02   -1.2595899963e+02
    2.5600567627e+02   -1.2593099976e+02
    2.5610494995e+02   -1.2590399933e+02
    2.5620507812e+02   -1.2587699890e+02
    2.5630545044e+02   -1.2584899902e+02
    2.5640603638e+02   -1.2582199860e+02
    2.5650640869e+02   -1.2579399872e+02
    2.5660488892e+02   -1.2576699829e+02
    2.5670608521e+02   -1.2573899841e+02
    2.5680596924e+02   -1.2571199799e+02
    2.5690457153e+02   -1.2568399811e+02
    2.5700476074e+02   -1.2565699768e+02
    2.5710461426e+02   -1.2562899780e+02
    2.5720547485e+02   -1.2559999847e+02
    2.5730462646e+02   -1.2557199860e+02
    2.5740554810e+02   -1.2554299927e+02
    2.5750463867e+02   -1.2551399994e+02
    2.5760601807e+02   -1.2548500061e+02
    2.5770520020e+02   -1.2545600128e+02
    2.5780648804e+02   -1.2542600250e+02
    2.5790542603e+02   -1.2539600372e+02
    2.5800607300e+02   -1.2536499786e+02
    2.5810647583e+02   -1.2533499908e+02
    2.5820526123e+02   -1.2530500031e+02
    2.5830615234e+02   -1.2527300262e+02
    2.5840496826e+02   -1.2524199677e+02
    2.5850576782e+02   -1.2521099854e+02
    2.5860647583e+02   -1.2517900085e+02
    2.5870498657e+02   -1.2514800262e+02
    2.5880526733e+02   -1.2511599731e+02
    2.5890615845e+02   -1.2508300018e+02
    2.5900500488e+02   -1.2505100250e+02
    2.5910620117e+02   -1.2501899719e+02
    2.5920608521e+02   -1.2498600006e+02
    2.5930511475e+02   -1.2495400238e+02
    2.5940585327e+02   -1.2492099762e+02
    2.5950540161e+02   -1.2488800049e+02
    2.5960565186e+02   -1.2485500336e+02
    2.5970581055e+02   -1.2482199860e+02
    2.5980487061e+02   -1.2478900146e+02
    2.5990567017e+02   -1.2475499725e+02
    2.6000592041e+02   -1.2472100067e+02
    2.6010610962e+02   -1.2468800354e+02
    2.6020553589e+02   -1.2465399933e+02
    2.6030575562e+02   -1.2462000275e+02
    2.6040536499e+02   -1.2458599854e+02
    2.6050622559e+02   -1.2455100250e+02
    2.6060549927e+02   -1.2451699829e+02
    2.6070495605e+02   -1.2448200226e+02
    2.6080599976e+02   -1.2444599915e+02
    2.6090512085e+02   -1.2441100311e+02
    2.6100659180e+02   -1.2437500000e+02
    2.6110653687e+02   -1.2433999634e+02
    2.6120654297e+02   -1.2430400085e+02
    2.6130645752e+02   -1.2426699829e+02
    2.6140643311e+02   -1.2423100281e+02
    2.6150640869e+02   -1.2419400024e+02
    2.6160629272e+02   -1.2415699768e+02
    2.6170602417e+02   -1.2412000275e+02
    2.6180557251e+02   -1.2408200073e+02
    2.6190487671e+02   -1.2404499817e+02
    2.6200598145e+02   -1.2400599670e+02
    2.6210504150e+02   -1.2396800232e+02
    2.6220581055e+02   -1.2393000031e+02
    2.6230633545e+02   -1.2389099884e+02
    2.6240673828e+02   -1.2385199738e+02
    2.6250515747e+02   -1.2381300354e+02
    2.6260552979e+02   -1.2377400208e+02
    2.6270587158e+02   -1.2373400116e+02
    2.6280624390e+02   -1.2369400024e+02
    2.6290652466e+02   -1.2365399933e+02
    2.6300500488e+02   -1.2361499786e+02
    2.6310589600e+02   -1.2357399750e+02
    2.6320510864e+02   -1.2353399658e+02
    2.6330676270e+02   -1.2349299622e+02
    2.6340588379e+02   -1.2345300293e+02
    2.6350595093e+02   -1.2341200256e+02
    2.6360665894e+02   -1.2337100220e+02
    2.6370498657e+02   -1.2333100128e+02
    2.6380670166e+02   -1.2328900146e+02
    2.6390679932e+02   -1.2324800110e+02
    2.6400650024e+02   -1.2320700073e+02
    2.6410583496e+02   -1.2316500092e+02
    2.6420556641e+02   -1.2312300110e+02
    2.6430639648e+02   -1.2308000183e+02
    2.6440557861e+02   -1.2303800201e+02
    2.6450497437e+02   -1.2299500275e+02
    2.6460604858e+02   -1.2295200348e+02
    2.6470553589e+02   -1.2290799713e+02
    2.6480603027e+02   -1.2286399841e+02
    2.6490621948e+02   -1.2281999969e+02
    2.6500622559e+02   -1.2277500153e+02
    2.6510623169e+02   -1.2273000336e+02
    2.6520608521e+02   -1.2268499756e+02
    2.6530581665e+02   -1.2263999939e+02
    2.6540551758e+02   -1.2259400177e+02
    2.6550503540e+02   -1.2254799652e+02
    2.6560641479e+02   -1.2250099945e+02
    2.6570574951e+02   -1.2245500183e+02
    2.6580697632e+02   -1.2240799713e+02
    2.6590612793e+02   -1.2236100006e+02
    2.6600515747e+02   -1.2231400299e+02
    2.6610650635e+02   -1.2226699829e+02
    2.6620581055e+02   -1.2221900177e+02
    2.6630645752e+02   -1.2217099762e+02
    2.6640701294e+02   -1.2212300110e+02
    2.6650534058e+02   -1.2207599640e+02
    2.6660580444e+02   -1.2202799988e+02
    2.6670693970e+02   -1.2197899628e+02
    2.6680541992e+02   -1.2193099976e+02
    2.6690594482e+02   -1.2188200378e+02
    2.6700576782e+02   -1.2183300018e+02
    2.6710543823e+02   -1.2178299713e+02
    2.6720556641e+02   -1.2173300171e+02
    2.6730673218e+02   -1.2168299866e+02
    2.6740658569e+02   -1.2163200378e+02
    2.6750659180e+02   -1.2158200073e+02
    2.6760659790e+02   -1.2153099823e+02
    2.6770657349e+02   -1.2147899628e+02
    2.6780679321e+02   -1.2142700195e+02
    2.6790704346e+02   -1.2137500000e+02
    2.6800534058e+02   -1.2132299805e+02
    2.6810562134e+02   -1.2126999664e+02
    2.6820596313e+02   -1.2121700287e+02
    2.6830630493e+02   -1.2116300201e+02
    2.6840664673e+02   -1.2110900116e+02
    2.6850695801e+02   -1.2105500031e+02
    2.6860525513e+02   -1.2100099945e+02
    2.6870538330e+02   -1.2094599915e+02
    2.6880541992e+02   -1.2089099884e+02
    2.6890554810e+02   -1.2083499908e+02
    2.6900561523e+02   -1.2077999878e+02
    2.6910559082e+02   -1.2072399902e+02
    2.6920715332e+02   -1.2066600037e+02
    2.6930618286e+02   -1.2061000061e+02
    2.6940707397e+02   -1.2055300140e+02
    2.6950601196e+02   -1.2049600220e+02
    2.6960702515e+02   -1.2043800354e+02
    2.6970626831e+02   -1.2038099670e+02
    2.6980612183e+02   -1.2032399750e+02
    2.6990625000e+02   -1.2026499939e+02
    2.7000698853e+02   -1.2020700073e+02
    2.7010610962e+02   -1.2014900208e+02
    2.7020581055e+02   -1.2008999634e+02
    2.7030538940e+02   -1.2003199768e+02
    2.7040591431e+02   -1.1997200012e+02
    2.7050601196e+02   -1.1991300201e+02
    2.7060635376e+02   -1.1985299683e+02
    2.7070516968e+02   -1.1979399872e+02
    2.7080596924e+02   -1.1973400116e+02
    2.7090652466e+02   -1.1967299652e+02
    2.7100689697e+02   -1.1961199951e+02
    2.7110665894e+02   -1.1955100250e+02
    2.7120648193e+02   -1.1948999786e+02
    2.7130718994e+02   -1.1942800140e+02
    2.7140609741e+02   -1.1936699677e+02
    2.7150683594e+02   -1.1930400085e+02
    2.7160723877e+02   -1.1924099731e+02
    2.7170721436e+02   -1.1917700195e+02
    2.7180725098e+02   -1.1911399841e+02
    2.7190548706e+02   -1.1905100250e+02
    2.7200585938e+02   -1.1898600006e+02
    2.7210610962e+02   -1.1892199707e+02
    2.7220623779e+02   -1.1885700226e+02
    2.7230624390e+02   -1.1879100037e+02
    2.7240606689e+02   -1.1872599792e+02
    2.7250576782e+02   -1.1866000366e+02
    2.7260733032e+02   -1.1859300232e+02
    2.7270681763e+02   -1.1852700043e+02
    2.7280630493e+02   -1.1846099854e+02
    2.7290585327e+02   -1.1839399719e+02
    2.7300634766e+02   -1.1832700348e+02
    2.7310693359e+02   -1.1825900269e+02
    2.7320550537e+02   -1.1819300079e+02
    2.7330624390e+02   -1.1812400055e+02
    2.7340551758e+02   -1.1805699921e+02
    2.7350744629e+02   -1.1798699951e+02
    2.7360543823e+02   -1.1791999817e+02
    2.7370709229e+02   -1.1784999847e+02
    2.7380593872e+02   -1.1778199768e+02
    2.7390646362e+02   -1.1771199799e+02
    2.7400729370e+02   -1.1764199829e+02
    2.7410620117e+02   -1.1757299805e+02
    2.7420559692e+02   -1.1750299835e+02
    2.7430737305e+02   -1.1743099976e+02
    2.7440542603e+02   -1.1736100006e+02
    2.7450747681e+02   -1.1728700256e+02
    2.7460595703e+02   -1.1721600342e+02
    2.7470727539e+02   -1.1714299774e+02
    2.7480661011e+02   -1.1707099915e+02
    2.7490594482e+02   -1.1699800110e+02
    2.7500720215e+02   -1.1692299652e+02
    2.7510641479e+02   -1.1684999847e+02
    2.7520565796e+02   -1.1677600098e+02
    2.7530691528e+02   -1.1669999695e+02
    2.7540606689e+02   -1.1662500000e+02
    2.7550704956e+02   -1.1654900360e+02
    2.7560592651e+02   -1.1647399902e+02
    2.7570675659e+02   -1.1639700317e+02
    2.7580746460e+02   -1.1631999969e+02
    2.7590600586e+02   -1.1624500275e+02
    2.7600650024e+02   -1.1616699982e+02
    2.7610671997e+02   -1.1608999634e+02
    2.7620672607e+02   -1.1601200104e+02
    2.7630657959e+02   -1.1593399811e+02
    2.7640631104e+02   -1.1585600281e+02
    2.7650601196e+02   -1.1577799988e+02
    2.7660586548e+02   -1.1569999695e+02
    2.7670596313e+02   -1.1562100220e+02
    2.7680636597e+02   -1.1554100037e+02
    2.7690719604e+02   -1.1546099854e+02
    2.7700683594e+02   -1.1538200378e+02
    2.7710717773e+02   -1.1530100250e+02
    2.7720669556e+02   -1.1522100067e+02
    2.7730712891e+02   -1.1513999939e+02
    2.7740570068e+02   -1.1506099701e+02
    2.7750747681e+02   -1.1497799683e+02
    2.7760708618e+02   -1.1489700317e+02
    2.7770654297e+02   -1.1481600189e+02
    2.7780657959e+02   -1.1473400116e+02
    2.7790606689e+02   -1.1465200043e+02
    2.7800753784e+02   -1.1456800079e+02
    2.7810626221e+02   -1.1448500061e+02
    2.7820602417e+02   -1.1440200043e+02
    2.7830578613e+02   -1.1431900024e+02
    2.7840579224e+02   -1.1423400116e+02
    2.7850625610e+02   -1.1414900208e+02
    2.7860668945e+02   -1.1406400299e+02
    2.7870709229e+02   -1.1397899628e+02
    2.7880718994e+02   -1.1389299774e+02
    2.7890725708e+02   -1.1380699921e+02
    2.7900744629e+02   -1.1372100067e+02
    2.7910766602e+02   -1.1363400269e+02
    2.7920593262e+02   -1.1354900360e+02
    2.7930621338e+02   -1.1346199799e+02
    2.7940643311e+02   -1.1337500000e+02
    2.7950668335e+02   -1.1328700256e+02
    2.7960696411e+02   -1.1319899750e+02
    2.7970733643e+02   -1.1311100006e+02
    2.7980590820e+02   -1.1302400208e+02
    2.7990585327e+02   -1.1293599701e+02
    2.8000582886e+02   -1.1284799957e+02
    2.8010614014e+02   -1.1275900269e+02
    2.8020730591e+02   -1.1266999817e+02
    2.8030630493e+02   -1.1258200073e+02
    2.8040756226e+02   -1.1249099731e+02
    2.8050772095e+02   -1.1240200043e+02
    2.8060635376e+02   -1.1231400299e+02
    2.8070660400e+02   -1.1222299957e+02
    2.8080633545e+02   -1.1213300323e+02
    2.8090603638e+02   -1.1204299927e+02
    2.8100744629e+02   -1.1195099640e+02
    2.8110705566e+02   -1.1186000061e+02
    2.8120758057e+02   -1.1176799774e+02
    2.8130630493e+02   -1.1167700195e+02
    2.8140771484e+02   -1.1158300018e+02
    2.8150607300e+02   -1.1149199677e+02
    2.8160678101e+02   -1.1139900208e+02
    2.8170709229e+02   -1.1130500031e+02
    2.8180746460e+02   -1.1121099854e+02
    2.8190618896e+02   -1.1111799622e+02
    2.8200704956e+02   -1.1102300262e+02
    2.8210797119e+02   -1.1092700195e+02
    2.8220660400e+02   -1.1083300018e+02
    2.8230722046e+02   -1.1073699951e+02
    2.8240600586e+02   -1.1064299774e+02
    2.8250686646e+02   -1.1054599762e+02
    2.8260784912e+02   -1.1044899750e+02
    2.8270693970e+02   -1.1035399628e+02
    2.8280801392e+02   -1.1025599670e+02
    2.8290698242e+02   -1.1016000366e+02
    2.8300778198e+02   -1.1006199646e+02
    2.8310644531e+02   -1.0996600342e+02
    2.8320703125e+02   -1.0986799622e+02
    2.8330758667e+02   -1.0976899719e+02
    2.8340640259e+02   -1.0967199707e+02
    2.8350738525e+02   -1.0957299805e+02
    2.8360739136e+02   -1.0947399902e+02
    2.8370739746e+02   -1.0937500000e+02
    2.8380798340e+02   -1.0927400208e+02
    2.8390667725e+02   -1.0917600250e+02
    2.8400622559e+02   -1.0907599640e+02
    2.8410800171e+02   -1.0897399902e+02
    2.8420605469e+02   -1.0887500000e+02
    2.8430697632e+02   -1.0877300262e+02
    2.8440643311e+02   -1.0867199707e+02
    2.8450802612e+02   -1.0856900024e+02
    2.8460684204e+02   -1.0846800232e+02
    2.8470681763e+02   -1.0836499786e+02
    2.8480682373e+02   -1.0826200104e+02
    2.8490618896e+02   -1.0816000366e+02
    2.8500772095e+02   -1.0805400085e+02
    2.8510717773e+02   -1.0795099640e+02
    2.8520715332e+02   -1.0784700012e+02
    2.8530688477e+02   -1.0774199677e+02
    2.8540667725e+02   -1.0763800049e+02
    2.8550656128e+02   -1.0753199768e+02
    2.8560653687e+02   -1.0742700195e+02
    2.8570660400e+02   -1.0732099915e+02
    2.8580670166e+02   -1.0721399689e+02
    2.8590686035e+02   -1.0710800171e+02
    2.8600711060e+02   -1.0700099945e+02
    2.8610736084e+02   -1.0689399719e+02
    2.8620773315e+02   -1.0678600311e+02
    2.8630636597e+02   -1.0668000031e+02
    2.8640740967e+02   -1.0657099915e+02
    2.8650643921e+02   -1.0646499634e+02
    2.8660733032e+02   -1.0635600281e+02
    2.8670697021e+02   -1.0624800110e+02
    2.8680743408e+02   -1.0613899994e+02
    2.8690643311e+02   -1.0603099823e+02
    2.8700750732e+02   -1.0592099762e+02
    2.8710684204e+02   -1.0581300354e+02
    2.8720819092e+02   -1.0570200348e+02
    2.8730728149e+02   -1.0559300232e+02
    2.8740823364e+02   -1.0548200226e+02
    2.8750680542e+02   -1.0537400055e+02
    2.8760675049e+02   -1.0526300049e+02
    2.8770803833e+02   -1.0515100098e+02
    2.8780688477e+02   -1.0504199982e+02
    2.8790673828e+02   -1.0493000031e+02
    2.8800646973e+02   -1.0481900024e+02
    2.8810745239e+02   -1.0470600128e+02
    2.8820788574e+02   -1.0459300232e+02
    2.8830773926e+02   -1.0448100281e+02
    2.8840792847e+02   -1.0436699677e+02
    2.8850833130e+02   -1.0425399780e+02
    2.8860812378e+02   -1.0413999939e+02
    2.8870642090e+02   -1.0402799988e+02
    2.8880813599e+02   -1.0391200256e+02
    2.8890820312e+02   -1.0379799652e+02
    2.8900823975e+02   -1.0368299866e+02
    2.8910839844e+02   -1.0356800079e+02
    2.8920666504e+02   -1.0345500183e+02
    2.8930700684e+02   -1.0333899689e+02
    2.8940750122e+02   -1.0322299957e+02
    2.8950805664e+02   -1.0310700226e+02
    2.8960668945e+02   -1.0299199677e+02
    2.8970739746e+02   -1.0287500000e+02
    2.8980645752e+02   -1.0275900269e+02
    2.8990792847e+02   -1.0264099884e+02
    2.9000839233e+02   -1.0252300262e+02
    2.9010681152e+02   -1.0240799713e+02
    2.9020709229e+02   -1.0229000092e+02
    2.9030654907e+02   -1.0217199707e+02
    2.9040695190e+02   -1.0205300140e+02
    2.9050790405e+02   -1.0193399811e+02
    2.9060736084e+02   -1.0181500244e+02
    2.9070761108e+02   -1.0169599915e+02
    2.9080831909e+02   -1.0157499695e+02
    2.9090692139e+02   -1.0145700073e+02
    2.9100756836e+02   -1.0133499908e+02
    2.9110671997e+02   -1.0121499634e+02
    2.9120782471e+02   -1.0109300232e+02
    2.9130691528e+02   -1.0097200012e+02
    2.9140689087e+02   -1.0084999847e+02
    2.9150781250e+02   -1.0072699738e+02
    2.9160760498e+02   -1.0060500336e+02
    2.9170739746e+02   -1.0048200226e+02
    2.9180722046e+02   -1.0035800171e+02
    2.9190710449e+02   -1.0023500061e+02
    2.9200714111e+02   -1.0011100006e+02
    2.9210733032e+02   -9.9985900879e+01
    2.9220767212e+02   -9.9860702515e+01
    2.9230813599e+02   -9.9734901428e+01
    2.9240673828e+02   -9.9611198425e+01
    2.9250747681e+02   -9.9484497070e+01
    2.9260830688e+02   -9.9357398987e+01
    2.9270724487e+02   -9.9232498169e+01
    2.9280819702e+02   -9.9104598999e+01
    2.9290716553e+02   -9.8978996277e+01
    2.9300814819e+02   -9.8850601196e+01
    2.9310708618e+02   -9.8724601746e+01
    2.9320797729e+02   -9.8595703125e+01
    2.9330688477e+02   -9.8469200134e+01
    2.9340792847e+02   -9.8339698792e+01
    2.9350708008e+02   -9.8212402344e+01
    2.9360681152e+02   -9.8084098816e+01
    2.9370809937e+02   -9.7953498840e+01
    2.9380709839e+02   -9.7825599670e+01
    2.9390829468e+02   -9.7694602966e+01
    2.9400750732e+02   -9.7565902710e+01
    2.9410781860e+02   -9.7435600281e+01
    2.9420690918e+02   -9.7306503296e+01
    2.9430728149e+02   -9.7175399780e+01
    2.9440774536e+02   -9.7043998718e+01
    2.9450701904e+02   -9.6913803101e+01
    2.9460821533e+02   -9.6780700684e+01
    2.9470837402e+02   -9.6648696899e+01
    2.9480822754e+02   -9.6516899109e+01
    2.9490808105e+02   -9.6384696960e+01
    2.9500784302e+02   -9.6252296448e+01
    2.9510736084e+02   -9.6120002747e+01
    2.9520736694e+02   -9.5986801147e+01
    2.9530764771e+02   -9.5852897644e+01
    2.9540783691e+02   -9.5718803406e+01
    2.9550765991e+02   -9.5584999084e+01
    2.9560717773e+02   -9.5451301575e+01
    2.9570880127e+02   -9.5314598083e+01
    2.9580850220e+02   -9.5180099487e+01
    2.9590832520e+02   -9.5045303345e+01
    2.9600817871e+02   -9.4910102844e+01
    2.9610803223e+02   -9.4774696350e+01
    2.9620809937e+02   -9.4638801575e+01
    2.9630816650e+02   -9.4502700806e+01
    2.9640826416e+02   -9.4366302490e+01
    2.9650823975e+02   -9.4229896545e+01
    2.9660861206e+02   -9.4092697144e+01
    2.9670706177e+02   -9.3957901001e+01
    2.9680883789e+02   -9.3818397522e+01
    2.9690704346e+02   -9.3683502197e+01
    2.9700775146e+02   -9.3544998169e+01
    2.9710678101e+02   -9.3408500671e+01
    2.9720785522e+02   -9.3268997192e+01
    2.9730856323e+02   -9.3129699707e+01
    2.9740753174e+02   -9.2992599487e+01
    2.9750869751e+02   -9.2852096558e+01
    2.9760809326e+02   -9.2713897705e+01
    2.9770758057e+02   -9.2575202942e+01
    2.9780734253e+02   -9.2435798645e+01
    2.9790859985e+02   -9.2294097900e+01
    2.9800842285e+02   -9.2154098511e+01
    2.9810824585e+02   -9.2013801575e+01
    2.9820803833e+02   -9.1873199463e+01
    2.9830786133e+02   -9.1732398987e+01
    2.9840771484e+02   -9.1591102600e+01
    2.9850808716e+02   -9.1448898315e+01
    2.9860876465e+02   -9.1305900574e+01
    2.9870733643e+02   -9.1165603638e+01
    2.9880752563e+02   -9.1022697449e+01
    2.9890786743e+02   -9.0879402161e+01
    2.9900839233e+02   -9.0735397339e+01
    2.9910711670e+02   -9.0593803406e+01
    2.9920806885e+02   -9.0448699951e+01
    2.9930715942e+02   -9.0305999756e+01
    2.9940832520e+02   -9.0160003662e+01
    2.9950738525e+02   -9.0016799927e+01
    2.9960839844e+02   -8.9870399475e+01
    2.9970730591e+02   -8.9726898193e+01
    2.9980822754e+02   -8.9580200195e+01
    2.9990829468e+02   -8.9434402466e+01
endcurve
