Curveplot
LS-DYNA keyword deck by LS-PrePost
Abscissa
Ordinate
XY data
CHOP_NASX_mo-1 #pts=3000
* Minval=     0.0000000000e+00 at time=         0.0000000000
* Maxval=     4.8179008484e+01 at time=       174.6003875732
    0.0000000000e+00    0.0000000000e+00
    9.8183788359e-02    1.5349100577e-03
    1.9912311435e-01    3.1128900591e-03
    2.9914626479e-01    4.6765501611e-03
    3.9893028140e-01    6.2364800833e-03
    4.9987983704e-01    7.8146196902e-03
    5.9893918037e-01    9.3632200733e-03
    6.9821006060e-01    1.0915099643e-02
    7.9874593019e-01    1.2486798689e-02
    8.9882433414e-01    1.4051297680e-02
    9.9832749367e-01    1.5606899746e-02
    1.0999573469e+00    1.7195599154e-02
    1.1990598440e+00    1.8744900823e-02
    1.2982653379e+00    2.0295798779e-02
    1.3986650705e+00    2.1865298972e-02
    1.4996013641e+00    2.3443298414e-02
    1.5996849537e+00    2.5007903576e-02
    1.6981848478e+00    2.6547716931e-02
    1.7999788523e+00    2.8139144182e-02
    1.8988424540e+00    2.9684666544e-02
    1.9994133711e+00    3.1256832182e-02
    2.0989580154e+00    3.2812904567e-02
    2.1992669106e+00    3.4380793571e-02
    2.2983224392e+00    3.5929240286e-02
    2.3979117870e+00    3.7486247718e-02
    2.4989500046e+00    3.9066281170e-02
    2.5995516777e+00    4.0639907122e-02
    2.6994926929e+00    4.2203325778e-02
    2.7996888161e+00    4.3770305812e-02
    2.8994047642e+00    4.5329116285e-02
    2.9979913235e+00    4.6869255602e-02
    3.0980477333e+00    4.8431422561e-02
    3.1992988586e+00    5.0011500716e-02
    3.2992305756e+00    5.1570914686e-02
    3.3995552063e+00    5.3136635572e-02
    3.4997022152e+00    5.4700460285e-02
    3.5991342068e+00    5.6254375726e-02
    3.6984682083e+00    5.7808090001e-02
    3.7986755371e+00    5.9377331287e-02
    3.8990821838e+00    6.0951374471e-02
    3.9984014034e+00    6.2510184944e-02
    4.0992770195e+00    6.4095020294e-02
    4.1981892586e+00    6.5650455654e-02
    4.2979784012e+00    6.7220933735e-02
    4.3989949226e+00    6.8811789155e-02
    4.4994268417e+00    7.0394098759e-02
    4.5986452103e+00    7.1957662702e-02
    4.6987481117e+00    7.3535032570e-02
    4.7985696793e+00    7.5107492507e-02
    4.8981180191e+00    7.6674923301e-02
    4.9979515076e+00    7.8245699406e-02
    5.0988612175e+00    7.9832002521e-02
    5.1990551949e+00    8.1405453384e-02
    5.2997980118e+00    8.2985721529e-02
    5.3985314369e+00    8.4532536566e-02
    5.4989075661e+00    8.6102925241e-02
    5.5980806351e+00    8.7652161717e-02
    5.6982302666e+00    8.9213959873e-02
    5.7982525826e+00    9.0770997107e-02
    5.8983926773e+00    9.2326730490e-02
    5.9997043610e+00    9.3897342682e-02
    6.0987768173e+00    9.5429942012e-02
    6.1986193657e+00    9.6971087158e-02
    6.2991733551e+00    9.8519936204e-02
    6.3982605934e+00    1.0004285723e-01
    6.4995446205e+00    1.0159590095e-01
    6.5997424126e+00    1.0313002020e-01
    6.6981744766e+00    1.0463357717e-01
    6.7997589111e+00    1.0618170351e-01
    6.8993792534e+00    1.0769631714e-01
    6.9995565414e+00    1.0921641439e-01
    7.0997915268e+00    1.1073419452e-01
    7.1987843513e+00    1.1223039031e-01
    7.2995963097e+00    1.1375042051e-01
    7.3998112679e+00    1.1525762081e-01
    7.4993724823e+00    1.1675315350e-01
    7.5993847847e+00    1.1825139821e-01
    7.6991977692e+00    1.1974485219e-01
    7.7982468605e+00    1.2122302502e-01
    7.8989233971e+00    1.2272328883e-01
    7.9986028671e+00    1.2420558184e-01
    8.0983963013e+00    1.2568706274e-01
    8.1994724274e+00    1.2718474865e-01
    8.2984075546e+00    1.2864843011e-01
    8.3988151550e+00    1.3013109565e-01
    8.4993610382e+00    1.3161186874e-01
    8.5992784500e+00    1.3308259845e-01
    8.6999092102e+00    1.3456021249e-01
    8.7994432449e+00    1.3601969182e-01
    8.8991546631e+00    1.3747899234e-01
    8.9984941483e+00    1.3893188536e-01
    9.0998392105e+00    1.4041303098e-01
    9.1995410919e+00    1.4186717570e-01
    9.2982311249e+00    1.4330570400e-01
    9.3980522156e+00    1.4475926757e-01
    9.4979400635e+00    1.4621086419e-01
    9.5987491608e+00    1.4767436683e-01
    9.6984415054e+00    1.4911994338e-01
    9.7999868393e+00    1.5058904886e-01
    9.8994026184e+00    1.5202526748e-01
    9.9998521805e+00    1.5347489715e-01
    1.0098519325e+01    1.5734744072e-01
    1.0199457169e+01    1.6131217778e-01
    1.0299710274e+01    1.6524703801e-01
    1.0399371147e+01    1.6915822029e-01
    1.0498679161e+01    1.7305371165e-01
    1.0599512100e+01    1.7700834572e-01
    1.0698548317e+01    1.8089166284e-01
    1.0799074173e+01    1.8483352661e-01
    1.0899873734e+01    1.8878547847e-01
    1.0999960899e+01    1.9270771742e-01
    1.1099374771e+01    1.9660393894e-01
    1.1199412346e+01    2.0052307844e-01
    1.1298261642e+01    2.0439317822e-01
    1.1398068428e+01    2.0830003917e-01
    1.1498903275e+01    2.1224425733e-01
    1.1598305702e+01    2.1613015234e-01
    1.1699919701e+01    2.2010032833e-01
    1.1797915459e+01    2.2392626107e-01
    1.1898461342e+01    2.2784878314e-01
    1.1999602318e+01    2.3179250956e-01
    1.2098773003e+01    2.3565629125e-01
    1.2199694633e+01    2.3958428204e-01
    1.2298727036e+01    2.4343633652e-01
    1.2399748802e+01    2.4736346304e-01
    1.2499246597e+01    2.5122866035e-01
    1.2598966599e+01    2.5509992242e-01
    1.2698843002e+01    2.5897398591e-01
    1.2798324585e+01    2.6282912493e-01
    1.2899444580e+01    2.6674422622e-01
    1.2998724937e+01    2.7058333158e-01
    1.3099512100e+01    2.7447667718e-01
    1.3198291779e+01    2.7828946710e-01
    1.3298863411e+01    2.8216946125e-01
    1.3398011208e+01    2.8599280119e-01
    1.3498142242e+01    2.8985273838e-01
    1.3598805428e+01    2.9373380542e-01
    1.3699188232e+01    2.9760521650e-01
    1.3798082352e+01    3.0142068863e-01
    1.3899313927e+01    3.0532687902e-01
    1.3999874115e+01    3.0920872092e-01
    1.4098267555e+01    3.1300786138e-01
    1.4198948860e+01    3.1689664721e-01
    1.4299620628e+01    3.2078510523e-01
    1.4398451805e+01    3.2460311055e-01
    1.4498159409e+01    3.2845491171e-01
    1.4599633217e+01    3.3237278461e-01
    1.4697935104e+01    3.3616560698e-01
    1.4798772812e+01    3.4005430341e-01
    1.4898574829e+01    3.4389820695e-01
    1.4998423576e+01    3.4773969650e-01
    1.5098880768e+01    3.5159969330e-01
    1.5199631691e+01    3.5546541214e-01
    1.5299453735e+01    3.5928881168e-01
    1.5399840355e+01    3.6312720180e-01
    1.5498711586e+01    3.6689990759e-01
    1.5598532677e+01    3.7070181966e-01
    1.5698728561e+01    3.7451067567e-01
    1.5799994469e+01    3.7835019827e-01
    1.5898333549e+01    3.8207051158e-01
    1.5999801636e+01    3.8590008020e-01
    1.6098541260e+01    3.8961711526e-01
    1.6200017929e+01    3.9342740178e-01
    1.6299877167e+01    3.9716780186e-01
    1.6399007797e+01    4.0087059140e-01
    1.6499197006e+01    4.0460279584e-01
    1.6598306656e+01    4.0828418732e-01
    1.6699092865e+01    4.1201719642e-01
    1.6798330307e+01    4.1568258405e-01
    1.6899732590e+01    4.1941609979e-01
    1.6998058319e+01    4.2302498221e-01
    1.7098949432e+01    4.2671808600e-01
    1.7198297501e+01    4.3034371734e-01
    1.7298633575e+01    4.3399399519e-01
    1.7398145676e+01    4.3760588765e-01
    1.7499736786e+01    4.4128310680e-01
    1.7599243164e+01    4.4487500191e-01
    1.7698213577e+01    4.4843930006e-01
    1.7798057556e+01    4.5202589035e-01
    1.7899745941e+01    4.5566889644e-01
    1.7998996735e+01    4.5921641588e-01
    1.8099042892e+01    4.6278309822e-01
    1.8198150635e+01    4.6630829573e-01
    1.8299657822e+01    4.6990820765e-01
    1.8399873734e+01    4.7345328331e-01
    1.8499559402e+01    4.7697100043e-01
    1.8598203659e+01    4.8044261336e-01
    1.8699617386e+01    4.8400390148e-01
    1.8799816132e+01    4.8751372099e-01
    1.8898628235e+01    4.9096748233e-01
    1.8998750687e+01    4.9445980787e-01
    1.9098970413e+01    4.9794849753e-01
    1.9199937820e+01    5.0145685673e-01
    1.9298763275e+01    5.0488400459e-01
    1.9398580551e+01    5.0833851099e-01
    1.9499242783e+01    5.1181501150e-01
    1.9598770142e+01    5.1524543762e-01
    1.9699743271e+01    5.1871901751e-01
    1.9798460007e+01    5.2210748196e-01
    1.9899494171e+01    5.2556902170e-01
    1.9998291016e+01    5.2894800901e-01
    2.0098955154e+01    5.3504711390e-01
    2.0199647903e+01    5.4118943214e-01
    2.0299768448e+01    5.4729139805e-01
    2.0399539948e+01    5.5336743593e-01
    2.0498609543e+01    5.5939739943e-01
    2.0599105835e+01    5.6551086903e-01
    2.0698131561e+01    5.7153248787e-01
    2.0798519135e+01    5.7763469219e-01
    2.0899551392e+01    5.8377408981e-01
    2.0999647141e+01    5.8985292912e-01
    2.1099111557e+01    5.9589058161e-01
    2.1198966980e+01    6.0194748640e-01
    2.1298326492e+01    6.0796880722e-01
    2.1398935318e+01    6.1406099796e-01
    2.1499458313e+01    6.2014144659e-01
    2.1598619461e+01    6.2613403797e-01
    2.1698289871e+01    6.3214886189e-01
    2.1799348831e+01    6.3824051619e-01
    2.1897935867e+01    6.4417600632e-01
    2.1999275208e+01    6.5026801825e-01
    2.2097919464e+01    6.5618890524e-01
    2.2198156357e+01    6.6219681501e-01
    2.2299243927e+01    6.6824579239e-01
    2.2400039673e+01    6.7426872253e-01
    2.2498214722e+01    6.8012619019e-01
    2.2599086761e+01    6.8613505363e-01
    2.2698888779e+01    6.9207221270e-01
    2.2799312592e+01    6.9803589582e-01
    2.2899595261e+01    7.0398181677e-01
    2.2998430252e+01    7.0983171463e-01
    2.3099084854e+01    7.1578025818e-01
    2.3199552536e+01    7.2170901299e-01
    2.3299903870e+01    7.2762405872e-01
    2.3399003983e+01    7.3345857859e-01
    2.3498929977e+01    7.3933666945e-01
    2.3598531723e+01    7.4519079924e-01
    2.3698837280e+01    7.5108170509e-01
    2.3799287796e+01    7.5697773695e-01
    2.3898925781e+01    7.6282334328e-01
    2.3999414444e+01    7.6871442795e-01
    2.4099821091e+01    7.7459907532e-01
    2.4199785233e+01    7.8045356274e-01
    2.4299215317e+01    7.8627455235e-01
    2.4398683548e+01    7.9209238291e-01
    2.4498859406e+01    7.9794818163e-01
    2.4599990845e+01    8.0385363102e-01
    2.4699514389e+01    8.0965876579e-01
    2.4799453735e+01    8.1547921896e-01
    2.4899499893e+01    8.2129782438e-01
    2.4998231888e+01    8.2703077793e-01
    2.5099704742e+01    8.3291113377e-01
    2.5198339462e+01    8.3861446381e-01
    2.5299097061e+01    8.4442889690e-01
    2.5399494171e+01    8.5020923615e-01
    2.5499496460e+01    8.5595250130e-01
    2.5599704742e+01    8.6169290543e-01
    2.5699876785e+01    8.6741548777e-01
    2.5799884796e+01    8.7311369181e-01
    2.5899108887e+01    8.7874990702e-01
    2.5998329163e+01    8.8436961174e-01
    2.6099086761e+01    8.9005941153e-01
    2.6199541092e+01    8.9571464062e-01
    2.6299970627e+01    9.0134888887e-01
    2.6399118423e+01    9.0689426661e-01
    2.6499774933e+01    9.1250419617e-01
    2.6598541260e+01    9.1798692942e-01
    2.6699808121e+01    9.2359173298e-01
    2.6799467087e+01    9.2908549309e-01
    2.6899703979e+01    9.3459171057e-01
    2.6999322891e+01    9.4004523754e-01
    2.7098617554e+01    9.4546329975e-01
    2.7199611664e+01    9.5094966888e-01
    2.7298065186e+01    9.5628052950e-01
    2.7399250031e+01    9.6173655987e-01
    2.7499807358e+01    9.6714299917e-01
    2.7599348068e+01    9.7247505188e-01
    2.7699430466e+01    9.7782301903e-01
    2.7799060822e+01    9.8312997818e-01
    2.7899314880e+01    9.8845100403e-01
    2.7998985291e+01    9.9373292923e-01
    2.8098850250e+01    9.9899500608e-01
    2.8199756622e+01    1.0043039322e+00
    2.8298299789e+01    1.0094600916e+00
    2.8398641586e+01    1.0147019625e+00
    2.8500015259e+01    1.0199700594e+00
    2.8597982407e+01    1.0250530243e+00
    2.8700023651e+01    1.0303250551e+00
    2.8798591614e+01    1.0354059935e+00
    2.8899835587e+01    1.0406069756e+00
    2.8998102188e+01    1.0456299782e+00
    2.9099990845e+01    1.0508290529e+00
    2.9198360443e+01    1.0558409691e+00
    2.9299106598e+01    1.0609480143e+00
    2.9398105621e+01    1.0659610033e+00
    2.9499437332e+01    1.0710700750e+00
    2.9599403381e+01    1.0760990381e+00
    2.9699005127e+01    1.0810999870e+00
    2.9799058914e+01    1.0861120224e+00
    2.9898826599e+01    1.0910980701e+00
    2.9998357773e+01    1.0960559845e+00
    3.0098888397e+01    1.1069769859e+00
    3.0199832916e+01    1.1180208921e+00
    3.0299915314e+01    1.1289719343e+00
    3.0399776459e+01    1.1398890018e+00
    3.0498529434e+01    1.1506789923e+00
    3.0599279404e+01    1.1616859436e+00
    3.0698387146e+01    1.1724981070e+00
    3.0798753738e+01    1.1834410429e+00
    3.0899684906e+01    1.1944479942e+00
    3.0999702454e+01    1.2053461075e+00
    3.1099124908e+01    1.2161779404e+00
    3.1198778152e+01    1.2270189524e+00
    3.1298311234e+01    1.2378439903e+00
    3.1398508072e+01    1.2487269640e+00
    3.1499303818e+01    1.2596689463e+00
    3.1599107742e+01    1.2704880238e+00
    3.1698919296e+01    1.2813060284e+00
    3.1798555374e+01    1.2920849323e+00
    3.1899126053e+01    1.3029519320e+00
    3.1999755859e+01    1.3138140440e+00
    3.2098369598e+01    1.3244390488e+00
    3.2198089600e+01    1.3351669312e+00
    3.2298179626e+01    1.3459219933e+00
    3.2399063110e+01    1.3567450047e+00
    3.2499000549e+01    1.3674530983e+00
    3.2599899292e+01    1.3782459497e+00
    3.2699657440e+01    1.3889070749e+00
    3.2799022675e+01    1.3995090723e+00
    3.2898643494e+01    1.4101179838e+00
    3.2999446869e+01    1.4208329916e+00
    3.3098613739e+01    1.4313539267e+00
    3.3199157715e+01    1.4420099258e+00
    3.3298656464e+01    1.4525330067e+00
    3.3399826050e+01    1.4632270336e+00
    3.3499744415e+01    1.4737670422e+00
    3.3599918365e+01    1.4843329191e+00
    3.3699794769e+01    1.4948670864e+00
    3.3798305511e+01    1.5052349567e+00
    3.3898357391e+01    1.5157719851e+00
    3.3998065948e+01    1.5262609720e+00
    3.4099456787e+01    1.5369160175e+00
    3.4198986053e+01    1.5473760366e+00
    3.4299285889e+01    1.5579129457e+00
    3.4399330139e+01    1.5684069395e+00
    3.4498596191e+01    1.5788189173e+00
    3.4599075317e+01    1.5893440247e+00
    3.4699577332e+01    1.5998539925e+00
    3.4798046112e+01    1.6101360321e+00
    3.4898307800e+01    1.6205910444e+00
    3.4999942780e+01    1.6311739683e+00
    3.5099067688e+01    1.6414660215e+00
    3.5199687958e+01    1.6519000530e+00
    3.5298454285e+01    1.6621160507e+00
    3.5398876190e+01    1.6724770069e+00
    3.5498523712e+01    1.6827409267e+00
    3.5598751068e+01    1.6930229664e+00
    3.5698947906e+01    1.7032880783e+00
    3.5798839569e+01    1.7134799957e+00
    3.5899185181e+01    1.7236890793e+00
    3.5998168945e+01    1.7337310314e+00
    3.6099449158e+01    1.7439699173e+00
    3.6199863434e+01    1.7540879250e+00
    3.6299209595e+01    1.7640699148e+00
    3.6399646759e+01    1.7741198540e+00
    3.6499813080e+01    1.7841119766e+00
    3.6598258972e+01    1.7938978672e+00
    3.6699520111e+01    1.8039309978e+00
    3.6799983978e+01    1.8138408661e+00
    3.6899822235e+01    1.8236640692e+00
    3.6998287201e+01    1.8333119154e+00
    3.7098762512e+01    1.8431280851e+00
    3.7199153900e+01    1.8529020548e+00
    3.7298419952e+01    1.8625360727e+00
    3.7398902893e+01    1.8722410202e+00
    3.7498867035e+01    1.8818800449e+00
    3.7598621368e+01    1.8914529085e+00
    3.7698493958e+01    1.9010200500e+00
    3.7798793793e+01    1.9105830193e+00
    3.7899002075e+01    1.9201178551e+00
    3.7998519897e+01    1.9295439720e+00
    3.8098690033e+01    1.9390070438e+00
    3.8199634552e+01    1.9485131502e+00
    3.8298583984e+01    1.9578030109e+00
    3.8399978638e+01    1.9672789574e+00
    3.8499069214e+01    1.9765099287e+00
    3.8599227905e+01    1.9858120680e+00
    3.8699016571e+01    1.9950459003e+00
    3.8798889160e+01    2.0042560101e+00
    3.8899158478e+01    2.0134830475e+00
    3.8999721527e+01    2.0227007866e+00
    3.9098751068e+01    2.0317461491e+00
    3.9199024200e+01    2.0408790112e+00
    3.9298969269e+01    2.0499570370e+00
    3.9399429321e+01    2.0590610504e+00
    3.9499420166e+01    2.0680980682e+00
    3.9598690033e+01    2.0770368576e+00
    3.9698402405e+01    2.0859959126e+00
    3.9798267365e+01    2.0949470997e+00
    3.9899662018e+01    2.1040189266e+00
    3.9998157501e+01    2.1128001213e+00
    4.0098312378e+01    2.1293799877e+00
    4.0199260712e+01    2.1462109089e+00
    4.0299274445e+01    2.1628730297e+00
    4.0399101257e+01    2.1794879436e+00
    4.0499881744e+01    2.1962418556e+00
    4.0598751068e+01    2.2126801014e+00
    4.0697849274e+01    2.2291390896e+00
    4.0798099518e+01    2.2457830906e+00
    4.0898983002e+01    2.2625141144e+00
    4.0999225616e+01    2.2791399956e+00
    4.1098846436e+01    2.2956500053e+00
    4.1198230743e+01    2.3121070862e+00
    4.1299804688e+01    2.3289120197e+00
    4.1398517609e+01    2.3452260494e+00
    4.1499492645e+01    2.3618919849e+00
    4.1599098206e+01    2.3783249855e+00
    4.1698673248e+01    2.3947288990e+00
    4.1798664093e+01    2.4111747742e+00
    4.1899353027e+01    2.4277200699e+00
    4.1998130798e+01    2.4439198971e+00
    4.2098697662e+01    2.4604010582e+00
    4.2198337555e+01    2.4766929150e+00
    4.2299415588e+01    2.4931988716e+00
    4.2397911072e+01    2.5092470646e+00
    4.2498508453e+01    2.5256211758e+00
    4.2599517822e+01    2.5420300961e+00
    4.2698760986e+01    2.5581271648e+00
    4.2797988892e+01    2.5741951466e+00
    4.2898094177e+01    2.5903730392e+00
    4.2999389648e+01    2.6067068577e+00
    4.3098480225e+01    2.6226558685e+00
    4.3199134827e+01    2.6388270855e+00
    4.3299274445e+01    2.6548960209e+00
    4.3398456573e+01    2.6707739830e+00
    4.3498039246e+01    2.6867060661e+00
    4.3598197937e+01    2.7027130127e+00
    4.3699562073e+01    2.7189009190e+00
    4.3798164368e+01    2.7346301079e+00
    4.3898494720e+01    2.7506170273e+00
    4.3997955322e+01    2.7664608955e+00
    4.4099380493e+01    2.7825920582e+00
    4.4199527740e+01    2.7985169888e+00
    4.4299797058e+01    2.8144431114e+00
    4.4399765015e+01    2.8303060532e+00
    4.4499065399e+01    2.8460431099e+00
    4.4599613190e+01    2.8619599342e+00
    4.4699859619e+01    2.8778069019e+00
    4.4799285889e+01    2.8934960365e+00
    4.4899593353e+01    2.9092931747e+00
    4.4998767853e+01    2.9248731136e+00
    4.5098468781e+01    2.9405119419e+00
    4.5199489594e+01    2.9563097954e+00
    4.5298721313e+01    2.9717960358e+00
    4.5399169922e+01    2.9874291420e+00
    4.5498218536e+01    3.0027990341e+00
    4.5598464966e+01    3.0183129311e+00
    4.5698719025e+01    3.0337681770e+00
    4.5798614502e+01    3.0491318703e+00
    4.5898624420e+01    3.0644588470e+00
    4.5999057770e+01    3.0797910690e+00
    4.6098060608e+01    3.0948560238e+00
    4.6197959900e+01    3.1100108624e+00
    4.6298259735e+01    3.1251599789e+00
    4.6398853302e+01    3.1403081417e+00
    4.6498332977e+01    3.1552329063e+00
    4.6598827362e+01    3.1702570915e+00
    4.6699333191e+01    3.1852250099e+00
    4.6799842834e+01    3.2001340389e+00
    4.6898353577e+01    3.2146930695e+00
    4.6998882294e+01    3.2294890881e+00
    4.7099407196e+01    3.2442400455e+00
    4.7199050903e+01    3.2587981224e+00
    4.7299301147e+01    3.2733979225e+00
    4.7397838593e+01    3.2876882553e+00
    4.7498901367e+01    3.3023052216e+00
    4.7598457336e+01    3.3166418076e+00
    4.7699333191e+01    3.3311276436e+00
    4.7799705505e+01    3.3454852104e+00
    4.7897842407e+01    3.3594717979e+00
    4.7998027802e+01    3.3737120628e+00
    4.8098144531e+01    3.3878848553e+00
    4.8198638916e+01    3.4020521641e+00
    4.8299163818e+01    3.4161849022e+00
    4.8398986816e+01    3.4301600456e+00
    4.8499298096e+01    3.4441509247e+00
    4.8599334717e+01    3.4580481052e+00
    4.8698936462e+01    3.4718327522e+00
    4.8798774719e+01    3.4856138229e+00
    4.8899101257e+01    3.4994037151e+00
    4.8997840881e+01    3.5129361153e+00
    4.9097698212e+01    3.5265657902e+00
    4.9198036194e+01    3.5402300358e+00
    4.9299808502e+01    3.5540399551e+00
    4.9398326874e+01    3.5673651695e+00
    4.9498130798e+01    3.5808286667e+00
    4.9598773956e+01    3.5943541527e+00
    4.9699417114e+01    3.6078500748e+00
    4.9799125671e+01    3.6211862564e+00
    4.9899223328e+01    3.6345279217e+00
    4.9997806549e+01    3.6476469040e+00
    5.0097949982e+01    3.6703438759e+00
    5.0198936462e+01    3.6934101582e+00
    5.0298686981e+01    3.7161710262e+00
    5.0398563385e+01    3.7389407158e+00
    5.0499801636e+01    3.7620012760e+00
    5.0598510742e+01    3.7844681740e+00
    5.0699558258e+01    3.8074479103e+00
    5.0797702789e+01    3.8297591209e+00
    5.0898761749e+01    3.8527097702e+00
    5.0999065399e+01    3.8754818439e+00
    5.1098777771e+01    3.8981020451e+00
    5.1197803497e+01    3.9205400944e+00
    5.1299434662e+01    3.9435601234e+00
    5.1398513794e+01    3.9659700394e+00
    5.1497718811e+01    3.9883801937e+00
    5.1599037170e+01    4.0112500191e+00
    5.1698665619e+01    4.0336999893e+00
    5.1798736572e+01    4.0562200546e+00
    5.1898002625e+01    4.0785198212e+00
    5.1998893738e+01    4.1011500359e+00
    5.2099208832e+01    4.1236200333e+00
    5.2198104858e+01    4.1457200050e+00
    5.2298912048e+01    4.1682100296e+00
    5.2398891449e+01    4.1904702187e+00
    5.2499500275e+01    4.2128295898e+00
    5.2599430084e+01    4.2350001335e+00
    5.2698680878e+01    4.2569704056e+00
    5.2798683167e+01    4.2790699005e+00
    5.2898925781e+01    4.3011703491e+00
    5.2998336792e+01    4.3230400085e+00
    5.3098972321e+01    4.3451299667e+00
    5.3199756622e+01    4.3671998978e+00
    5.3299705505e+01    4.3890600204e+00
    5.3398967743e+01    4.4107198715e+00
    5.3498081207e+01    4.4323301315e+00
    5.3597942352e+01    4.4540700912e+00
    5.3698688507e+01    4.4759798050e+00
    5.3799427032e+01    4.4978499413e+00
    5.3898696899e+01    4.5193796158e+00
    5.3997852325e+01    4.5408601761e+00
    5.4098926544e+01    4.5627303123e+00
    5.4199199677e+01    4.5844101906e+00
    5.4299488068e+01    4.6060504913e+00
    5.4399444580e+01    4.6276102066e+00
    5.4498874664e+01    4.6490101814e+00
    5.4599510193e+01    4.6706500053e+00
    5.4697708130e+01    4.6917099953e+00
    5.4798896790e+01    4.7133898735e+00
    5.4899265289e+01    4.7348198891e+00
    5.4998733521e+01    4.7560300827e+00
    5.5098186493e+01    4.7771697044e+00
    5.5199020386e+01    4.7985501289e+00
    5.5298252106e+01    4.8195199966e+00
    5.5398723602e+01    4.8406901360e+00
    5.5498664856e+01    4.8616900444e+00
    5.5598934174e+01    4.8826799393e+00
    5.5699199677e+01    4.9035997391e+00
    5.5798797607e+01    4.9243102074e+00
    5.5898223877e+01    4.9449100494e+00
    5.5998676300e+01    4.9656400681e+00
    5.6099124908e+01    4.9862899780e+00
    5.6199584961e+01    5.0068798065e+00
    5.6297779083e+01    5.0269103050e+00
    5.6398277283e+01    5.0473299026e+00
    5.6499656677e+01    5.0678596497e+00
    5.6598178864e+01    5.0877199173e+00
    5.6698722839e+01    5.1079101562e+00
    5.6799278259e+01    5.1280198097e+00
    5.6897842407e+01    5.1476402283e+00
    5.6998920441e+01    5.1676898003e+00
    5.7099506378e+01    5.1875600815e+00
    5.7198726654e+01    5.2070798874e+00
    5.7299350739e+01    5.2267999649e+00
    5.7397956848e+01    5.2460498810e+00
    5.7499572754e+01    5.2658100128e+00
    5.7598880768e+01    5.2850503922e+00
    5.7698261261e+01    5.3042397499e+00
    5.7798713684e+01    5.3235497475e+00
    5.7899173737e+01    5.3427901268e+00
    5.7999431610e+01    5.3619298935e+00
    5.8097606659e+01    5.3805899620e+00
    5.8199443817e+01    5.3998703957e+00
    5.8298030853e+01    5.4184699059e+00
    5.8398441315e+01    5.4373302460e+00
    5.8497840881e+01    5.4559302330e+00
    5.8597908020e+01    5.4745802879e+00
    5.8699375153e+01    5.4934000969e+00
    5.8799114227e+01    5.5118398666e+00
    5.8899513245e+01    5.5303401947e+00
    5.8997829437e+01    5.5483703613e+00
    5.9097881317e+01    5.5666599274e+00
    5.9198299408e+01    5.5849399567e+00
    5.9299518585e+01    5.6033000946e+00
    5.9398120880e+01    5.6211395264e+00
    5.9498588562e+01    5.6392297745e+00
    5.9599578857e+01    5.6573801041e+00
    5.9698368073e+01    5.6750602722e+00
    5.9797969818e+01    5.6928396225e+00
    5.9899490356e+01    5.7109098434e+00
    5.9998550415e+01    5.7284898758e+00
    6.0098800659e+01    5.7573499680e+00
    6.0197673798e+01    5.7859196663e+00
    6.0299591064e+01    5.8153295517e+00
    6.0399276733e+01    5.8440699577e+00
    6.0498588562e+01    5.8726701736e+00
    6.0599491119e+01    5.9017100334e+00
    6.0698345184e+01    5.9301400185e+00
    6.0798645020e+01    5.9589600563e+00
    6.0899639130e+01    5.9879703522e+00
    6.0997974396e+01    6.0161800385e+00
    6.1097682953e+01    6.0447597504e+00
    6.1198387146e+01    6.0736098289e+00
    6.1297801971e+01    6.1020603180e+00
    6.1398715973e+01    6.1308999062e+00
    6.1497650146e+01    6.1591496468e+00
    6.1598873138e+01    6.1879997253e+00
    6.1698242188e+01    6.2162799835e+00
    6.1798027039e+01    6.2446403503e+00
    6.1898254395e+01    6.2730803490e+00
    6.1998786926e+01    6.3015499115e+00
    6.2099498749e+01    6.3300099373e+00
    6.2199020386e+01    6.3580799103e+00
    6.2298179626e+01    6.3859901428e+00
    6.2398490906e+01    6.4141597748e+00
    6.2499271393e+01    6.4424095154e+00
    6.2597793579e+01    6.4699602127e+00
    6.2699069977e+01    6.4982204437e+00
    6.2799461365e+01    6.5261802673e+00
    6.2898593903e+01    6.5537104607e+00
    6.2999542236e+01    6.5816798210e+00
    6.3098785400e+01    6.6091198921e+00
    6.3197685242e+01    6.6363992691e+00
    6.3297672272e+01    6.6639204025e+00
    6.3398708344e+01    6.6916704178e+00
    6.3499557495e+01    6.7193202972e+00
    6.3599258423e+01    6.7466201782e+00
    6.3698112488e+01    6.7736396790e+00
    6.3798973083e+01    6.8011598587e+00
    6.3897838593e+01    6.8281102180e+00
    6.3998752594e+01    6.8555698395e+00
    6.4099327087e+01    6.8828997612e+00
    6.4197654724e+01    6.9095702171e+00
    6.4298240662e+01    6.9368200302e+00
    6.4398399353e+01    6.9639101028e+00
    6.4499412537e+01    6.9911699295e+00
    6.4598121643e+01    7.0177707672e+00
    6.4698661804e+01    7.0448002815e+00
    6.4798332214e+01    7.0715403557e+00
    6.4898757935e+01    7.0984005928e+00
    6.4997772217e+01    7.1248102188e+00
    6.5099143982e+01    7.1517801285e+00
    6.5197891235e+01    7.1779603958e+00
    6.5299224854e+01    7.2047500610e+00
    6.5397705078e+01    7.2306804657e+00
    6.5497535706e+01    7.2568798065e+00
    6.5597808838e+01    7.2831096649e+00
    6.5697944641e+01    7.3091897964e+00
    6.5799468994e+01    7.3355402946e+00
    6.5899177551e+01    7.3613295555e+00
    6.5997619629e+01    7.3866505623e+00
    6.6098075867e+01    7.4123592377e+00
    6.6198547363e+01    7.4379496574e+00
    6.6297752380e+01    7.4632401466e+00
    6.6398277283e+01    7.4886002541e+00
    6.6498817444e+01    7.5139493942e+00
    6.6599380493e+01    7.5391798019e+00
    6.6697944641e+01    7.5637297630e+00
    6.6798538208e+01    7.5887298584e+00
    6.6899154663e+01    7.6136202812e+00
    6.6997772217e+01    7.6379404068e+00
    6.7098403931e+01    7.6626095772e+00
    6.7197799683e+01    7.6868801117e+00
    6.7299232483e+01    7.7114996910e+00
    6.7397903442e+01    7.7353997231e+00
    6.7499450684e+01    7.7598996162e+00
    6.7598495483e+01    7.7836399078e+00
    6.7698562622e+01    7.8076000214e+00
    6.7799079895e+01    7.8315801620e+00
    6.7899513245e+01    7.8553800583e+00
    6.7997550964e+01    7.8785095215e+00
    6.8097465515e+01    7.9020099640e+00
    6.8197738647e+01    7.9255399704e+00
    6.8298423767e+01    7.9489998817e+00
    6.8399162292e+01    7.9724402428e+00
    6.8497413635e+01    7.9951400757e+00
    6.8597419739e+01    8.0181102753e+00
    6.8698593140e+01    8.0413599014e+00
    6.8797821045e+01    8.0639705658e+00
    6.8898292542e+01    8.0867500305e+00
    6.8998565674e+01    8.1094703674e+00
    6.9098815918e+01    8.1319999695e+00
    6.9199317932e+01    8.1546001434e+00
    6.9297958374e+01    8.1766490936e+00
    6.9398658752e+01    8.1990299225e+00
    6.9497528076e+01    8.2209701538e+00
    6.9598785400e+01    8.2432794571e+00
    6.9699012756e+01    8.2654094696e+00
    6.9798469543e+01    8.2872104645e+00
    6.9897918701e+01    8.3089599609e+00
    6.9998741150e+01    8.3309698105e+00
    7.0098770142e+01    8.3636798859e+00
    7.0197593689e+01    8.3960800171e+00
    7.0299331665e+01    8.4294605255e+00
    7.0398887634e+01    8.4620294571e+00
    7.0498146057e+01    8.4945096970e+00
    7.0598922729e+01    8.5273704529e+00
    7.0697723389e+01    8.5595798492e+00
    7.0797935486e+01    8.5922899246e+00
    7.0898986816e+01    8.6252002716e+00
    7.0997436523e+01    8.6572093964e+00
    7.1099281311e+01    8.6903095245e+00
    7.1197463989e+01    8.7222003937e+00
    7.1298927307e+01    8.7551002502e+00
    7.1398429871e+01    8.7873497009e+00
    7.1497489929e+01    8.8194503784e+00
    7.1598602295e+01    8.8520793915e+00
    7.1697875977e+01    8.8841295242e+00
    7.1797737122e+01    8.9163007736e+00
    7.1898521423e+01    8.9486198425e+00
    7.1998237610e+01    8.9805898666e+00
    7.2098480225e+01    9.0126895905e+00
    7.2197616577e+01    9.0443401337e+00
    7.2298660278e+01    9.0765190125e+00
    7.2398811340e+01    9.1083002090e+00
    7.2499229431e+01    9.1401500702e+00
    7.2599159241e+01    9.1717300415e+00
    7.2698158264e+01    9.2029199600e+00
    7.2798927307e+01    9.2345504761e+00
    7.2898223877e+01    9.2657108307e+00
    7.2999290466e+01    9.2973098755e+00
    7.3098312378e+01    9.3282499313e+00
    7.3199340820e+01    9.3595905304e+00
    7.3297927856e+01    9.3901691437e+00
    7.3398887634e+01    9.4214706421e+00
    7.3499389648e+01    9.4525108337e+00
    7.3599090576e+01    9.4832401276e+00
    7.3698051453e+01    9.5136795044e+00
    7.3799026489e+01    9.5447301865e+00
    7.3897460938e+01    9.5748596191e+00
    7.3998039246e+01    9.6055698395e+00
    7.4099250793e+01    9.6364803314e+00
    7.4197731018e+01    9.6665296555e+00
    7.4298301697e+01    9.6970596313e+00
    7.4398780823e+01    9.7275505066e+00
    7.4497955322e+01    9.7575597763e+00
    7.4598747253e+01    9.7880306244e+00
    7.4698951721e+01    9.8181600571e+00
    7.4799346924e+01    9.8483505249e+00
    7.4897666931e+01    9.8777303696e+00
    7.4997718811e+01    9.9076099396e+00
    7.5097938538e+01    9.9374504089e+00
    7.5198051453e+01    9.9671001434e+00
    7.5297737122e+01    9.9965400696e+00
    7.5398223877e+01    1.0026070595e+01
    7.5498619080e+01    1.0055400848e+01
    7.5598892212e+01    1.0084630013e+01
    7.5698959351e+01    1.0113670349e+01
    7.5798217773e+01    1.0142370224e+01
    7.5898078918e+01    1.0170989990e+01
    7.5998512268e+01    1.0199739456e+01
    7.6098945618e+01    1.0228340149e+01
    7.6198135376e+01    1.0256399155e+01
    7.6299026489e+01    1.0284810066e+01
    7.6397537231e+01    1.0312469482e+01
    7.6498077393e+01    1.0340479851e+01
    7.6598640442e+01    1.0368360519e+01
    7.6699226379e+01    1.0396180153e+01
    7.6797813416e+01    1.0423269272e+01
    7.6898445129e+01    1.0450809479e+01
    7.6999084473e+01    1.0478210449e+01
    7.7097724915e+01    1.0504889488e+01
    7.7197547913e+01    1.0531740189e+01
    7.7297508240e+01    1.0558629990e+01
    7.7398239136e+01    1.0585490227e+01
    7.7499069214e+01    1.0612310410e+01
    7.7597511292e+01    1.0638330460e+01
    7.7697578430e+01    1.0664709091e+01
    7.7798149109e+01    1.0691029549e+01
    7.7898727417e+01    1.0717329979e+01
    7.7999000549e+01    1.0743389130e+01
    7.8099029541e+01    1.0769189835e+01
    7.8198097229e+01    1.0794719696e+01
    7.8298843384e+01    1.0820480347e+01
    7.8397895813e+01    1.0845770836e+01
    7.8498397827e+01    1.0871240616e+01
    7.8598243713e+01    1.0896459579e+01
    7.8699134827e+01    1.0921759605e+01
    7.8798233032e+01    1.0946430206e+01
    7.8898757935e+01    1.0971489906e+01
    7.8999099731e+01    1.0996271133e+01
    7.9098800659e+01    1.1020820618e+01
    7.9197227478e+01    1.1044909477e+01
    7.9298713684e+01    1.1069629669e+01
    7.9397483826e+01    1.1093608856e+01
    7.9498268127e+01    1.1118009567e+01
    7.9597702026e+01    1.1141910553e+01
    7.9698463440e+01    1.1166131020e+01
    7.9798706055e+01    1.1190109253e+01
    7.9898254395e+01    1.1213809967e+01
    7.9999183655e+01    1.1237740517e+01
    8.0099342346e+01    1.1273130417e+01
    8.0198188782e+01    1.1308129311e+01
    8.0297851562e+01    1.1343238831e+01
    8.0397384644e+01    1.1378339767e+01
    8.0498878479e+01    1.1414130211e+01
    8.0597755432e+01    1.1448940277e+01
    8.0698669434e+01    1.1484419823e+01
    8.0798789978e+01    1.1519498825e+01
    8.0897834778e+01    1.1554269791e+01
    8.0998413086e+01    1.1589550018e+01
    8.1098167419e+01    1.1624448776e+01
    8.1198059082e+01    1.1659460068e+01
    8.1297584534e+01    1.1694139481e+01
    8.1399230957e+01    1.1729648590e+01
    8.1498573303e+01    1.1764289856e+01
    8.1597755432e+01    1.1798810005e+01
    8.1699058533e+01    1.1833960533e+01
    8.1798805237e+01    1.1868490219e+01
    8.1897491455e+01    1.1902669907e+01
    8.1998199463e+01    1.1937370300e+01
    8.2097534180e+01    1.1971600533e+01
    8.2198646545e+01    1.2006309509e+01
    8.2297843933e+01    1.2040309906e+01
    8.2397819519e+01    1.2074468613e+01
    8.2497947693e+01    1.2108500481e+01
    8.2597587585e+01    1.2142389297e+01
    8.2698677063e+01    1.2176629066e+01
    8.2798019409e+01    1.2210209846e+01
    8.2899147034e+01    1.2244239807e+01
    8.2998252869e+01    1.2277480125e+01
    8.3097335815e+01    1.2310630798e+01
    8.3198417664e+01    1.2344369888e+01
    8.3297454834e+01    1.2377340317e+01
    8.3398284912e+01    1.2410769463e+01
    8.3498504639e+01    1.2444009781e+01
    8.3598274231e+01    1.2476910591e+01
    8.3697303772e+01    1.2509559631e+01
    8.3798347473e+01    1.2542810440e+01
    8.3898452759e+01    1.2575570107e+01
    8.3998771667e+01    1.2608400345e+01
    8.4097610474e+01    1.2640708923e+01
    8.4198112488e+01    1.2673429489e+01
    8.4298561096e+01    1.2706081390e+01
    8.4398628235e+01    1.2738479614e+01
    8.4497459412e+01    1.2770479202e+01
    8.4598266602e+01    1.2802950859e+01
    8.4698417664e+01    1.2835128784e+01
    8.4797554016e+01    1.2866840363e+01
    8.4898002625e+01    1.2898900986e+01
    8.4997154236e+01    1.2930459976e+01
    8.5098831177e+01    1.2962659836e+01
    8.5197196960e+01    1.2993609428e+01
    8.5298828125e+01    1.3025539398e+01
    8.5397277832e+01    1.3056279182e+01
    8.5498176575e+01    1.3087550163e+01
    8.5598411560e+01    1.3118579865e+01
    8.5698425293e+01    1.3149319649e+01
    8.5797668457e+01    1.3179649353e+01
    8.5897262573e+01    1.3209899902e+01
    8.5997642517e+01    1.3240320206e+01
    8.6098022461e+01    1.3270460129e+01
    8.6199165344e+01    1.3300769806e+01
    8.6298286438e+01    1.3330210686e+01
    8.6398757935e+01    1.3359909058e+01
    8.6497253418e+01    1.3388839722e+01
    8.6597785950e+01    1.3418289185e+01
    8.6698348999e+01    1.3447470665e+01
    8.6798927307e+01    1.3476591110e+01
    8.6897521973e+01    1.3504940033e+01
    8.6998008728e+01    1.3533670425e+01
    8.7097480774e+01    1.3561908722e+01
    8.7199012756e+01    1.3590660095e+01
    8.7298263550e+01    1.3618590355e+01
    8.7399002075e+01    1.3646839142e+01
    8.7498977661e+01    1.3674730301e+01
    8.7597389221e+01    1.3702050209e+01
    8.7698982239e+01    1.3730069160e+01
    8.7797431946e+01    1.3757109642e+01
    8.7898033142e+01    1.3784609795e+01
    8.7998367310e+01    1.3811879158e+01
    8.8098220825e+01    1.3838879585e+01
    8.8198577881e+01    1.3865859032e+01
    8.8297332764e+01    1.3892289162e+01
    8.8398300171e+01    1.3919149399e+01
    8.8498825073e+01    1.3945829391e+01
    8.8598434448e+01    1.3971999168e+01
    8.8699089050e+01    1.3998339653e+01
    8.8797904968e+01    1.4024130821e+01
    8.8898475647e+01    1.4050109863e+01
    8.8999099731e+01    1.4076029778e+01
    8.9097602844e+01    1.4101341248e+01
    8.9198226929e+01    1.4127000809e+01
    8.9298820496e+01    1.4152541161e+01
    8.9397926331e+01    1.4177529335e+01
    8.9498771667e+01    1.4202830315e+01
    8.9597633362e+01    1.4227600098e+01
    8.9697586060e+01    1.4252529144e+01
    8.9798973083e+01    1.4277609825e+01
    8.9898147583e+01    1.4302159309e+01
    8.9999160767e+01    1.4327109337e+01
    9.0097259521e+01    1.4365340233e+01
    9.0198120117e+01    1.4404708862e+01
    9.0297683716e+01    1.4443540573e+01
    9.0399131775e+01    1.4483059883e+01
    9.0498565674e+01    1.4521640778e+01
    9.0597503662e+01    1.4560091019e+01
    9.0698234558e+01    1.4599289894e+01
    9.0798393250e+01    1.4638079643e+01
    9.0897216797e+01    1.4676381111e+01
    9.0997528076e+01    1.4715249062e+01
    9.1097534180e+01    1.4753920555e+01
    9.1199119568e+01    1.4793220520e+01
    9.1298919678e+01    1.4831789970e+01
    9.1398345947e+01    1.4870170593e+01
    9.1497810364e+01    1.4908469200e+01
    9.1597274780e+01    1.4946729660e+01
    9.1698348999e+01    1.4985569000e+01
    9.1797943115e+01    1.5023730278e+01
    9.1898361206e+01    1.5062190056e+01
    9.1998710632e+01    1.5100490570e+01
    9.2098670959e+01    1.5138569832e+01
    9.2197799683e+01    1.5176180840e+01
    9.2297500610e+01    1.5213970184e+01
    9.2397270203e+01    1.5251699448e+01
    9.2497146606e+01    1.5289299965e+01
    9.2598716736e+01    1.5327499390e+01
    9.2697563171e+01    1.5364600182e+01
    9.2799087524e+01    1.5402600288e+01
    9.2898223877e+01    1.5439399719e+01
    9.2997360229e+01    1.5476299286e+01
    9.3098487854e+01    1.5513700485e+01
    9.3197570801e+01    1.5550299644e+01
    9.3298645020e+01    1.5587499619e+01
    9.3397590637e+01    1.5623799324e+01
    9.3497581482e+01    1.5660400391e+01
    9.3597373962e+01    1.5696900368e+01
    9.3698448181e+01    1.5733699799e+01
    9.3797485352e+01    1.5769699097e+01
    9.3898063660e+01    1.5806200027e+01
    9.3998168945e+01    1.5842499733e+01
    9.4098831177e+01    1.5878800392e+01
    9.4197235107e+01    1.5914299965e+01
    9.4297615051e+01    1.5950300217e+01
    9.4397552490e+01    1.5986099243e+01
    9.4498397827e+01    1.6022201538e+01
    9.4597183228e+01    1.6057399750e+01
    9.4697586060e+01    1.6092998505e+01
    9.4798522949e+01    1.6128700256e+01
    9.4898948669e+01    1.6164100647e+01
    9.4998558044e+01    1.6198999405e+01
    9.5098770142e+01    1.6234001160e+01
    9.5197601318e+01    1.6268398285e+01
    9.5297447205e+01    1.6302898407e+01
    9.5397842407e+01    1.6337501526e+01
    9.5498519897e+01    1.6372001648e+01
    9.5598686218e+01    1.6405998230e+01
    9.5698699951e+01    1.6439899445e+01
    9.5797882080e+01    1.6473299026e+01
    9.5897994995e+01    1.6506698608e+01
    9.5998298645e+01    1.6540100098e+01
    9.6099105835e+01    1.6573299408e+01
    9.6198791504e+01    1.6606101990e+01
    9.6297157288e+01    1.6638198853e+01
    9.6397583008e+01    1.6670700073e+01
    9.6498054504e+01    1.6703100204e+01
    9.6598564148e+01    1.6735399246e+01
    9.6697082520e+01    1.6766700745e+01
    9.6797630310e+01    1.6798599243e+01
    9.6898208618e+01    1.6830299377e+01
    9.6997657776e+01    1.6861400604e+01
    9.7097152710e+01    1.6892398834e+01
    9.7198387146e+01    1.6923698425e+01
    9.7297431946e+01    1.6954299927e+01
    9.7398178101e+01    1.6985099792e+01
    9.7499053955e+01    1.7016000748e+01
    9.7597404480e+01    1.7045801163e+01
    9.7698837280e+01    1.7076499939e+01
    9.7797302246e+01    1.7105998993e+01
    9.7897918701e+01    1.7136100769e+01
    9.7998336792e+01    1.7166000366e+01
    9.8097831726e+01    1.7195400238e+01
    9.8198570251e+01    1.7225000381e+01
    9.8297325134e+01    1.7254001617e+01
    9.8398536682e+01    1.7283500671e+01
    9.8499061584e+01    1.7312500000e+01
    9.8598472595e+01    1.7341197968e+01
    9.8698883057e+01    1.7370000839e+01
    9.8797882080e+01    1.7398101807e+01
    9.8898460388e+01    1.7426599503e+01
    9.8997726440e+01    1.7454601288e+01
    9.9098762512e+01    1.7482898712e+01
    9.9197280884e+01    1.7510398865e+01
    9.9297790527e+01    1.7538299561e+01
    9.9397377014e+01    1.7565799713e+01
    9.9498268127e+01    1.7593500137e+01
    9.9597183228e+01    1.7620599747e+01
    9.9697731018e+01    1.7648000717e+01
    9.9797698975e+01    1.7675199509e+01
    9.9898788452e+01    1.7702499390e+01
    9.9997863770e+01    1.7729301453e+01
    1.0009793854e+02    1.7773399353e+01
    1.0019891357e+02    1.7818300247e+01
    1.0029840088e+02    1.7862400055e+01
    1.0039762878e+02    1.7906398773e+01
    1.0049706268e+02    1.7950500488e+01
    1.0059812927e+02    1.7995199203e+01
    1.0069702911e+02    1.8038898468e+01
    1.0079696655e+02    1.8083202362e+01
    1.0089778900e+02    1.8127700806e+01
    1.0099755859e+02    1.8171800613e+01
    1.0109745789e+02    1.8215801239e+01
    1.0119873047e+02    1.8260599136e+01
    1.0129843140e+02    1.8304500580e+01
    1.0139746857e+02    1.8348102570e+01
    1.0149851227e+02    1.8392498016e+01
    1.0159795380e+02    1.8436201096e+01
    1.0169882965e+02    1.8480400085e+01
    1.0179828644e+02    1.8523998260e+01
    1.0189882660e+02    1.8567800522e+01
    1.0199703217e+02    1.8610700607e+01
    1.0209732056e+02    1.8654300690e+01
    1.0219748688e+02    1.8697799683e+01
    1.0229852295e+02    1.8741498947e+01
    1.0239785767e+02    1.8784400940e+01
    1.0249742126e+02    1.8827299118e+01
    1.0259876251e+02    1.8870901108e+01
    1.0269750214e+02    1.8913200378e+01
    1.0279778290e+02    1.8956100464e+01
    1.0289897156e+02    1.8999097824e+01
    1.0299813080e+02    1.9041198730e+01
    1.0309726715e+02    1.9083099365e+01
    1.0319838715e+02    1.9125801086e+01
    1.0329744720e+02    1.9167602539e+01
    1.0339803314e+02    1.9209699631e+01
    1.0349788666e+02    1.9251499176e+01
    1.0359757996e+02    1.9293197632e+01
    1.0369864655e+02    1.9335300446e+01
    1.0379770660e+02    1.9376502991e+01
    1.0389817047e+02    1.9418199539e+01
    1.0399803925e+02    1.9459598541e+01
    1.0409745789e+02    1.9500701904e+01
    1.0419802094e+02    1.9542098999e+01
    1.0429865265e+02    1.9583599091e+01
    1.0439865112e+02    1.9624601364e+01
    1.0449745941e+02    1.9665000916e+01
    1.0459824371e+02    1.9706100464e+01
    1.0469860840e+02    1.9746799469e+01
    1.0479772186e+02    1.9787000656e+01
    1.0489810944e+02    1.9827400208e+01
    1.0499841309e+02    1.9867698669e+01
    1.0509858704e+02    1.9907699585e+01
    1.0519731903e+02    1.9946899414e+01
    1.0529698944e+02    1.9986299515e+01
    1.0539730835e+02    2.0025798798e+01
    1.0549777222e+02    2.0065101624e+01
    1.0559786224e+02    2.0103998184e+01
    1.0569785309e+02    2.0142700195e+01
    1.0579740906e+02    2.0180902481e+01
    1.0589817047e+02    2.0219297409e+01
    1.0599842072e+02    2.0257301331e+01
    1.0609754181e+02    2.0294698715e+01
    1.0619882202e+02    2.0332597733e+01
    1.0629714966e+02    2.0369098663e+01
    1.0639755249e+02    2.0406299591e+01
    1.0649800873e+02    2.0443098068e+01
    1.0659851074e+02    2.0479801178e+01
    1.0669702911e+02    2.0515598297e+01
    1.0679757690e+02    2.0551898956e+01
    1.0689733124e+02    2.0587598801e+01
    1.0699730682e+02    2.0623302460e+01
    1.0709716034e+02    2.0658700943e+01
    1.0719835663e+02    2.0694301605e+01
    1.0729762268e+02    2.0729101181e+01
    1.0739839935e+02    2.0764200211e+01
    1.0749803162e+02    2.0798801422e+01
    1.0759813690e+02    2.0833398819e+01
    1.0769702911e+02    2.0867401123e+01
    1.0779769135e+02    2.0901798248e+01
    1.0789836121e+02    2.0936098099e+01
    1.0799880219e+02    2.0970100403e+01
    1.0809809113e+02    2.1003499985e+01
    1.0819786072e+02    2.1037000656e+01
    1.0829866791e+02    2.1070600510e+01
    1.0839803314e+02    2.1103498459e+01
    1.0849858093e+02    2.1136800766e+01
    1.0859761047e+02    2.1169301987e+01
    1.0869766235e+02    2.1201900482e+01
    1.0879873657e+02    2.1234701157e+01
    1.0889721680e+02    2.1266599655e+01
    1.0899880219e+02    2.1299200058e+01
    1.0909736633e+02    2.1330801010e+01
    1.0919795990e+02    2.1362798691e+01
    1.0929850006e+02    2.1394599915e+01
    1.0939861298e+02    2.1426200867e+01
    1.0949755859e+02    2.1457201004e+01
    1.0959857178e+02    2.1488801956e+01
    1.0969856262e+02    2.1520099640e+01
    1.0979805756e+02    2.1550901413e+01
    1.0989807892e+02    2.1581899643e+01
    1.0999726105e+02    2.1612499237e+01
    1.1009728241e+02    2.1663999557e+01
    1.1019808197e+02    2.1716602325e+01
    1.1029727173e+02    2.1768199921e+01
    1.1039814758e+02    2.1820701599e+01
    1.1049738312e+02    2.1872301102e+01
    1.1059838867e+02    2.1924800873e+01
    1.1069702911e+02    2.1976100922e+01
    1.1079875183e+02    2.2028799057e+01
    1.1089732361e+02    2.2079999924e+01
    1.1099829865e+02    2.2132400513e+01
    1.1109825134e+02    2.2184299469e+01
    1.1119698334e+02    2.2235399246e+01
    1.1129715729e+02    2.2287399292e+01
    1.1139816284e+02    2.2339698792e+01
    1.1149851227e+02    2.2391597748e+01
    1.1159812164e+02    2.2443000793e+01
    1.1169847870e+02    2.2494699478e+01
    1.1179792023e+02    2.2545999527e+01
    1.1189813232e+02    2.2597400665e+01
    1.1199812317e+02    2.2648698807e+01
    1.1209838104e+02    2.2699998856e+01
    1.1219821167e+02    2.2751098633e+01
    1.1229782867e+02    2.2801702499e+01
    1.1239859009e+02    2.2852901459e+01
    1.1249768066e+02    2.2903200150e+01
    1.1259861755e+02    2.2954200745e+01
    1.1269741821e+02    2.3003999710e+01
    1.1279798889e+02    2.3054401398e+01
    1.1289723206e+02    2.3104198456e+01
    1.1299848938e+02    2.3154701233e+01
    1.1309768677e+02    2.3204099655e+01
    1.1319683838e+02    2.3253299713e+01
    1.1329797363e+02    2.3303298950e+01
    1.1339833832e+02    2.3352901459e+01
    1.1349767303e+02    2.3401699066e+01
    1.1359710693e+02    2.3450601578e+01
    1.1369822693e+02    2.3500200272e+01
    1.1379731750e+02    2.3548601151e+01
    1.1389781952e+02    2.3597698212e+01
    1.1399732208e+02    2.3646099091e+01
    1.1409726715e+02    2.3694700241e+01
    1.1419766235e+02    2.3743299484e+01
    1.1429837036e+02    2.3791999817e+01
    1.1439779663e+02    2.3839899063e+01
    1.1449864197e+02    2.3888401031e+01
    1.1459739685e+02    2.3935800552e+01
    1.1469763184e+02    2.3983600616e+01
    1.1479746246e+02    2.4031101227e+01
    1.1489782715e+02    2.4078699112e+01
    1.1499810028e+02    2.4125900269e+01
    1.1509819794e+02    2.4172801971e+01
    1.1519879150e+02    2.4219799042e+01
    1.1529727936e+02    2.4265600204e+01
    1.1539756775e+02    2.4311800003e+01
    1.1549771118e+02    2.4357799530e+01
    1.1559777832e+02    2.4403398514e+01
    1.1569779968e+02    2.4448699951e+01
    1.1579750061e+02    2.4493701935e+01
    1.1589701080e+02    2.4538101196e+01
    1.1599759674e+02    2.4582798004e+01
    1.1609822083e+02    2.4627199173e+01
    1.1619699860e+02    2.4670501709e+01
    1.1629736328e+02    2.4714200974e+01
    1.1639779663e+02    2.4757598877e+01
    1.1649830627e+02    2.4800800323e+01
    1.1659686279e+02    2.4842802048e+01
    1.1669745636e+02    2.4885601044e+01
    1.1679810333e+02    2.4928001404e+01
    1.1689797211e+02    2.4969800949e+01
    1.1699820709e+02    2.5011600494e+01
    1.1709780121e+02    2.5052801132e+01
    1.1719853210e+02    2.5094299316e+01
    1.1729685974e+02    2.5134599686e+01
    1.1739775848e+02    2.5175699234e+01
    1.1749775696e+02    2.5216197968e+01
    1.1759709930e+02    2.5256299973e+01
    1.1769738007e+02    2.5296501160e+01
    1.1779820251e+02    2.5336797714e+01
    1.1789688110e+02    2.5376001358e+01
    1.1799742889e+02    2.5415699005e+01
    1.1809696198e+02    2.5454898834e+01
    1.1819686127e+02    2.5494102478e+01
    1.1829779816e+02    2.5533399582e+01
    1.1839765167e+02    2.5571998596e+01
    1.1849830627e+02    2.5610898972e+01
    1.1859697723e+02    2.5648698807e+01
    1.1869850159e+02    2.5687398911e+01
    1.1879739380e+02    2.5724899292e+01
    1.1889813232e+02    2.5762998581e+01
    1.1899855804e+02    2.5800701141e+01
    1.1909863281e+02    2.5838098526e+01
    1.1919841003e+02    2.5875200272e+01
    1.1929839325e+02    2.5912298203e+01
    1.1939674377e+02    2.5948600769e+01
    1.1949784088e+02    2.5985700607e+01
    1.1959696960e+02    2.6022001266e+01
    1.1969860840e+02    2.6058998108e+01
    1.1979730988e+02    2.6094898224e+01
    1.1989704132e+02    2.6130998611e+01
    1.1999839783e+02    2.6167699814e+01
    1.2009832764e+02    2.6226900101e+01
    1.2019702911e+02    2.6285600662e+01
    1.2029798126e+02    2.6345697403e+01
    1.2039840698e+02    2.6405401230e+01
    1.2049746704e+02    2.6464300156e+01
    1.2059839630e+02    2.6524301529e+01
    1.2069819641e+02    2.6583600998e+01
    1.2079762268e+02    2.6642601013e+01
    1.2089765930e+02    2.6702001572e+01
    1.2099774170e+02    2.6761400223e+01
    1.2109789276e+02    2.6820798874e+01
    1.2119673920e+02    2.6879501343e+01
    1.2129785156e+02    2.6939300537e+01
    1.2139811707e+02    2.6998701096e+01
    1.2149752808e+02    2.7057399750e+01
    1.2159797668e+02    2.7116699219e+01
    1.2169786072e+02    2.7175601959e+01
    1.2179691315e+02    2.7233900070e+01
    1.2189707184e+02    2.7292798996e+01
    1.2199713898e+02    2.7351299286e+01
    1.2209689331e+02    2.7409698486e+01
    1.2219714355e+02    2.7468000412e+01
    1.2229724121e+02    2.7526199341e+01
    1.2239733887e+02    2.7584098816e+01
    1.2249781036e+02    2.7642200470e+01
    1.2259813690e+02    2.7699901581e+01
    1.2269654846e+02    2.7756500244e+01
    1.2279759979e+02    2.7814201355e+01
    1.2289697266e+02    2.7870800018e+01
    1.2299835205e+02    2.7928400040e+01
    1.2309765625e+02    2.7984601974e+01
    1.2319690704e+02    2.8040498734e+01
    1.2329840088e+02    2.8097600937e+01
    1.2339856720e+02    2.8153799057e+01
    1.2349729919e+02    2.8208799362e+01
    1.2359677124e+02    2.8264301300e+01
    1.2369796753e+02    2.8320499420e+01
    1.2379714966e+02    2.8375398636e+01
    1.2389746094e+02    2.8430898666e+01
    1.2399844360e+02    2.8486499786e+01
    1.2409735107e+02    2.8541000366e+01
    1.2419724274e+02    2.8595699310e+01
    1.2429802704e+02    2.8650800705e+01
    1.2439720154e+02    2.8704799652e+01
    1.2449810028e+02    2.8759502411e+01
    1.2459691620e+02    2.8813001633e+01
    1.2469676971e+02    2.8866798401e+01
    1.2479756165e+02    2.8920801163e+01
    1.2489794922e+02    2.8974401474e+01
    1.2499817657e+02    2.9027599335e+01
    1.2509825897e+02    2.9080497742e+01
    1.2519703674e+02    2.9132400513e+01
    1.2529727936e+02    2.9184698105e+01
    1.2539758301e+02    2.9236700058e+01
    1.2549745941e+02    2.9288101196e+01
    1.2559719849e+02    2.9339101791e+01
    1.2569714355e+02    2.9389898300e+01
    1.2579704285e+02    2.9440200806e+01
    1.2589768982e+02    2.9490600586e+01
    1.2599817657e+02    2.9540599823e+01
    1.2609848785e+02    2.9590000153e+01
    1.2619735718e+02    2.9638502121e+01
    1.2629781342e+02    2.9687299728e+01
    1.2639836121e+02    2.9735698700e+01
    1.2649697113e+02    2.9783000946e+01
    1.2659767151e+02    2.9830799103e+01
    1.2669843292e+02    2.9878498077e+01
    1.2679721832e+02    2.9924697876e+01
    1.2689694977e+02    2.9971202850e+01
    1.2699684143e+02    3.0017498016e+01
    1.2709783173e+02    3.0063800812e+01
    1.2719792938e+02    3.0109600067e+01
    1.2729827118e+02    3.0155200958e+01
    1.2739736938e+02    3.0199897766e+01
    1.2749735260e+02    3.0244899750e+01
    1.2759771729e+02    3.0289699554e+01
    1.2769700623e+02    3.0333801270e+01
    1.2779711914e+02    3.0378097534e+01
    1.2789821625e+02    3.0422496796e+01
    1.2799664307e+02    3.0465499878e+01
    1.2809844971e+02    3.0509799957e+01
    1.2819712830e+02    3.0552497864e+01
    1.2829666138e+02    3.0595298767e+01
    1.2839736938e+02    3.0638401031e+01
    1.2849801636e+02    3.0681198120e+01
    1.2859829712e+02    3.0723499298e+01
    1.2869683838e+02    3.0765098572e+01
    1.2879690552e+02    3.0806903839e+01
    1.2889787292e+02    3.0848903656e+01
    1.2899674988e+02    3.0889797211e+01
    1.2909796143e+02    3.0931503296e+01
    1.2919752502e+02    3.0972194672e+01
    1.2929760742e+02    3.1013000488e+01
    1.2939810181e+02    3.1053798676e+01
    1.2949838257e+02    3.1094299316e+01
    1.2959773254e+02    3.1134204865e+01
    1.2969723511e+02    3.1174098969e+01
    1.2979699707e+02    3.1213798523e+01
    1.2989854431e+02    3.1254299164e+01
    1.2999810791e+02    3.1293800354e+01
    1.3009831238e+02    3.1358600616e+01
    1.3019868469e+02    3.1423995972e+01
    1.3029705811e+02    3.1487895966e+01
    1.3039677429e+02    3.1552803040e+01
    1.3049731445e+02    3.1618103027e+01
    1.3059762573e+02    3.1683200836e+01
    1.3069827271e+02    3.1748600006e+01
    1.3079708862e+02    3.1812698364e+01
    1.3089677429e+02    3.1877296448e+01
    1.3099824524e+02    3.1943099976e+01
    1.3109829712e+02    3.2007999420e+01
    1.3119869995e+02    3.2073001862e+01
    1.3129757690e+02    3.2136901855e+01
    1.3139700317e+02    3.2201194763e+01
    1.3149786377e+02    3.2266101837e+01
    1.3159840393e+02    3.2330902100e+01
    1.3169784546e+02    3.2394702911e+01
    1.3179847717e+02    3.2459300995e+01
    1.3189700317e+02    3.2522197723e+01
    1.3199856567e+02    3.2586902618e+01
    1.3209805298e+02    3.2650100708e+01
    1.3219746399e+02    3.2713001251e+01
    1.3229762268e+02    3.2776199341e+01
    1.3239694214e+02    3.2838603973e+01
    1.3249856567e+02    3.2902194977e+01
    1.3259834290e+02    3.2964302063e+01
    1.3269854736e+02    3.3026596069e+01
    1.3279725647e+02    3.3087501526e+01
    1.3289877319e+02    3.3150001526e+01
    1.3299826050e+02    3.3210903168e+01
    1.3309779358e+02    3.3271602631e+01
    1.3319717407e+02    3.3331897736e+01
    1.3329866028e+02    3.3393199921e+01
    1.3339825439e+02    3.3453197479e+01
    1.3349783325e+02    3.3512897491e+01
    1.3359718323e+02    3.3572196960e+01
    1.3369851685e+02    3.3632495880e+01
    1.3379782104e+02    3.3691398621e+01
    1.3389804077e+02    3.3750602722e+01
    1.3399824524e+02    3.3809600830e+01
    1.3409881592e+02    3.3868602753e+01
    1.3419746399e+02    3.3926197052e+01
    1.3429811096e+02    3.3984699249e+01
    1.3439793396e+02    3.4042499542e+01
    1.3449896240e+02    3.4100902557e+01
    1.3459788513e+02    3.4157600403e+01
    1.3469799805e+02    3.4214801788e+01
    1.3479742432e+02    3.4271202087e+01
    1.3489770508e+02    3.4327796936e+01
    1.3499740601e+02    3.4383705139e+01
    1.3509823608e+02    3.4439899445e+01
    1.3519775391e+02    3.4495098114e+01
    1.3529856873e+02    3.4550395966e+01
    1.3539895630e+02    3.4605098724e+01
    1.3549867249e+02    3.4659004211e+01
    1.3559777832e+02    3.4712100983e+01
    1.3569897461e+02    3.4766002655e+01
    1.3579826355e+02    3.4818401337e+01
    1.3589898682e+02    3.4871002197e+01
    1.3599830627e+02    3.4922397614e+01
    1.3609875488e+02    3.4973999023e+01
    1.3619726562e+02    3.5024196625e+01
    1.3629786682e+02    3.5074897766e+01
    1.3639859009e+02    3.5125301361e+01
    1.3649739075e+02    3.5174404144e+01
    1.3659829712e+02    3.5223999023e+01
    1.3669726562e+02    3.5272300720e+01
    1.3679832458e+02    3.5321201324e+01
    1.3689845276e+02    3.5369300842e+01
    1.3699890137e+02    3.5417102814e+01
    1.3709817505e+02    3.5464096069e+01
    1.3719775391e+02    3.5510902405e+01
    1.3729780579e+02    3.5557502747e+01
    1.3739720154e+02    3.5603595734e+01
    1.3749880981e+02    3.5650398254e+01
    1.3759823608e+02    3.5695899963e+01
    1.3769827271e+02    3.5741397858e+01
    1.3779776001e+02    3.5786296844e+01
    1.3789799500e+02    3.5831302643e+01
    1.3799838257e+02    3.5876098633e+01
    1.3809913635e+02    3.5920795441e+01
    1.3819815063e+02    3.5964401245e+01
    1.3829905701e+02    3.6008598328e+01
    1.3839787292e+02    3.6051601410e+01
    1.3849790955e+02    3.6094799042e+01
    1.3859826660e+02    3.6137905121e+01
    1.3869767761e+02    3.6180397034e+01
    1.3879809570e+02    3.6222900391e+01
    1.3889802551e+02    3.6264999390e+01
    1.3899900818e+02    3.6307205200e+01
    1.3909851074e+02    3.6348602295e+01
    1.3919836426e+02    3.6389896393e+01
    1.3929882812e+02    3.6431198120e+01
    1.3939828491e+02    3.6471698761e+01
    1.3949819946e+02    3.6512302399e+01
    1.3959788513e+02    3.6552600861e+01
    1.3969866943e+02    3.6593097687e+01
    1.3979733276e+02    3.6632701874e+01
    1.3989802551e+02    3.6672897339e+01
    1.3999740601e+02    3.6712398529e+01
    1.4009910583e+02    3.6777297974e+01
    1.4019897461e+02    3.6841701508e+01
    1.4029873657e+02    3.6905799866e+01
    1.4039758301e+02    3.6969299316e+01
    1.4049749756e+02    3.7033401489e+01
    1.4059872437e+02    3.7098400116e+01
    1.4069830322e+02    3.7162204742e+01
    1.4079841614e+02    3.7226295471e+01
    1.4089767456e+02    3.7289802551e+01
    1.4099851990e+02    3.7354202271e+01
    1.4109838867e+02    3.7417896271e+01
    1.4119772339e+02    3.7481197357e+01
    1.4129794312e+02    3.7545001984e+01
    1.4139913940e+02    3.7609203339e+01
    1.4149925232e+02    3.7672603607e+01
    1.4159744263e+02    3.7734695435e+01
    1.4169802856e+02    3.7797996521e+01
    1.4179830933e+02    3.7861003876e+01
    1.4189877319e+02    3.7923797607e+01
    1.4199754333e+02    3.7985298157e+01
    1.4209864807e+02    3.8047897339e+01
    1.4219908142e+02    3.8109901428e+01
    1.4229934692e+02    3.8171302795e+01
    1.4239775085e+02    3.8231300354e+01
    1.4249884033e+02    3.8292697906e+01
    1.4259808350e+02    3.8352600098e+01
    1.4269949341e+02    3.8413402557e+01
    1.4279884338e+02    3.8472599030e+01
    1.4289840698e+02    3.8531501770e+01
    1.4299783325e+02    3.8590000153e+01
    1.4309913635e+02    3.8649196625e+01
    1.4319842529e+02    3.8706901550e+01
    1.4329766846e+02    3.8764202118e+01
    1.4339892578e+02    3.8822299957e+01
    1.4349810791e+02    3.8878803253e+01
    1.4359936523e+02    3.8936199188e+01
    1.4369865417e+02    3.8992397308e+01
    1.4379809570e+02    3.9048103333e+01
    1.4389790344e+02    3.9103702545e+01
    1.4399928284e+02    3.9159996033e+01
    1.4409748840e+02    3.9214096069e+01
    1.4419802856e+02    3.9269199371e+01
    1.4429890442e+02    3.9324096680e+01
    1.4439767456e+02    3.9377704620e+01
    1.4449885559e+02    3.9432102203e+01
    1.4459794617e+02    3.9485095978e+01
    1.4469787598e+02    3.9537899017e+01
    1.4479914856e+02    3.9591297150e+01
    1.4489918518e+02    3.9643501282e+01
    1.4499822998e+02    3.9694702148e+01
    1.4509933472e+02    3.9746498108e+01
    1.4519871521e+02    3.9796901703e+01
    1.4529774475e+02    3.9846797943e+01
    1.4539828491e+02    3.9896797180e+01
    1.4549827576e+02    3.9946102142e+01
    1.4559878540e+02    3.9995002747e+01
    1.4569914246e+02    4.0043300629e+01
    1.4579786682e+02    4.0090301514e+01
    1.4589845276e+02    4.0137603760e+01
    1.4599934387e+02    4.0184497833e+01
    1.4609831238e+02    4.0230102539e+01
    1.4619906616e+02    4.0275901794e+01
    1.4629789734e+02    4.0320301056e+01
    1.4639884949e+02    4.0365104675e+01
    1.4649787903e+02    4.0408699036e+01
    1.4659904480e+02    4.0452697754e+01
    1.4669828796e+02    4.0495296478e+01
    1.4679965210e+02    4.0538402557e+01
    1.4689949036e+02    4.0580497742e+01
    1.4699864197e+02    4.0621898651e+01
    1.4709968567e+02    4.0663600922e+01
    1.4719834900e+02    4.0703903198e+01
    1.4729927063e+02    4.0744899750e+01
    1.4739900208e+02    4.0785099030e+01
    1.4749801636e+02    4.0824699402e+01
    1.4759812927e+02    4.0864303589e+01
    1.4769828796e+02    4.0903602600e+01
    1.4779884338e+02    4.0942897797e+01
    1.4789961243e+02    4.0981803894e+01
    1.4799838257e+02    4.1019802094e+01
    1.4809864807e+02    4.1057899475e+01
    1.4819813538e+02    4.1095504761e+01
    1.4829945374e+02    4.1133499146e+01
    1.4839968872e+02    4.1170700073e+01
    1.4849822998e+02    4.1207103729e+01
    1.4859844971e+02    4.1243602753e+01
    1.4869874573e+02    4.1279998779e+01
    1.4879905701e+02    4.1315601349e+01
    1.4889892578e+02    4.1351604462e+01
    1.4899934387e+02    4.1387397766e+01
    1.4909915161e+02    4.1421897888e+01
    1.4919827271e+02    4.1456199646e+01
    1.4929847717e+02    4.1490501404e+01
    1.4939907837e+02    4.1524803162e+01
    1.4949874878e+02    4.1559394836e+01
    1.4959826660e+02    4.1591999054e+01
    1.4969981384e+02    4.1626098633e+01
    1.4979928589e+02    4.1659301758e+01
    1.4989863586e+02    4.1692501068e+01
    1.4999902344e+02    4.1724903107e+01
    1.5009802246e+02    4.1781299591e+01
    1.5019912720e+02    4.1838203430e+01
    1.5029800415e+02    4.1893501282e+01
    1.5039816284e+02    4.1949703217e+01
    1.5049923706e+02    4.2006298065e+01
    1.5059977722e+02    4.2062602997e+01
    1.5069880676e+02    4.2118297577e+01
    1.5079817200e+02    4.2173301697e+01
    1.5089875793e+02    4.2229297638e+01
    1.5099954224e+02    4.2285800934e+01
    1.5109889221e+02    4.2340496063e+01
    1.5119949341e+02    4.2396099091e+01
    1.5129823303e+02    4.2450496674e+01
    1.5139936829e+02    4.2505798340e+01
    1.5149955750e+02    4.2561401367e+01
    1.5159947205e+02    4.2615200043e+01
    1.5169952393e+02    4.2669502258e+01
    1.5179924011e+02    4.2722999573e+01
    1.5189842224e+02    4.2776103973e+01
    1.5199842834e+02    4.2829498291e+01
    1.5209918213e+02    4.2882301331e+01
    1.5219940186e+02    4.2935600281e+01
    1.5229937744e+02    4.2986801147e+01
    1.5239981079e+02    4.3038894653e+01
    1.5249836731e+02    4.3089500427e+01
    1.5259956360e+02    4.3140403748e+01
    1.5269815063e+02    4.3190101624e+01
    1.5279847717e+02    4.3239494324e+01
    1.5290002441e+02    4.3289299011e+01
    1.5299917603e+02    4.3337699890e+01
    1.5310008240e+02    4.3386497498e+01
    1.5319903564e+02    4.3434204102e+01
    1.5329998779e+02    4.3480995178e+01
    1.5339855957e+02    4.3527503967e+01
    1.5349908447e+02    4.3574195862e+01
    1.5359960938e+02    4.3620399475e+01
    1.5369815063e+02    4.3665596008e+01
    1.5379968262e+02    4.3711303711e+01
    1.5389941406e+02    4.3755599976e+01
    1.5399812317e+02    4.3799301147e+01
    1.5409848022e+02    4.3842597961e+01
    1.5419862366e+02    4.3886001587e+01
    1.5429850769e+02    4.3929397583e+01
    1.5439860535e+02    4.3972000122e+01
    1.5449957275e+02    4.4014602661e+01
    1.5459855652e+02    4.4055198669e+01
    1.5469961548e+02    4.4096702576e+01
    1.5480001831e+02    4.4137893677e+01
    1.5489935303e+02    4.4177299500e+01
    1.5499987793e+02    4.4217193604e+01
    1.5509832764e+02    4.4256202698e+01
    1.5519909668e+02    4.4294494629e+01
    1.5529881287e+02    4.4332099915e+01
    1.5539961243e+02    4.4370201111e+01
    1.5549832153e+02    4.4406402588e+01
    1.5559851074e+02    4.4442398071e+01
    1.5569989014e+02    4.4478599548e+01
    1.5580007935e+02    4.4513305664e+01
    1.5589828491e+02    4.4546997070e+01
    1.5599853516e+02    4.4580406189e+01
    1.5609950256e+02    4.4613899231e+01
    1.5619851685e+02    4.4646400452e+01
    1.5629965210e+02    4.4678497314e+01
    1.5639872742e+02    4.4709800720e+01
    1.5649971008e+02    4.4740997314e+01
    1.5660032654e+02    4.4771400452e+01
    1.5669871521e+02    4.4800498962e+01
    1.5679908752e+02    4.4829399109e+01
    1.5689991760e+02    4.4859001160e+01
    1.5699917603e+02    4.4887100220e+01
    1.5709951782e+02    4.4915901184e+01
    1.5719964600e+02    4.4943595886e+01
    1.5729968262e+02    4.4971199036e+01
    1.5739991760e+02    4.4998100281e+01
    1.5749865723e+02    4.5024505615e+01
    1.5759982300e+02    4.5050994873e+01
    1.5769885254e+02    4.5077301025e+01
    1.5779928589e+02    4.5103599548e+01
    1.5789837646e+02    4.5128105164e+01
    1.5799952698e+02    4.5154495239e+01
    1.5810038757e+02    4.5179100037e+01
    1.5819851685e+02    4.5203697205e+01
    1.5829962158e+02    4.5228202820e+01
    1.5839862061e+02    4.5252494812e+01
    1.5849969482e+02    4.5276496887e+01
    1.5859870911e+02    4.5300102234e+01
    1.5869990540e+02    4.5323196411e+01
    1.5879965210e+02    4.5345802307e+01
    1.5889869690e+02    4.5368499756e+01
    1.5899864197e+02    4.5390106201e+01
    1.5910011292e+02    4.5412399292e+01
    1.5919895935e+02    4.5434501648e+01
    1.5929930115e+02    4.5455398560e+01
    1.5940011597e+02    4.5477096558e+01
    1.5950015259e+02    4.5497901917e+01
    1.5959884644e+02    4.5518096924e+01
    1.5970004272e+02    4.5538101196e+01
    1.5979873657e+02    4.5557899475e+01
    1.5989913940e+02    4.5576904297e+01
    1.5999964905e+02    4.5596595764e+01
    1.6010005188e+02    4.5638298035e+01
    1.6020043945e+02    4.5679801941e+01
    1.6029864502e+02    4.5719398499e+01
    1.6040005493e+02    4.5760505676e+01
    1.6050054932e+02    4.5801200867e+01
    1.6060038757e+02    4.5841102600e+01
    1.6069873047e+02    4.5880798340e+01
    1.6079986572e+02    4.5920799255e+01
    1.6090049744e+02    4.5960700989e+01
    1.6100050354e+02    4.6000495911e+01
    1.6110000610e+02    4.6040100098e+01
    1.6120021057e+02    4.6079200745e+01
    1.6130049133e+02    4.6117805481e+01
    1.6139935303e+02    4.6155899048e+01
    1.6150039673e+02    4.6194396973e+01
    1.6160058594e+02    4.6232208252e+01
    1.6170051575e+02    4.6270195007e+01
    1.6180050659e+02    4.6306694031e+01
    1.6189976501e+02    4.6343208313e+01
    1.6199972534e+02    4.6379798889e+01
    1.6210067749e+02    4.6415901184e+01
    1.6219894409e+02    4.6450004578e+01
    1.6229876709e+02    4.6485298157e+01
    1.6239877319e+02    4.6518692017e+01
    1.6249986267e+02    4.6553405762e+01
    1.6259889221e+02    4.6585693359e+01
    1.6269929504e+02    4.6618606567e+01
    1.6279971313e+02    4.6649894714e+01
    1.6290072632e+02    4.6681304932e+01
    1.6299937439e+02    4.6712005615e+01
    1.6309986877e+02    4.6742401123e+01
    1.6320074463e+02    4.6772293091e+01
    1.6329978943e+02    4.6800491333e+01
    1.6340007019e+02    4.6828498840e+01
    1.6350033569e+02    4.6857101440e+01
    1.6360040283e+02    4.6883499146e+01
    1.6370051575e+02    4.6910408020e+01
    1.6379953003e+02    4.6937095642e+01
    1.6389888000e+02    4.6962600708e+01
    1.6399888611e+02    4.6988098145e+01
    1.6409979248e+02    4.7012397766e+01
    1.6419952393e+02    4.7036590576e+01
    1.6430067444e+02    4.7061309814e+01
    1.6439955139e+02    4.7084403992e+01
    1.6450000000e+02    4.7107704163e+01
    1.6460055542e+02    4.7130104065e+01
    1.6469935608e+02    4.7150894165e+01
    1.6479911804e+02    4.7171997070e+01
    1.6489938354e+02    4.7193496704e+01
    1.6499929810e+02    4.7213195801e+01
    1.6509931946e+02    4.7233100891e+01
    1.6519914246e+02    4.7251899719e+01
    1.6530065918e+02    4.7271308899e+01
    1.6539883423e+02    4.7288406372e+01
    1.6550044250e+02    4.7305404663e+01
    1.6560041809e+02    4.7322296143e+01
    1.6569892883e+02    4.7337905884e+01
    1.6580032349e+02    4.7353500366e+01
    1.6590005493e+02    4.7368103027e+01
    1.6600076294e+02    4.7383003235e+01
    1.6609950256e+02    4.7395698547e+01
    1.6619975281e+02    4.7408508301e+01
    1.6629977417e+02    4.7421295166e+01
    1.6639973450e+02    4.7433601379e+01
    1.6650027466e+02    4.7445106506e+01
    1.6660049438e+02    4.7455894470e+01
    1.6669999695e+02    4.7465904236e+01
    1.6680090332e+02    4.7476310730e+01
    1.6690025330e+02    4.7485900879e+01
    1.6699993896e+02    4.7495300293e+01
    1.6709907532e+02    4.7504608154e+01
    1.6719958496e+02    4.7513504028e+01
    1.6730006409e+02    4.7522300720e+01
    1.6739907837e+02    4.7530105591e+01
    1.6750064087e+02    4.7537803650e+01
    1.6759901428e+02    4.7545593262e+01
    1.6769956970e+02    4.7553192139e+01
    1.6780009460e+02    4.7560607910e+01
    1.6790036011e+02    4.7567398071e+01
    1.6800000000e+02    4.7574401855e+01
    1.6809953308e+02    4.7581398010e+01
    1.6820097351e+02    4.7587791443e+01
    1.6829962158e+02    4.7593307495e+01
    1.6840017700e+02    4.7599205017e+01
    1.6850001526e+02    4.7605491638e+01
    1.6859994507e+02    4.7610290527e+01
    1.6869981384e+02    4.7615898132e+01
    1.6880070496e+02    4.7619796753e+01
    1.6890092468e+02    4.7625099182e+01
    1.6899977112e+02    4.7628204346e+01
    1.6910003662e+02    4.7632804871e+01
    1.6919953918e+02    4.7635696411e+01
    1.6930070496e+02    4.7639396667e+01
    1.6939923096e+02    4.7642005920e+01
    1.6950044250e+02    4.7643989563e+01
    1.6960055542e+02    4.7646301270e+01
    1.6969992065e+02    4.7648895264e+01
    1.6980070496e+02    4.7649993896e+01
    1.6990080261e+02    4.7651000977e+01
    1.7000082397e+02    4.7652992249e+01
    1.7009919739e+02    4.7673995972e+01
    1.7020117188e+02    4.7694992065e+01
    1.7030105591e+02    4.7715003967e+01
    1.7040014648e+02    4.7734992981e+01
    1.7050030518e+02    4.7755996704e+01
    1.7060017395e+02    4.7775001526e+01
    1.7070057678e+02    4.7794006348e+01
    1.7079954529e+02    4.7814002991e+01
    1.7089970398e+02    4.7832992554e+01
    1.7099923706e+02    4.7851997375e+01
    1.7110093689e+02    4.7869995117e+01
    1.7120042419e+02    4.7887992859e+01
    1.7130087280e+02    4.7905998230e+01
    1.7139965820e+02    4.7923004150e+01
    1.7150102234e+02    4.7940994263e+01
    1.7160040283e+02    4.7956993103e+01
    1.7170069885e+02    4.7972999573e+01
    1.7180026245e+02    4.7987998962e+01
    1.7189997864e+02    4.8003005981e+01
    1.7200079346e+02    4.8016998291e+01
    1.7209930420e+02    4.8030998230e+01
    1.7220013428e+02    4.8044998169e+01
    1.7230029297e+02    4.8056991577e+01
    1.7240025330e+02    4.8069007874e+01
    1.7250100708e+02    4.8080001831e+01
    1.7259997559e+02    4.8090003967e+01
    1.7270094299e+02    4.8101005554e+01
    1.7280096436e+02    4.8110000610e+01
    1.7290022278e+02    4.8117996216e+01
    1.7300068665e+02    4.8125999451e+01
    1.7310098267e+02    4.8133003235e+01
    1.7319955444e+02    4.8139999390e+01
    1.7330038452e+02    4.8145996094e+01
    1.7340055847e+02    4.8152000427e+01
    1.7350088501e+02    4.8156997681e+01
    1.7360066223e+02    4.8161003113e+01
    1.7370028687e+02    4.8163993835e+01
    1.7380134583e+02    4.8167991638e+01
    1.7390048218e+02    4.8171005249e+01
    1.7400009155e+02    4.8172996521e+01
    1.7410087585e+02    4.8175003052e+01
    1.7420060730e+02    4.8176994324e+01
    1.7430046082e+02    4.8178001404e+01
    1.7440014648e+02    4.8178993225e+01
    1.7450117493e+02    4.8178993225e+01
    1.7460038757e+02    4.8179008484e+01
    1.7469995117e+02    4.8177993774e+01
    1.7480090332e+02    4.8177001953e+01
    1.7490037537e+02    4.8174995422e+01
    1.7499964905e+02    4.8173004150e+01
    1.7510093689e+02    4.8170005798e+01
    1.7519960022e+02    4.8167999268e+01
    1.7530044556e+02    4.8164009094e+01
    1.7540022278e+02    4.8160003662e+01
    1.7550035095e+02    4.8154998779e+01
    1.7559951782e+02    4.8149993896e+01
    1.7570042419e+02    4.8144004822e+01
    1.7580122375e+02    4.8137001038e+01
    1.7590003967e+02    4.8131004333e+01
    1.7600042725e+02    4.8124008179e+01
    1.7610087585e+02    4.8115997314e+01
    1.7620011902e+02    4.8108001709e+01
    1.7630099487e+02    4.8100006104e+01
    1.7639962769e+02    4.8090003967e+01
    1.7650074768e+02    4.8081008911e+01
    1.7660006714e+02    4.8071006775e+01
    1.7670005798e+02    4.8060997009e+01
    1.7679992676e+02    4.8050994873e+01
    1.7690153503e+02    4.8040000916e+01
    1.7700000000e+02    4.8028999329e+01
    1.7709985352e+02    4.8017997742e+01
    1.7720126343e+02    4.8007003784e+01
    1.7730064392e+02    4.7995002747e+01
    1.7739970398e+02    4.7984001160e+01
    1.7749995422e+02    4.7971992493e+01
    1.7760070801e+02    4.7960006714e+01
    1.7770108032e+02    4.7947006226e+01
    1.7780140686e+02    4.7934997559e+01
    1.7790017700e+02    4.7922996521e+01
    1.7800126648e+02    4.7911003113e+01
    1.7810040283e+02    4.7897994995e+01
    1.7820141602e+02    4.7885009766e+01
    1.7830151367e+02    4.7871002197e+01
    1.7840008545e+02    4.7859008789e+01
    1.7850097656e+02    4.7845001221e+01
    1.7859967041e+02    4.7831008911e+01
    1.7870013428e+02    4.7816993713e+01
    1.7879992676e+02    4.7801994324e+01
    1.7890002441e+02    4.7788002014e+01
    1.7899975586e+02    4.7772003174e+01
    1.7910157776e+02    4.7757003784e+01
    1.7920153809e+02    4.7740997314e+01
    1.7930085754e+02    4.7724998474e+01
    1.7940025330e+02    4.7707992554e+01
    1.7950141907e+02    4.7690994263e+01
    1.7960075378e+02    4.7673995972e+01
    1.7970101929e+02    4.7657005310e+01
    1.7980076599e+02    4.7638008118e+01
    1.7990144348e+02    4.7620002747e+01
    1.8000010681e+02    4.7600997925e+01
    1.8010023499e+02    4.7599998474e+01
    1.8020048523e+02    4.7597000122e+01
    1.8030079651e+02    4.7595001221e+01
    1.8040000916e+02    4.7593002319e+01
    1.8050035095e+02    4.7589004517e+01
    1.8060050964e+02    4.7586006165e+01
    1.8070158386e+02    4.7582000732e+01
    1.8080038452e+02    4.7578994751e+01
    1.8090147400e+02    4.7574005127e+01
    1.8100109863e+02    4.7569000244e+01
    1.8110032654e+02    4.7564010620e+01
    1.8120085144e+02    4.7558990479e+01
    1.8130174255e+02    4.7552993774e+01
    1.8139990234e+02    4.7546005249e+01
    1.8150128174e+02    4.7537994385e+01
    1.8160119629e+02    4.7531005859e+01
    1.8170132446e+02    4.7523010254e+01
    1.8179997253e+02    4.7514007568e+01
    1.8190008545e+02    4.7505004883e+01
    1.8200166321e+02    4.7494003296e+01
    1.8210015869e+02    4.7484008789e+01
    1.8220033264e+02    4.7473007202e+01
    1.8230024719e+02    4.7460998535e+01
    1.8240191650e+02    4.7447998047e+01
    1.8250073242e+02    4.7434997559e+01
    1.8260168457e+02    4.7421005249e+01
    1.8270094299e+02    4.7406997681e+01
    1.8280117798e+02    4.7391006470e+01
    1.8290034485e+02    4.7375000000e+01
    1.8300050354e+02    4.7358993530e+01
    1.8310044861e+02    4.7342010498e+01
    1.8320053101e+02    4.7323989868e+01
    1.8330126953e+02    4.7305999756e+01
    1.8340121460e+02    4.7286987305e+01
    1.8350004578e+02    4.7268997192e+01
    1.8360133362e+02    4.7248992920e+01
    1.8370031738e+02    4.7229003906e+01
    1.8380058289e+02    4.7209014893e+01
    1.8390118408e+02    4.7188995361e+01
    1.8400134277e+02    4.7167999268e+01
    1.8410098267e+02    4.7147003174e+01
    1.8420152283e+02    4.7125000000e+01
    1.8430180359e+02    4.7102996826e+01
    1.8440164185e+02    4.7082000732e+01
    1.8450166321e+02    4.7060012817e+01
    1.8460183716e+02    4.7037994385e+01
    1.8470016479e+02    4.7014999390e+01
    1.8480006409e+02    4.6992996216e+01
    1.8490048218e+02    4.6968994141e+01
    1.8500085449e+02    4.6946014404e+01
    1.8510125732e+02    4.6920989990e+01
    1.8520065308e+02    4.6897994995e+01
    1.8530061340e+02    4.6873001099e+01
    1.8540165710e+02    4.6848999023e+01
    1.8550204468e+02    4.6822998047e+01
    1.8560147095e+02    4.6798004150e+01
    1.8570133972e+02    4.6771987915e+01
    1.8580114746e+02    4.6746002197e+01
    1.8590032959e+02    4.6720001221e+01
    1.8600018311e+02    4.6693008423e+01
    1.8610159302e+02    4.6667007446e+01
    1.8620205688e+02    4.6639007568e+01
    1.8630038452e+02    4.6611999512e+01
    1.8640046692e+02    4.6583999634e+01
    1.8650048828e+02    4.6554992676e+01
    1.8660032654e+02    4.6527008057e+01
    1.8670147705e+02    4.6498992920e+01
    1.8680039978e+02    4.6470001221e+01
    1.8690063477e+02    4.6442001343e+01
    1.8700082397e+02    4.6412994385e+01
    1.8710072327e+02    4.6383010864e+01
    1.8720210266e+02    4.6353988647e+01
    1.8730099487e+02    4.6324005127e+01
    1.8740121460e+02    4.6294006348e+01
    1.8750213623e+02    4.6263992310e+01
    1.8760168457e+02    4.6235992432e+01
    1.8770199585e+02    4.6205001831e+01
    1.8780099487e+02    4.6176010132e+01
    1.8790063477e+02    4.6145004272e+01
    1.8800057983e+02    4.6115005493e+01
    1.8810223389e+02    4.6082992554e+01
    1.8820143127e+02    4.6054000854e+01
    1.8830097961e+02    4.6022003174e+01
    1.8840080261e+02    4.5990997314e+01
    1.8850227356e+02    4.5958007812e+01
    1.8860023499e+02    4.5926986694e+01
    1.8870089722e+02    4.5893997192e+01
    1.8880038452e+02    4.5861007690e+01
    1.8890083313e+02    4.5828002930e+01
    1.8900071716e+02    4.5794998169e+01
    1.8910110474e+02    4.5761001587e+01
    1.8920118713e+02    4.5726013184e+01
    1.8930116272e+02    4.5690994263e+01
    1.8940136719e+02    4.5655990601e+01
    1.8950152588e+02    4.5619995117e+01
    1.8960154724e+02    4.5583007812e+01
    1.8970164490e+02    4.5547012329e+01
    1.8980213928e+02    4.5509994507e+01
    1.8990203857e+02    4.5472000122e+01
    1.9000184631e+02    4.5434005737e+01
    1.9010220337e+02    4.5410003662e+01
    1.9020239258e+02    4.5386001587e+01
    1.9030073547e+02    4.5361999512e+01
    1.9040231323e+02    4.5337005615e+01
    1.9050047302e+02    4.5312011719e+01
    1.9060064697e+02    4.5285995483e+01
    1.9070115662e+02    4.5259994507e+01
    1.9080201721e+02    4.5233001709e+01
    1.9090170288e+02    4.5207000732e+01
    1.9100068665e+02    4.5179992676e+01
    1.9110127258e+02    4.5152999878e+01
    1.9120225525e+02    4.5125000000e+01
    1.9130206299e+02    4.5096008301e+01
    1.9140080261e+02    4.5068008423e+01
    1.9150219727e+02    4.5037994385e+01
    1.9160177612e+02    4.5009002686e+01
    1.9170155334e+02    4.4979003906e+01
    1.9180047607e+02    4.4949005127e+01
    1.9190171814e+02    4.4917999268e+01
    1.9200114441e+02    4.4887008667e+01
    1.9210046387e+02    4.4856002808e+01
    1.9220173645e+02    4.4822006226e+01
    1.9230174255e+02    4.4791000366e+01
    1.9240173340e+02    4.4757003784e+01
    1.9250224304e+02    4.4722991943e+01
    1.9260214233e+02    4.4689010620e+01
    1.9270120239e+02    4.4654998779e+01
    1.9280151367e+02    4.4619995117e+01
    1.9290162659e+02    4.4583999634e+01
    1.9300100708e+02    4.4549011230e+01
    1.9310215759e+02    4.4513000488e+01
    1.9320185852e+02    4.4477005005e+01
    1.9330181885e+02    4.4440002441e+01
    1.9340138245e+02    4.4403991699e+01
    1.9350212097e+02    4.4367004395e+01
    1.9360087585e+02    4.4331008911e+01
    1.9370086670e+02    4.4293991089e+01
    1.9380165100e+02    4.4255996704e+01
    1.9390136719e+02    4.4219009399e+01
    1.9400155640e+02    4.4182998657e+01
    1.9410066223e+02    4.4147003174e+01
    1.9420166016e+02    4.4108993530e+01
    1.9430064392e+02    4.4072998047e+01
    1.9440103149e+02    4.4035995483e+01
[...]
    2.5130558777e+02    4.0013977051e+01
    2.5140458679e+02    4.0011993408e+01
    2.5150535583e+02    4.0010009766e+01
    2.5160589600e+02    4.0007995605e+01
    2.5170611572e+02    4.0005004883e+01
    2.5180609131e+02    4.0002990723e+01
    2.5190577698e+02    4.0000976562e+01
    2.5200511169e+02    3.9998016357e+01
    2.5210452271e+02    3.9994995117e+01
    2.5220555115e+02    3.9992980957e+01
    2.5230587769e+02    3.9990997314e+01
    2.5240559387e+02    3.9986999512e+01
    2.5250616455e+02    3.9984008789e+01
    2.5260455322e+02    3.9980987549e+01
    2.5270498657e+02    3.9977996826e+01
    2.5280581665e+02    3.9974029541e+01
    2.5290454102e+02    3.9970977783e+01
    2.5300541687e+02    3.9967010498e+01
    2.5310467529e+02    3.9962982178e+01
    2.5320620728e+02    3.9958984375e+01
    2.5330464172e+02    3.9954986572e+01
    2.5340478516e+02    3.9949981689e+01
    2.5350569153e+02    3.9946014404e+01
    2.5360496521e+02    3.9940979004e+01
    2.5370622253e+02    3.9934997559e+01
    2.5380520630e+02    3.9930999756e+01
    2.5390440369e+02    3.9925018311e+01
    2.5400590515e+02    3.9919982910e+01
    2.5410565186e+02    3.9914001465e+01
    2.5420512390e+02    3.9906982422e+01
    2.5430468750e+02    3.9900024414e+01
    2.5440618896e+02    3.9893981934e+01
    2.5450564575e+02    3.9886016846e+01
    2.5460502625e+02    3.9878997803e+01
    2.5470628357e+02    3.9871002197e+01
    2.5480543518e+02    3.9863006592e+01
    2.5490437317e+02    3.9854003906e+01
    2.5500509644e+02    3.9843994141e+01
    2.5510560608e+02    3.9834991455e+01
    2.5520602417e+02    3.9825012207e+01
    2.5530441284e+02    3.9815002441e+01
    2.5540451050e+02    3.9804992676e+01
    2.5550633240e+02    3.9792999268e+01
    2.5560606384e+02    3.9782012939e+01
    2.5570565796e+02    3.9769989014e+01
    2.5580511475e+02    3.9757995605e+01
    2.5590446472e+02    3.9746002197e+01
    2.5600567627e+02    3.9733001709e+01
    2.5610494995e+02    3.9720001221e+01
    2.5620507812e+02    3.9706024170e+01
    2.5630545044e+02    3.9692993164e+01
    2.5640603638e+02    3.9679016113e+01
    2.5650640869e+02    3.9665008545e+01
    2.5660488892e+02    3.9651000977e+01
    2.5670608521e+02    3.9636016846e+01
    2.5680596924e+02    3.9621002197e+01
    2.5690457153e+02    3.9605987549e+01
    2.5700476074e+02    3.9592010498e+01
    2.5710461426e+02    3.9575988770e+01
    2.5720547485e+02    3.9561004639e+01
    2.5730462646e+02    3.9545989990e+01
    2.5740554810e+02    3.9529998779e+01
    2.5750463867e+02    3.9513000488e+01
    2.5760601807e+02    3.9497009277e+01
    2.5770520020e+02    3.9481018066e+01
    2.5780648804e+02    3.9464019775e+01
    2.5790542603e+02    3.9447998047e+01
    2.5800607300e+02    3.9430999756e+01
    2.5810647583e+02    3.9414001465e+01
    2.5820526123e+02    3.9397003174e+01
    2.5830615234e+02    3.9380004883e+01
    2.5840496826e+02    3.9363006592e+01
    2.5850576782e+02    3.9344970703e+01
    2.5860647583e+02    3.9328002930e+01
    2.5870498657e+02    3.9309997559e+01
    2.5880526733e+02    3.9291992188e+01
    2.5890615845e+02    3.9273986816e+01
    2.5900500488e+02    3.9256988525e+01
    2.5910620117e+02    3.9238983154e+01
    2.5920608521e+02    3.9220977783e+01
    2.5930511475e+02    3.9204010010e+01
    2.5940585327e+02    3.9185974121e+01
    2.5950540161e+02    3.9167999268e+01
    2.5960565186e+02    3.9151000977e+01
    2.5970581055e+02    3.9132995605e+01
    2.5980487061e+02    3.9115997314e+01
    2.5990567017e+02    3.9098999023e+01
    2.6000592041e+02    3.9081024170e+01
    2.6010610962e+02    3.9066009521e+01
    2.6020553589e+02    3.9049011230e+01
    2.6030575562e+02    3.9033996582e+01
    2.6040536499e+02    3.9018005371e+01
    2.6050622559e+02    3.9001007080e+01
    2.6060549927e+02    3.8985015869e+01
    2.6070495605e+02    3.8968994141e+01
    2.6080599976e+02    3.8953002930e+01
    2.6090512085e+02    3.8938018799e+01
    2.6100659180e+02    3.8920989990e+01
    2.6110653687e+02    3.8904998779e+01
    2.6120654297e+02    3.8889007568e+01
    2.6130645752e+02    3.8872009277e+01
    2.6140643311e+02    3.8856994629e+01
    2.6150640869e+02    3.8839996338e+01
    2.6160629272e+02    3.8822998047e+01
    2.6170602417e+02    3.8805999756e+01
    2.6180557251e+02    3.8789001465e+01
    2.6190487671e+02    3.8770996094e+01
    2.6200598145e+02    3.8753021240e+01
    2.6210504150e+02    3.8735992432e+01
    2.6220581055e+02    3.8716979980e+01
    2.6230633545e+02    3.8697998047e+01
    2.6240673828e+02    3.8678985596e+01
    2.6250515747e+02    3.8659973145e+01
    2.6260552979e+02    3.8640991211e+01
    2.6270587158e+02    3.8620971680e+01
    2.6280624390e+02    3.8600982666e+01
    2.6290652466e+02    3.8581024170e+01
    2.6300500488e+02    3.8559997559e+01
    2.6310589600e+02    3.8539001465e+01
    2.6320510864e+02    3.8518981934e+01
    2.6330676270e+02    3.8497009277e+01
    2.6340588379e+02    3.8475982666e+01
    2.6350595093e+02    3.8453979492e+01
    2.6360665894e+02    3.8432006836e+01
    2.6370498657e+02    3.8410003662e+01
    2.6380670166e+02    3.8386993408e+01
    2.6390679932e+02    3.8364990234e+01
    2.6400650024e+02    3.8342987061e+01
    2.6410583496e+02    3.8319976807e+01
    2.6420556641e+02    3.8297973633e+01
    2.6430639648e+02    3.8274017334e+01
    2.6440557861e+02    3.8251007080e+01
    2.6450497437e+02    3.8227020264e+01
    2.6460604858e+02    3.8204986572e+01
    2.6470553589e+02    3.8179992676e+01
    2.6480603027e+02    3.8156982422e+01
    2.6490621948e+02    3.8132995605e+01
    2.6500622559e+02    3.8109008789e+01
    2.6510623169e+02    3.8085998535e+01
    2.6520608521e+02    3.8062011719e+01
    2.6530581665e+02    3.8038024902e+01
    2.6540551758e+02    3.8014007568e+01
    2.6550503540e+02    3.7989990234e+01
    2.6560641479e+02    3.7966003418e+01
    2.6570574951e+02    3.7942993164e+01
    2.6580697632e+02    3.7919006348e+01
    2.6590612793e+02    3.7896026611e+01
    2.6600515747e+02    3.7872009277e+01
    2.6610650635e+02    3.7848999023e+01
    2.6620581055e+02    3.7825988770e+01
    2.6630645752e+02    3.7803009033e+01
    2.6640701294e+02    3.7781005859e+01
    2.6650534058e+02    3.7760009766e+01
    2.6660580444e+02    3.7738006592e+01
    2.6670693970e+02    3.7714996338e+01
    2.6680541992e+02    3.7694000244e+01
    2.6690594482e+02    3.7674011230e+01
    2.6700576782e+02    3.7652984619e+01
    2.6710543823e+02    3.7631988525e+01
    2.6720556641e+02    3.7611999512e+01
    2.6730673218e+02    3.7592010498e+01
    2.6740658569e+02    3.7572998047e+01
    2.6750659180e+02    3.7553009033e+01
    2.6760659790e+02    3.7535003662e+01
    2.6770657349e+02    3.7515014648e+01
    2.6780679321e+02    3.7496002197e+01
    2.6790704346e+02    3.7477996826e+01
    2.6800534058e+02    3.7459991455e+01
    2.6810562134e+02    3.7441009521e+01
    2.6820596313e+02    3.7423004150e+01
    2.6830630493e+02    3.7403991699e+01
    2.6840664673e+02    3.7385986328e+01
    2.6850695801e+02    3.7368011475e+01
    2.6860525513e+02    3.7349975586e+01
    2.6870538330e+02    3.7333007812e+01
    2.6880541992e+02    3.7313995361e+01
    2.6890554810e+02    3.7296020508e+01
    2.6900561523e+02    3.7278991699e+01
    2.6910559082e+02    3.7260986328e+01
    2.6920715332e+02    3.7243011475e+01
    2.6930618286e+02    3.7226013184e+01
    2.6940707397e+02    3.7208007812e+01
    2.6950601196e+02    3.7190979004e+01
    2.6960702515e+02    3.7173980713e+01
    2.6970626831e+02    3.7157012939e+01
    2.6980612183e+02    3.7140014648e+01
    2.6990625000e+02    3.7122985840e+01
    2.7000698853e+02    3.7106018066e+01
    2.7010610962e+02    3.7087005615e+01
    2.7020581055e+02    3.7069000244e+01
    2.7030538940e+02    3.7050018311e+01
    2.7040591431e+02    3.7031982422e+01
    2.7050601196e+02    3.7013000488e+01
    2.7060635376e+02    3.6994018555e+01
    2.7070516968e+02    3.6976013184e+01
    2.7080596924e+02    3.6957977295e+01
    2.7090652466e+02    3.6938995361e+01
    2.7100689697e+02    3.6919982910e+01
    2.7110665894e+02    3.6902984619e+01
    2.7120648193e+02    3.6884002686e+01
    2.7130718994e+02    3.6865020752e+01
    2.7140609741e+02    3.6846008301e+01
    2.7150683594e+02    3.6828002930e+01
    2.7160723877e+02    3.6808990479e+01
    2.7170721436e+02    3.6789978027e+01
    2.7180725098e+02    3.6770996094e+01
    2.7190548706e+02    3.6751983643e+01
    2.7200585938e+02    3.6733001709e+01
    2.7210610962e+02    3.6713989258e+01
    2.7220623779e+02    3.6694000244e+01
    2.7230624390e+02    3.6675018311e+01
    2.7240606689e+02    3.6654998779e+01
    2.7250576782e+02    3.6636016846e+01
    2.7260733032e+02    3.6615997314e+01
    2.7270681763e+02    3.6595977783e+01
    2.7280630493e+02    3.6578002930e+01
    2.7290585327e+02    3.6557983398e+01
    2.7300634766e+02    3.6539001465e+01
    2.7310693359e+02    3.6518981934e+01
    2.7320550537e+02    3.6501007080e+01
    2.7330624390e+02    3.6481994629e+01
    2.7340551758e+02    3.6463012695e+01
    2.7350744629e+02    3.6444976807e+01
    2.7360543823e+02    3.6427001953e+01
    2.7370709229e+02    3.6407989502e+01
    2.7380593872e+02    3.6389984131e+01
    2.7390646362e+02    3.6372985840e+01
    2.7400729370e+02    3.6356018066e+01
    2.7410620117e+02    3.6338012695e+01
    2.7420559692e+02    3.6322021484e+01
    2.7430737305e+02    3.6304992676e+01
    2.7440542603e+02    3.6287994385e+01
    2.7450747681e+02    3.6272003174e+01
    2.7460595703e+02    3.6255981445e+01
    2.7470727539e+02    3.6239990234e+01
    2.7480661011e+02    3.6225006104e+01
    2.7490594482e+02    3.6209014893e+01
    2.7500720215e+02    3.6192993164e+01
    2.7510641479e+02    3.6179016113e+01
    2.7520565796e+02    3.6164001465e+01
    2.7530691528e+02    3.6148986816e+01
    2.7540606689e+02    3.6135009766e+01
    2.7550704956e+02    3.6121002197e+01
    2.7560592651e+02    3.6107971191e+01
    2.7570675659e+02    3.6093994141e+01
    2.7580746460e+02    3.6079986572e+01
    2.7590600586e+02    3.6069000244e+01
    2.7600650024e+02    3.6055999756e+01
    2.7610671997e+02    3.6044006348e+01
    2.7620672607e+02    3.6031982422e+01
    2.7630657959e+02    3.6020019531e+01
    2.7640631104e+02    3.6009002686e+01
    2.7650601196e+02    3.5998016357e+01
    2.7660586548e+02    3.5985992432e+01
    2.7670596313e+02    3.5976013184e+01
    2.7680636597e+02    3.5966003418e+01
    2.7690719604e+02    3.5955017090e+01
    2.7700683594e+02    3.5945007324e+01
    2.7710717773e+02    3.5934997559e+01
    2.7720669556e+02    3.5925018311e+01
    2.7730712891e+02    3.5915008545e+01
    2.7740570068e+02    3.5904998779e+01
    2.7750747681e+02    3.5895019531e+01
    2.7760708618e+02    3.5884979248e+01
    2.7770654297e+02    3.5876007080e+01
    2.7780657959e+02    3.5865997314e+01
    2.7790606689e+02    3.5855010986e+01
    2.7800753784e+02    3.5845001221e+01
    2.7810626221e+02    3.5833984375e+01
    2.7820602417e+02    3.5824005127e+01
    2.7830578613e+02    3.5812988281e+01
    2.7840579224e+02    3.5802001953e+01
    2.7850625610e+02    3.5791015625e+01
    2.7860668945e+02    3.5778991699e+01
    2.7870709229e+02    3.5766998291e+01
    2.7880718994e+02    3.5756011963e+01
    2.7890725708e+02    3.5743988037e+01
    2.7900744629e+02    3.5730987549e+01
    2.7910766602e+02    3.5717987061e+01
    2.7920593262e+02    3.5705993652e+01
    2.7930621338e+02    3.5692993164e+01
    2.7940643311e+02    3.5678985596e+01
    2.7950668335e+02    3.5665985107e+01
    2.7960696411e+02    3.5652984619e+01
    2.7970733643e+02    3.5639007568e+01
    2.7980590820e+02    3.5625976562e+01
    2.7990585327e+02    3.5613006592e+01
    2.8000582886e+02    3.5598999023e+01
    2.8010614014e+02    3.5582000732e+01
    2.8020730591e+02    3.5565002441e+01
    2.8030630493e+02    3.5548004150e+01
    2.8040756226e+02    3.5529998779e+01
    2.8050772095e+02    3.5514007568e+01
    2.8060635376e+02    3.5497009277e+01
    2.8070660400e+02    3.5480010986e+01
    2.8080633545e+02    3.5463989258e+01
    2.8090603638e+02    3.5446990967e+01
    2.8100744629e+02    3.5430999756e+01
    2.8110705566e+02    3.5414001465e+01
    2.8120758057e+02    3.5397979736e+01
    2.8130630493e+02    3.5380981445e+01
    2.8140771484e+02    3.5363983154e+01
    2.8150607300e+02    3.5348022461e+01
    2.8160678101e+02    3.5330993652e+01
    2.8170709229e+02    3.5315002441e+01
    2.8180746460e+02    3.5296997070e+01
    2.8190618896e+02    3.5281005859e+01
    2.8200704956e+02    3.5264984131e+01
    2.8210797119e+02    3.5248016357e+01
    2.8220660400e+02    3.5232025146e+01
    2.8230722046e+02    3.5214996338e+01
    2.8240600586e+02    3.5198974609e+01
    2.8250686646e+02    3.5182006836e+01
    2.8260784912e+02    3.5166992188e+01
    2.8270693970e+02    3.5151000977e+01
    2.8280801392e+02    3.5135986328e+01
    2.8290698242e+02    3.5121002197e+01
    2.8300778198e+02    3.5105987549e+01
    2.8310644531e+02    3.5091979980e+01
    2.8320703125e+02    3.5078002930e+01
    2.8330758667e+02    3.5063995361e+01
    2.8340640259e+02    3.5051025391e+01
    2.8350738525e+02    3.5036987305e+01
    2.8360739136e+02    3.5022979736e+01
    2.8370739746e+02    3.5010986328e+01
    2.8380798340e+02    3.4998016357e+01
    2.8390667725e+02    3.4985015869e+01
    2.8400622559e+02    3.4972991943e+01
    2.8410800171e+02    3.4959991455e+01
    2.8420605469e+02    3.4948974609e+01
    2.8430697632e+02    3.4936004639e+01
    2.8440643311e+02    3.4924987793e+01
    2.8450802612e+02    3.4911987305e+01
    2.8460684204e+02    3.4901000977e+01
    2.8470681763e+02    3.4889007568e+01
    2.8480682373e+02    3.4875976562e+01
    2.8490618896e+02    3.4864013672e+01
    2.8500772095e+02    3.4852996826e+01
    2.8510717773e+02    3.4841003418e+01
    2.8520715332e+02    3.4828979492e+01
    2.8530688477e+02    3.4818023682e+01
    2.8540667725e+02    3.4805999756e+01
    2.8550656128e+02    3.4794006348e+01
    2.8560653687e+02    3.4782989502e+01
    2.8570660400e+02    3.4770996094e+01
    2.8580670166e+02    3.4760009766e+01
    2.8590686035e+02    3.4748016357e+01
    2.8600711060e+02    3.4735992432e+01
    2.8610736084e+02    3.4723999023e+01
    2.8620773315e+02    3.4712005615e+01
    2.8630636597e+02    3.4701019287e+01
    2.8640740967e+02    3.4688995361e+01
    2.8650643921e+02    3.4678009033e+01
    2.8660733032e+02    3.4665985107e+01
    2.8670697021e+02    3.4654998779e+01
    2.8680743408e+02    3.4643005371e+01
    2.8690643311e+02    3.4631988525e+01
    2.8700750732e+02    3.4621002197e+01
    2.8710684204e+02    3.4609008789e+01
    2.8720819092e+02    3.4597961426e+01
    2.8730728149e+02    3.4587005615e+01
    2.8740823364e+02    3.4575012207e+01
    2.8750680542e+02    3.4564025879e+01
    2.8760675049e+02    3.4552001953e+01
    2.8770803833e+02    3.4541015625e+01
    2.8780688477e+02    3.4529022217e+01
    2.8790673828e+02    3.4516998291e+01
    2.8800646973e+02    3.4503967285e+01
    2.8810745239e+02    3.4492034912e+01
    2.8820788574e+02    3.4479003906e+01
    2.8830773926e+02    3.4466979980e+01
    2.8840792847e+02    3.4451995850e+01
    2.8850833130e+02    3.4438964844e+01
    2.8860812378e+02    3.4425994873e+01
    2.8870642090e+02    3.4410980225e+01
    2.8880813599e+02    3.4397003174e+01
    2.8890820312e+02    3.4382995605e+01
    2.8900823975e+02    3.4368041992e+01
    2.8910839844e+02    3.4354034424e+01
    2.8920666504e+02    3.4339996338e+01
    2.8930700684e+02    3.4324981689e+01
    2.8940750122e+02    3.4310974121e+01
    2.8950805664e+02    3.4296020508e+01
    2.8960668945e+02    3.4283020020e+01
    2.8970739746e+02    3.4270019531e+01
    2.8980645752e+02    3.4256011963e+01
    2.8990792847e+02    3.4242980957e+01
    2.9000839233e+02    3.4228973389e+01
    2.9010681152e+02    3.4212036133e+01
    2.9020709229e+02    3.4195037842e+01
    2.9030654907e+02    3.4176971436e+01
    2.9040695190e+02    3.4161010742e+01
    2.9050790405e+02    3.4144012451e+01
    2.9060736084e+02    3.4128021240e+01
    2.9070761108e+02    3.4111999512e+01
    2.9080831909e+02    3.4096008301e+01
    2.9090692139e+02    3.4079986572e+01
    2.9100756836e+02    3.4064971924e+01
    2.9110671997e+02    3.4049987793e+01
    2.9120782471e+02    3.4033996582e+01
    2.9130691528e+02    3.4020019531e+01
    2.9140689087e+02    3.4004974365e+01
    2.9150781250e+02    3.3989990234e+01
    2.9160760498e+02    3.3976013184e+01
    2.9170739746e+02    3.3962036133e+01
    2.9180722046e+02    3.3947021484e+01
    2.9190710449e+02    3.3933959961e+01
    2.9200714111e+02    3.3921020508e+01
    2.9210733032e+02    3.3907043457e+01
    2.9220767212e+02    3.3894012451e+01
    2.9230813599e+02    3.3881011963e+01
    2.9240673828e+02    3.3867980957e+01
    2.9250747681e+02    3.3856018066e+01
    2.9260830688e+02    3.3844024658e+01
    2.9270724487e+02    3.3831024170e+01
    2.9280819702e+02    3.3820007324e+01
    2.9290716553e+02    3.3807983398e+01
    2.9300814819e+02    3.3795989990e+01
    2.9310708618e+02    3.3786010742e+01
    2.9320797729e+02    3.3774017334e+01
    2.9330688477e+02    3.3764007568e+01
    2.9340792847e+02    3.3753997803e+01
    2.9350708008e+02    3.3743988037e+01
    2.9360681152e+02    3.3732971191e+01
    2.9370809937e+02    3.3723022461e+01
    2.9380709839e+02    3.3712982178e+01
    2.9390829468e+02    3.3703033447e+01
    2.9400750732e+02    3.3694030762e+01
    2.9410781860e+02    3.3684020996e+01
    2.9420690918e+02    3.3673004150e+01
    2.9430728149e+02    3.3663970947e+01
    2.9440774536e+02    3.3653991699e+01
    2.9450701904e+02    3.3644012451e+01
    2.9460821533e+02    3.3634002686e+01
    2.9470837402e+02    3.3622985840e+01
    2.9480822754e+02    3.3611999512e+01
    2.9490808105e+02    3.3601013184e+01
    2.9500784302e+02    3.3591033936e+01
    2.9510736084e+02    3.3580017090e+01
    2.9520736694e+02    3.3567962646e+01
    2.9530764771e+02    3.3556976318e+01
    2.9540783691e+02    3.3545043945e+01
    2.9550765991e+02    3.3533996582e+01
    2.9560717773e+02    3.3521972656e+01
    2.9570880127e+02    3.3510009766e+01
    2.9580850220e+02    3.3498016357e+01
    2.9590832520e+02    3.3485992432e+01
    2.9600817871e+02    3.3474029541e+01
    2.9610803223e+02    3.3461975098e+01
    2.9620809937e+02    3.3450988770e+01
    2.9630816650e+02    3.3438995361e+01
    2.9640826416e+02    3.3429016113e+01
    2.9650823975e+02    3.3417022705e+01
    2.9660861206e+02    3.3407012939e+01
    2.9670706177e+02    3.3396026611e+01
    2.9680883789e+02    3.3385009766e+01
    2.9690704346e+02    3.3375000000e+01
    2.9700775146e+02    3.3365020752e+01
    2.9710678101e+02    3.3353973389e+01
    2.9720785522e+02    3.3343963623e+01
    2.9730856323e+02    3.3334991455e+01
    2.9740753174e+02    3.3325012207e+01
    2.9750869751e+02    3.3315002441e+01
    2.9760809326e+02    3.3304016113e+01
    2.9770758057e+02    3.3294006348e+01
    2.9780734253e+02    3.3283996582e+01
    2.9790859985e+02    3.3273986816e+01
    2.9800842285e+02    3.3263000488e+01
    2.9810824585e+02    3.3252990723e+01
    2.9820803833e+02    3.3243041992e+01
    2.9830786133e+02    3.3232971191e+01
    2.9840771484e+02    3.3223022461e+01
    2.9850808716e+02    3.3212036133e+01
    2.9860876465e+02    3.3202026367e+01
    2.9870733643e+02    3.3190979004e+01
    2.9880752563e+02    3.3180969238e+01
    2.9890786743e+02    3.3171997070e+01
    2.9900839233e+02    3.3161987305e+01
    2.9910711670e+02    3.3152954102e+01
    2.9920806885e+02    3.3143005371e+01
    2.9930715942e+02    3.3135009766e+01
    2.9940832520e+02    3.3125976562e+01
    2.9950738525e+02    3.3117004395e+01
    2.9960839844e+02    3.3109985352e+01
    2.9970730591e+02    3.3101013184e+01
    2.9980822754e+02    3.3094970703e+01
    2.9990829468e+02    3.3087036133e+01
endcurve
