Curveplot
LS-DYNA keyword deck by LS-PrePost
Time
Yrot-displ
Rigid Body Ids
300001 #pts=1800
* Minval=    -1.4965660095e+02 at time=       113.6970977783
* Maxval=     1.7113862850e-04 at time=         6.4993100166
    0.0000000000e+00   -6.9835664362e-08
    9.9246442318e-02   -8.2660868372e-08
    1.9856490195e-01   -9.5034351943e-08
    2.9859781265e-01   -1.0617461754e-07
    3.9877140522e-01   -1.1512928211e-07
    4.9907830358e-01   -1.2077329359e-07
    5.9938561916e-01   -1.2181563136e-07
    6.9791740179e-01   -1.1681675005e-07
    7.9933381081e-01   -1.0421893393e-07
    8.9853578806e-01   -8.2391728995e-08
    9.9920147657e-01   -4.9693543502e-08
    1.0991330147e+00   -4.5505550439e-09
    1.1996819973e+00    5.4442388375e-08
    1.2979810238e+00    1.2839352337e-07
    1.3983999491e+00    2.1796114424e-07
    1.4988210201e+00    3.2318433796e-07
    1.5994850397e+00    4.4330133164e-07
    1.6986310482e+00    5.7655256569e-07
    1.7991559505e+00    7.1996777251e-07
    1.8999429941e+00    8.6914690201e-07
    1.9999560118e+00    1.0180515346e-06
    2.0989670753e+00    1.1588284679e-06
    2.1984651089e+00    1.2816794879e-06
    2.2993381023e+00    1.3747924186e-06
    2.3997049332e+00    1.4243464648e-06
    2.4994180202e+00    1.4146147578e-06
    2.5995149612e+00    1.3281899101e-06
    2.6993510723e+00    1.1463630472e-06
    2.7999179363e+00    8.4969229874e-07
    2.8994810581e+00    4.1880446133e-07
    2.9997739792e+00   -1.6452774787e-07
    3.0996809006e+00   -9.1599747520e-07
    3.1992030144e+00   -1.8470634586e-06
    3.2985870838e+00   -2.9629838991e-06
    3.3982028961e+00   -4.2606811803e-06
    3.4988169670e+00   -5.7265751821e-06
    3.5989189148e+00   -7.3345399869e-06
    3.6990060806e+00   -9.0441417342e-06
    3.7995710373e+00   -1.0799310076e-05
    3.8997480869e+00   -1.2527588297e-05
    3.9987740517e+00   -1.4140075109e-05
    4.0987939835e+00   -1.5532168618e-05
    4.1995382309e+00   -1.6585139747e-05
    4.2995219231e+00   -1.7168558770e-05
    4.3994889259e+00   -1.7143582227e-05
    4.4996838570e+00   -1.6366975615e-05
    4.5982341766e+00   -1.4695860045e-05
    4.6981449127e+00   -1.1993063708e-05
    4.7980389595e+00   -8.1329881141e-06
    4.8999099731e+00   -3.0078495001e-06
    4.9997639656e+00    3.4658617096e-06
    5.0995998383e+00    1.1340799574e-05
    5.1994152069e+00    2.0632136511e-05
    5.2992110252e+00    3.1310955819e-05
    5.3989858627e+00    4.3297775846e-05
    5.4987430573e+00    5.6456283346e-05
    5.5984787941e+00    7.0587368100e-05
    5.6981959343e+00    8.5423467681e-05
    5.7998890877e+00    1.0062337242e-04
    5.8995699883e+00    1.1576751422e-04
    5.9992318153e+00    1.3035377197e-04
    6.0988788605e+00    1.4379374625e-04
    6.1985101700e+00    1.5540957975e-04
    6.2981271744e+00    1.6443122877e-04
    6.3997211456e+00    1.6999433865e-04
    6.4993100166e+00    1.7113862850e-04
    6.5988869667e+00    1.6680671251e-04
    6.6984519958e+00    1.5584338689e-04
    6.7980070114e+00    1.3699542615e-04
    6.8995409012e+00    1.0891180136e-04
    6.9990739822e+00    7.0143811172e-05
    7.0985980034e+00    1.9145409169e-05
    7.1981120110e+00   -4.5726061217e-05
    7.2996082306e+00   -1.2620868802e-04
    7.3991060257e+00   -2.2413523402e-04
    7.4985938072e+00   -3.4143272205e-04
    7.5980758667e+00   -4.8012146726e-04
    7.6995401382e+00   -6.4231338911e-04
    7.7990069389e+00   -8.3021167666e-04
    7.8984680176e+00   -1.0461112252e-03
    7.9999108315e+00   -1.2923988979e-03
    8.0993604660e+00   -1.5715545742e-03
    8.1988029480e+00   -1.8861538265e-03
    8.2982416153e+00   -2.2388680372e-03
    8.3996639252e+00   -2.6324635837e-03
    8.4990940094e+00   -3.0698035844e-03
    8.5985212326e+00   -3.5538505763e-03
    8.6999349594e+00   -4.0876674466e-03
    8.7993574142e+00   -4.6744178981e-03
    8.8987789154e+00   -5.3173718043e-03
    8.9981994629e+00   -6.0198968276e-03
    9.0996046066e+00   -6.7854565568e-03
    9.1990222931e+00   -7.6176025905e-03
    9.2984399796e+00   -8.5199736059e-03
    9.3998451233e+00   -9.4962911680e-03
    9.4992628098e+00   -1.0550351813e-02
    9.5986795425e+00   -1.1686026119e-02
    9.6980972290e+00   -1.2907247059e-02
    9.7995042801e+00   -1.4217986725e-02
    9.8989229202e+00   -1.5622252598e-02
    9.9983434677e+00   -1.7124073580e-02
    1.0099749565e+01   -1.8727492541e-02
    1.0199170113e+01   -2.0436558872e-02
    1.0298589706e+01   -2.2255314514e-02
    1.0399999619e+01   -2.4187795818e-02
    1.0499420166e+01   -2.6238013059e-02
    1.0598830223e+01   -2.8409956023e-02
    1.0698249817e+01   -3.0707579106e-02
    1.0799650192e+01   -3.3134769648e-02
    1.0899049759e+01   -3.5695347935e-02
    1.0998450279e+01   -3.8393061608e-02
    1.1099840164e+01   -4.1231572628e-02
    1.1199219704e+01   -4.4214479625e-02
    1.1298600197e+01   -4.7345299274e-02
    1.1399950027e+01   -5.0627481192e-02
    1.1499309540e+01   -5.4064400494e-02
    1.1598649979e+01   -5.7659365237e-02
    1.1699970245e+01   -6.1415627599e-02
    1.1799280167e+01   -6.5336368978e-02
    1.1898579597e+01   -6.9424718618e-02
    1.1999839783e+01   -7.3683761060e-02
    1.2099100113e+01   -7.8116506338e-02
    1.2198349953e+01   -8.2725934684e-02
    1.2299559593e+01   -8.7514959276e-02
    1.2398759842e+01   -9.2486418784e-02
    1.2499919891e+01   -9.7643122077e-02
    1.2599080086e+01   -1.0298784077e-01
    1.2698220253e+01   -1.0852333158e-01
    1.2799309731e+01   -1.1425229162e-01
    1.2898400307e+01   -1.2017738074e-01
    1.2999440193e+01   -1.2630116940e-01
    1.3098469734e+01   -1.3262619078e-01
    1.3199449539e+01   -1.3915488124e-01
    1.3298419952e+01   -1.4588969946e-01
    1.3399339676e+01   -1.5283301473e-01
    1.3498250008e+01   -1.5998716652e-01
    1.3599109650e+01   -1.6735440493e-01
    1.3699930191e+01   -1.7493695021e-01
    1.3798729897e+01   -1.8273703754e-01
    1.3899479866e+01   -1.9075685740e-01
    1.3998209953e+01   -1.9899864495e-01
    1.4098879814e+01   -2.0746457577e-01
    1.4199509621e+01   -2.1615679562e-01
    1.4298119545e+01   -2.2507734597e-01
    1.4398670197e+01   -2.3422828317e-01
    1.4499170303e+01   -2.4361152947e-01
    1.4599630356e+01   -2.5322896242e-01
    1.4698080063e+01   -2.6308241487e-01
    1.4798450470e+01   -2.7317371964e-01
    1.4898770332e+01   -2.8350460529e-01
    1.4999050140e+01   -2.9407665133e-01
    1.5099289894e+01   -3.0489134789e-01
    1.5199480057e+01   -3.1595024467e-01
    1.5299630165e+01   -3.2725480199e-01
    1.5399729729e+01   -3.3880668879e-01
    1.5499779701e+01   -3.5060766339e-01
    1.5599800110e+01   -3.6265963316e-01
    1.5699769974e+01   -3.7496474385e-01
    1.5799699783e+01   -3.8752523065e-01
    1.5899589539e+01   -4.0034362674e-01
    1.5999449730e+01   -4.1342267394e-01
    1.6099260330e+01   -4.2676517367e-01
    1.6199039459e+01   -4.4037410617e-01
    1.6298780441e+01   -4.5425260067e-01
    1.6398490906e+01   -4.6840369701e-01
    1.6498170853e+01   -4.8283046484e-01
    1.6599760056e+01   -4.9753579497e-01
    1.6699369431e+01   -5.1252257824e-01
    1.6798959732e+01   -5.2779376507e-01
    1.6898509979e+01   -5.4335242510e-01
    1.6999990463e+01   -5.5920171738e-01
    1.7099479675e+01   -5.7534480095e-01
    1.7198959351e+01   -5.9178495407e-01
    1.7298400879e+01   -6.0852575302e-01
    1.7399770737e+01   -6.2557077408e-01
    1.7499170303e+01   -6.4292377234e-01
    1.7598550797e+01   -6.6058850288e-01
    1.7699850082e+01   -6.7856889963e-01
    1.7799179077e+01   -6.9686883688e-01
    1.7898490906e+01   -7.1549236774e-01
    1.7999729156e+01   -7.3444384336e-01
    1.8099000931e+01   -7.5372755527e-01
    1.8198249817e+01   -7.7334767580e-01
    1.8299430847e+01   -7.9330873489e-01
    1.8398639679e+01   -8.1361502409e-01
    1.8499790192e+01   -8.3427089453e-01
    1.8598970413e+01   -8.5528093576e-01
    1.8698139191e+01   -8.7664955854e-01
    1.8799230576e+01   -8.9838159084e-01
    1.8898370743e+01   -9.2048138380e-01
    1.8999439240e+01   -9.4295352697e-01
    1.9098550797e+01   -9.6580225229e-01
    1.9199600220e+01   -9.8903208971e-01
    1.9298690796e+01   -1.0126473904e+00
    1.9399709702e+01   -1.0366526842e+00
    1.9498779297e+01   -1.0610524416e+00
    1.9599779129e+01   -1.0858513117e+00
    1.9698829651e+01   -1.1110540628e+00
    1.9799810410e+01   -1.1366653442e+00
    1.9898839951e+01   -1.1626904011e+00
    1.9999799728e+01   -1.1891341209e+00
    2.0098810196e+01   -1.2160015106e+00
    2.0199750900e+01   -1.2432980537e+00
    2.0298730850e+01   -1.2710286379e+00
    2.0399650574e+01   -1.2991988659e+00
    2.0498609543e+01   -1.3278137445e+00
    2.0599500656e+01   -1.3568783998e+00
    2.0698429108e+01   -1.3863981962e+00
    2.0799280167e+01   -1.4163781404e+00
    2.0898180008e+01   -1.4468232393e+00
    2.0999000549e+01   -1.4777381420e+00
    2.1099800110e+01   -1.5091272593e+00
    2.1198640823e+01   -1.5409948826e+00
    2.1299400330e+01   -1.5733453035e+00
    2.1398189545e+01   -1.6061829329e+00
    2.1498899460e+01   -1.6395119429e+00
    2.1599580765e+01   -1.6733365059e+00
    2.1698289871e+01   -1.7076600790e+00
    2.1798910141e+01   -1.7424864769e+00
    2.1899509430e+01   -1.7778192759e+00
    2.1998130798e+01   -1.8136616945e+00
    2.2098659515e+01   -1.8500167131e+00
    2.2199150085e+01   -1.8868873119e+00
    2.2299610138e+01   -1.9242756367e+00
    2.2400030136e+01   -1.9621845484e+00
    2.2498479843e+01   -2.0006165504e+00
    2.2598829269e+01   -2.0395746231e+00
    2.2699140549e+01   -2.0790615082e+00
    2.2799409866e+01   -2.1190803051e+00
    2.2899639130e+01   -2.1596333981e+00
    2.2999820709e+01   -2.2007236481e+00
    2.3099969864e+01   -2.2423546314e+00
    2.3198150635e+01   -2.2845301628e+00
    2.3298210144e+01   -2.3272538185e+00
    2.3398229599e+01   -2.3705296516e+00
    2.3498199463e+01   -2.4143602848e+00
    2.3600009918e+01   -2.4587478638e+00
    2.3699789047e+01   -2.5036940575e+00
    2.3799459457e+01   -2.5492010117e+00
    2.3899040222e+01   -2.5952706337e+00
    2.3998510361e+01   -2.6419060230e+00
    2.4099790573e+01   -2.6891100407e+00
    2.4199060440e+01   -2.7368857861e+00
    2.4298229218e+01   -2.7852354050e+00
    2.4399200439e+01   -2.8341624737e+00
    2.4498170853e+01   -2.8836693764e+00
    2.4598949432e+01   -2.9337580204e+00
    2.4699619293e+01   -2.9844300747e+00
    2.4798290253e+01   -3.0356872082e+00
    2.4898759842e+01   -3.0875306129e+00
    2.4999130249e+01   -3.1399610043e+00
    2.5099390030e+01   -3.1929795742e+00
    2.5199560165e+01   -3.2465865612e+00
    2.5299619675e+01   -3.3007829189e+00
    2.5399570465e+01   -3.3555703163e+00
    2.5499429703e+01   -3.4109501839e+00
    2.5599170685e+01   -3.4669251442e+00
    2.5698810577e+01   -3.5234975815e+00
    2.5798330307e+01   -3.5806701183e+00
    2.5899620056e+01   -3.6384446621e+00
    2.5998920441e+01   -3.6968233585e+00
    2.6099979401e+01   -3.7558076382e+00
    2.6199050903e+01   -3.8153996468e+00
    2.6299860001e+01   -3.8756015301e+00
    2.6398689270e+01   -3.9364163876e+00
    2.6499250412e+01   -3.9978470802e+00
    2.6599679947e+01   -4.0598964691e+00
    2.6699989319e+01   -4.1225686073e+00
    2.6798299789e+01   -4.1858663559e+00
    2.6898340225e+01   -4.2497954369e+00
    2.6998229980e+01   -4.3143587112e+00
    2.7099840164e+01   -4.3795604706e+00
    2.7199449539e+01   -4.4454026222e+00
    2.7298929214e+01   -4.5118885040e+00
    2.7398250580e+01   -4.5790214539e+00
    2.7499269485e+01   -4.6468043327e+00
    2.7598300934e+01   -4.7152404785e+00
    2.7699010849e+01   -4.7843322754e+00
    2.7799570084e+01   -4.8540816307e+00
    2.7899969101e+01   -4.9244909286e+00
    2.7998380661e+01   -4.9955625534e+00
    2.8098459244e+01   -5.0672993660e+00
    2.8198389053e+01   -5.1397037506e+00
    2.8299959183e+01   -5.2127776146e+00
    2.8399549484e+01   -5.2865223885e+00
    2.8498979568e+01   -5.3609404564e+00
    2.8600049973e+01   -5.4360337257e+00
    2.8699150085e+01   -5.5118060112e+00
    2.8799879074e+01   -5.5882596970e+00
    2.8898639679e+01   -5.6654005051e+00
    2.8999029160e+01   -5.7432332039e+00
    2.9099239349e+01   -5.8217616081e+00
    2.9199279785e+01   -5.9009904861e+00
    2.9299140930e+01   -5.9809241295e+00
    2.9398830414e+01   -6.0615663528e+00
    2.9498340607e+01   -6.1429214478e+00
    2.9599449158e+01   -6.2249922752e+00
    2.9698600769e+01   -6.3077816963e+00
    2.9799350739e+01   -6.3912920952e+00
    2.9899900436e+01   -6.4755272865e+00
    2.9998519897e+01   -6.5604901314e+00
    3.0098720551e+01   -6.6461839676e+00
    3.0198740005e+01   -6.7326130867e+00
    3.0298570633e+01   -6.8197803497e+00
    3.0399980545e+01   -6.9076881409e+00
    3.0499460220e+01   -6.9963378906e+00
    3.0598760605e+01   -7.0857329369e+00
    3.0699630737e+01   -7.1758761406e+00
    3.0798580170e+01   -7.2667703629e+00
    3.0899089813e+01   -7.3584184647e+00
    3.0999429703e+01   -7.4508223534e+00
    3.1099599838e+01   -7.5439844131e+00
    3.1199600220e+01   -7.6379079819e+00
    3.1299430847e+01   -7.7325959206e+00
    3.1399110794e+01   -7.8280515671e+00
    3.1498619080e+01   -7.9242792130e+00
    3.1599679947e+01   -8.0212802887e+00
    3.1698879242e+01   -8.1190576553e+00
    3.1799629211e+01   -8.2176132202e+00
    3.1898529053e+01   -8.3169488907e+00
    3.1998979568e+01   -8.4170665741e+00
    3.2099288940e+01   -8.5179672241e+00
    3.2199451447e+01   -8.6196508408e+00
    3.2299468994e+01   -8.7221193314e+00
    3.2399349213e+01   -8.8253726959e+00
    3.2499088287e+01   -8.9294118881e+00
    3.2598709106e+01   -9.0342407227e+00
    3.2699871063e+01   -9.1398582458e+00
    3.2799228668e+01   -9.2462692261e+00
    3.2898460388e+01   -9.3534717560e+00
    3.2999248505e+01   -9.4614686966e+00
    3.3099918365e+01   -9.5702590942e+00
    3.3198791504e+01   -9.6798439026e+00
    3.3299221039e+01   -9.7902221680e+00
    3.3399539948e+01   -9.9013929367e+00
    3.3499740601e+01   -1.0013354301e+01
    3.3599830627e+01   -1.0126106262e+01
    3.3699810028e+01   -1.0239646912e+01
    3.3799678802e+01   -1.0353978157e+01
    3.3899440765e+01   -1.0469100952e+01
    3.3999099731e+01   -1.0585016251e+01
    3.4098659515e+01   -1.0701728821e+01
    3.4199779510e+01   -1.0819238663e+01
    3.4299140930e+01   -1.0937548637e+01
    3.4398399353e+01   -1.1056660652e+01
    3.4499229431e+01   -1.1176576614e+01
    3.4599948883e+01   -1.1297294617e+01
    3.4698940277e+01   -1.1418814659e+01
    3.4799480438e+01   -1.1541136742e+01
    3.4899940491e+01   -1.1664260864e+01
    3.4998661041e+01   -1.1788186073e+01
    3.5098930359e+01   -1.1912915230e+01
    3.5199131012e+01   -1.2038447380e+01
    3.5299228668e+01   -1.2164783478e+01
    3.5399250031e+01   -1.2291924477e+01
    3.5499191284e+01   -1.2419867516e+01
    3.5599040985e+01   -1.2548612595e+01
    3.5698818207e+01   -1.2678158760e+01
    3.5798511505e+01   -1.2808506012e+01
    3.5899749756e+01   -1.2939651489e+01
    3.5999279022e+01   -1.3071593285e+01
    3.6098720551e+01   -1.3204331398e+01
    3.6199718475e+01   -1.3337862968e+01
    3.6298999786e+01   -1.3472187042e+01
    3.6399818420e+01   -1.3607302666e+01
    3.6498939514e+01   -1.3743208885e+01
    3.6599590302e+01   -1.3879907608e+01
    3.6698528290e+01   -1.4017398834e+01
    3.6799011230e+01   -1.4155681610e+01
    3.6899398804e+01   -1.4294757843e+01
    3.6999710083e+01   -1.4434625626e+01
    3.7099929810e+01   -1.4575285912e+01
    3.7198440552e+01   -1.4716740608e+01
    3.7298480988e+01   -1.4858991623e+01
    3.7398441315e+01   -1.5002038956e+01
    3.7499908447e+01   -1.5145882607e+01
    3.7599689484e+01   -1.5290519714e+01
    3.7699378967e+01   -1.5435950279e+01
    3.7798980713e+01   -1.5582175255e+01
    3.7898490906e+01   -1.5729194641e+01
    3.7999519348e+01   -1.5877008438e+01
    3.8098850250e+01   -1.6025615692e+01
    3.8199691772e+01   -1.6175016403e+01
    3.8298851013e+01   -1.6325208664e+01
    3.8399509430e+01   -1.6476190567e+01
    3.8498489380e+01   -1.6627964020e+01
    3.8598968506e+01   -1.6780525208e+01
    3.8699359894e+01   -1.6933874130e+01
    3.8799671173e+01   -1.7088006973e+01
    3.8899879456e+01   -1.7242923737e+01
    3.8998409271e+01   -1.7398624420e+01
    3.9098438263e+01   -1.7555103302e+01
    3.9199970245e+01   -1.7712364197e+01
    3.9299819946e+01   -1.7870399475e+01
    3.9399578094e+01   -1.8029212952e+01
    3.9499259949e+01   -1.8188800812e+01
    3.9598850250e+01   -1.8349164963e+01
    3.9699928284e+01   -1.8510303497e+01
    3.9799339294e+01   -1.8672218323e+01
    3.9898670197e+01   -1.8834909439e+01
    3.9999500275e+01   -1.8998376846e+01
    4.0098659515e+01   -1.9162624359e+01
    4.0199310303e+01   -1.9327650070e+01
    4.0299888611e+01   -1.9493453979e+01
    4.0398811340e+01   -1.9660036087e+01
    4.0499221802e+01   -1.9827398300e+01
    4.0599548340e+01   -1.9995538712e+01
    4.0699798584e+01   -2.0164457321e+01
    4.0798419952e+01   -2.0334159851e+01
    4.0898529053e+01   -2.0504646301e+01
    4.0998561859e+01   -2.0675916672e+01
    4.1098529816e+01   -2.0847974777e+01
    4.1198429108e+01   -2.1020814896e+01
    4.1299831390e+01   -2.1194433212e+01
    4.1399608612e+01   -2.1368822098e+01
    4.1499328613e+01   -2.1543981552e+01
    4.1598999023e+01   -2.1719905853e+01
    4.1698608398e+01   -2.1896593094e+01
    4.1799728394e+01   -2.2074041367e+01
    4.1899250031e+01   -2.2252252579e+01
    4.1998729706e+01   -2.2431219101e+01
    4.2099720001e+01   -2.2610946655e+01
    4.2199119568e+01   -2.2791431427e+01
    4.2298500061e+01   -2.2972673416e+01
    4.2399391174e+01   -2.3154672623e+01
    4.2498710632e+01   -2.3337427139e+01
    4.2599559784e+01   -2.3520933151e+01
    4.2698841095e+01   -2.3705188751e+01
    4.2799659729e+01   -2.3890190125e+01
    4.2898910522e+01   -2.4075931549e+01
    4.2999710083e+01   -2.4262409210e+01
    4.3098949432e+01   -2.4449621201e+01
    4.3199748993e+01   -2.4637559891e+01
    4.3298988342e+01   -2.4826223373e+01
    4.3399791718e+01   -2.5015607834e+01
    4.3499050140e+01   -2.5205711365e+01
    4.3599861145e+01   -2.5396533966e+01
    4.3699150085e+01   -2.5588069916e+01
    4.3798450470e+01   -2.5780323029e+01
    4.3899318695e+01   -2.5973291397e+01
    4.3998668671e+01   -2.6166975021e+01
    4.4099601746e+01   -2.6361370087e+01
    4.4199008942e+01   -2.6556474686e+01
    4.4298450470e+01   -2.6752286911e+01
    4.4399478912e+01   -2.6948801041e+01
    4.4499000549e+01   -2.7146017075e+01
    4.4598560333e+01   -2.7343927383e+01
    4.4699729919e+01   -2.7542531967e+01
    4.4799388885e+01   -2.7741823196e+01
    4.4899089813e+01   -2.7941799164e+01
    4.4998859406e+01   -2.8142461777e+01
    4.5098670959e+01   -2.8343807220e+01
    4.5198551178e+01   -2.8545839310e+01
    4.5298488617e+01   -2.8748554230e+01
    4.5398490906e+01   -2.8951951981e+01
    4.5498550415e+01   -2.9156028748e+01
    4.5598690033e+01   -2.9360778809e+01
    4.5698890686e+01   -2.9566194534e+01
    4.5799160004e+01   -2.9772274017e+01
    4.5899501801e+01   -2.9979009628e+01
    4.5998340607e+01   -3.0186393738e+01
    4.6098831177e+01   -3.0394426346e+01
    4.6199390411e+01   -3.0603105545e+01
    4.6298450470e+01   -3.0812423706e+01
    4.6399158478e+01   -3.1022380829e+01
    4.6498371124e+01   -3.1232971191e+01
    4.6599220276e+01   -3.1444189072e+01
    4.6698581696e+01   -3.1656032562e+01
    4.6799591064e+01   -3.1868494034e+01
    4.6899089813e+01   -3.2081565857e+01
    4.6998661041e+01   -3.2295249939e+01
    4.7098308563e+01   -3.2509536743e+01
    4.7199619293e+01   -3.2724418640e+01
    4.7299411774e+01   -3.2939895630e+01
    4.7399280548e+01   -3.3155952454e+01
    4.7499210358e+01   -3.3372592926e+01
    4.7599220276e+01   -3.3589813232e+01
    4.7699291229e+01   -3.3807609558e+01
    4.7799430847e+01   -3.4025978088e+01
    4.7899639130e+01   -3.4244918823e+01
    4.7998321533e+01   -3.4464427948e+01
    4.8098659515e+01   -3.4684509277e+01
    4.8199058533e+01   -3.4905158997e+01
    4.8299518585e+01   -3.5126373291e+01
    4.8398460388e+01   -3.5348152161e+01
    4.8499050140e+01   -3.5570491791e+01
    4.8599700928e+01   -3.5793384552e+01
    4.8698810577e+01   -3.6016830444e+01
    4.8799591064e+01   -3.6240818024e+01
    4.8898818970e+01   -3.6465347290e+01
    4.8999710083e+01   -3.6690414429e+01
    4.9099060059e+01   -3.6916015625e+01
    4.9198471069e+01   -3.7142147064e+01
    4.9299549103e+01   -3.7368808746e+01
    4.9399078369e+01   -3.7595996857e+01
    4.9498661041e+01   -3.7823707581e+01
    4.9598308563e+01   -3.8051937103e+01
    4.9699619293e+01   -3.8280670166e+01
    4.9799388885e+01   -3.8509914398e+01
    4.9899211884e+01   -3.8739654541e+01
    4.9999080658e+01   -3.8969886780e+01
    5.0099018097e+01   -3.9200607300e+01
    5.0199008942e+01   -3.9431816101e+01
    5.0299060822e+01   -3.9663513184e+01
    5.0399169922e+01   -3.9895690918e+01
    5.0499328613e+01   -4.0128345490e+01
    5.0599540710e+01   -4.0361476898e+01
    5.0698200226e+01   -4.0595088959e+01
    5.0798530579e+01   -4.0829181671e+01
    5.0898910522e+01   -4.1063758850e+01
    5.0999359131e+01   -4.1298816681e+01
    5.1098228455e+01   -4.1534351349e+01
    5.1198780060e+01   -4.1770362854e+01
    5.1299381256e+01   -4.2006843567e+01
    5.1398418427e+01   -4.2243797302e+01
    5.1499130249e+01   -4.2481216431e+01
    5.1598281860e+01   -4.2719093323e+01
    5.1699100494e+01   -4.2957431793e+01
    5.1798358917e+01   -4.3196220398e+01
    5.1899311066e+01   -4.3435455322e+01
    5.1998680115e+01   -4.3675121307e+01
    5.2099750519e+01   -4.3915214539e+01
    5.2199249268e+01   -4.4155723572e+01
    5.2298809052e+01   -4.4396644592e+01
    5.2398441315e+01   -4.4637966156e+01
    5.2499771118e+01   -4.4879688263e+01
    5.2599529266e+01   -4.5121795654e+01
    5.2699359894e+01   -4.5364288330e+01
    5.2799259186e+01   -4.5607158661e+01
    5.2899238586e+01   -4.5850402832e+01
    5.2999290466e+01   -4.6094020844e+01
    5.3099430084e+01   -4.6338012695e+01
    5.3199638367e+01   -4.6582382202e+01
    5.3298290253e+01   -4.6827129364e+01
    5.3398670197e+01   -4.7072261810e+01
    5.3498180389e+01   -4.7317783356e+01
    5.3598350525e+01   -4.7563697815e+01
    5.3698719025e+01   -4.7810001373e+01
    5.3798149109e+01   -4.8056686401e+01
    5.3898948669e+01   -4.8303756714e+01
    5.3999160767e+01   -4.8551193237e+01
    5.4098209381e+01   -4.8798995972e+01
    5.4199150085e+01   -4.9047153473e+01
    5.4298500061e+01   -4.9295658112e+01
    5.4399211884e+01   -4.9544498444e+01
    5.4499698639e+01   -4.9793666840e+01
    5.4598640442e+01   -5.0043155670e+01
    5.4699321747e+01   -5.0292961121e+01
    5.4798561096e+01   -5.0543075562e+01
    5.4899028778e+01   -5.0793498993e+01
    5.4999511719e+01   -5.1044223785e+01
    5.5098308563e+01   -5.1295249939e+01
    5.5198410034e+01   -5.1546577454e+01
    5.5298988342e+01   -5.1798194885e+01
    5.5399360657e+01   -5.2050102234e+01
    5.5499401093e+01   -5.2302295685e+01
    5.5598300934e+01   -5.2554767609e+01
    5.5698638916e+01   -5.2807521820e+01
    5.5798641205e+01   -5.3060546875e+01
    5.5899471283e+01   -5.3313846588e+01
    5.5998519897e+01   -5.3567405701e+01
    5.6098461151e+01   -5.3821220398e+01
    5.6199420929e+01   -5.4075286865e+01
    5.6298500061e+01   -5.4329601288e+01
    5.6398029327e+01   -5.4584152222e+01
    5.6499660492e+01   -5.4838928223e+01
    5.6599498749e+01   -5.5093921661e+01
    5.6699569702e+01   -5.5349124908e+01
    5.6799480438e+01   -5.5604530334e+01
    5.6899219513e+01   -5.5860134125e+01
    5.6998760223e+01   -5.6115943909e+01
    5.7098129272e+01   -5.6371952057e+01
    5.7198120117e+01   -5.6628166199e+01
    5.7298721313e+01   -5.6884582520e+01
    5.7398998260e+01   -5.7141197205e+01
    5.7498710632e+01   -5.7398002625e+01
    5.7598609924e+01   -5.7654994965e+01
    5.7699459076e+01   -5.7912174225e+01
    5.7799430847e+01   -5.8169528961e+01
    5.7898208618e+01   -5.8427059174e+01
    5.7999328613e+01   -5.8684772491e+01
    5.8099060059e+01   -5.8942653656e+01
    5.8198001862e+01   -5.9200706482e+01
    5.8298419952e+01   -5.9458934784e+01
    5.8398628235e+01   -5.9717338562e+01
    5.8498088837e+01   -5.9975910187e+01
    5.8598270416e+01   -6.0234645844e+01
    5.8698768616e+01   -6.0493530273e+01
    5.8799049377e+01   -6.0752552032e+01
    5.8898658752e+01   -6.1011699677e+01
    5.8999240875e+01   -6.1270961761e+01
    5.9098419189e+01   -6.1530319214e+01
    5.9198890686e+01   -6.1789764404e+01
    5.9297958374e+01   -6.2049285889e+01
    5.9399070740e+01   -6.2308868408e+01
    5.9499111176e+01   -6.2568508148e+01
    5.9598400116e+01   -6.2828193665e+01
    5.9699619293e+01   -6.3087921143e+01
    5.9799549103e+01   -6.3347686768e+01
    5.9898410797e+01   -6.3607490540e+01
    5.9998039246e+01   -6.3867332458e+01
    6.0098510742e+01   -6.4127220154e+01
    6.0199008942e+01   -6.4387145996e+01
    6.0298118591e+01   -6.4647125244e+01
    6.0398620605e+01   -6.4907157898e+01
    6.0498088837e+01   -6.5167228699e+01
    6.0597888947e+01   -6.5427345276e+01
    6.0698020935e+01   -6.5687500000e+01
    6.0799148560e+01   -6.5947692871e+01
    6.0898590088e+01   -6.6207916260e+01
    6.0998359680e+01   -6.6468162537e+01
    6.1098270416e+01   -6.6728439331e+01
    6.1198848724e+01   -6.6988761902e+01
    6.1298049927e+01   -6.7249122620e+01
    6.1399349213e+01   -6.7509529114e+01
    6.1497859955e+01   -6.7769973755e+01
    6.1597820282e+01   -6.8030456543e+01
    6.1698120117e+01   -6.8290977478e+01
    6.1797828674e+01   -6.8551521301e+01
    6.1898738861e+01   -6.8812080383e+01
    6.1999279022e+01   -6.9072647095e+01
    6.2097999573e+01   -6.9333206177e+01
    6.2197959900e+01   -6.9593757629e+01
    6.2298591614e+01   -6.9854286194e+01
    6.2397979736e+01   -7.0114791870e+01
    6.2498149872e+01   -7.0375267029e+01
    6.2598049164e+01   -7.0635719299e+01
    6.2698509216e+01   -7.0896133423e+01
    6.2798469543e+01   -7.1156509399e+01
    6.2897811890e+01   -7.1416831970e+01
    6.2999568939e+01   -7.1677093506e+01
    6.3098789215e+01   -7.1937286377e+01
    6.3199321747e+01   -7.2197395325e+01
    6.3299560547e+01   -7.2457412720e+01
    6.3398338318e+01   -7.2717338562e+01
    6.3498649597e+01   -7.2977165222e+01
    6.3598239899e+01   -7.3236892700e+01
    6.3698478699e+01   -7.3496513367e+01
    6.3799221039e+01   -7.3756011963e+01
    6.3899539948e+01   -7.4015380859e+01
    6.3999240875e+01   -7.4274620056e+01
    6.4099082947e+01   -7.4533706665e+01
    6.4198928833e+01   -7.4792655945e+01
    6.4299346924e+01   -7.5051460266e+01
    6.4398696899e+01   -7.5310127258e+01
    6.4498512268e+01   -7.5568664551e+01
    6.4599212646e+01   -7.5827072144e+01
    6.4699287415e+01   -7.6085357666e+01
    6.4798629761e+01   -7.6343521118e+01
    6.4897758484e+01   -7.6601570129e+01
    6.4998100281e+01   -7.6859512329e+01
    6.5098030090e+01   -7.7117355347e+01
    6.5198753357e+01   -7.7375083923e+01
    6.5298629761e+01   -7.7632705688e+01
    6.5397972107e+01   -7.7890190125e+01
    6.5498420715e+01   -7.8147537231e+01
    6.5598663330e+01   -7.8404731750e+01
    6.5699249268e+01   -7.8661766052e+01
    6.5798210144e+01   -7.8918624878e+01
    6.5899269104e+01   -7.9175292969e+01
    6.5998916626e+01   -7.9431762695e+01
    6.6098159790e+01   -7.9688041687e+01
    6.6198036194e+01   -7.9944114685e+01
    6.6299041748e+01   -8.0200004578e+01
    6.6398277283e+01   -8.0455688477e+01
    6.6498199463e+01   -8.0711181641e+01
    6.6598663330e+01   -8.0966476440e+01
    6.6697952271e+01   -8.1221565247e+01
    6.6798110962e+01   -8.1476463318e+01
    6.6897842407e+01   -8.1731155396e+01
    6.6998123169e+01   -8.1985633850e+01
    6.7099281311e+01   -8.2239913940e+01
    6.7198593140e+01   -8.2493965149e+01
    6.7299102783e+01   -8.2747795105e+01
    6.7397872925e+01   -8.3001388550e+01
    6.7498947144e+01   -8.3254730225e+01
    6.7599166870e+01   -8.3507812500e+01
    6.7699272156e+01   -8.3760627747e+01
    6.7798851013e+01   -8.4013175964e+01
    6.7898216248e+01   -8.4265441895e+01
    6.7998130798e+01   -8.4517425537e+01
    6.8098701477e+01   -8.4769126892e+01
    6.8198966980e+01   -8.5020545959e+01
    6.8298461914e+01   -8.5271675110e+01
    6.8397987366e+01   -8.5522514343e+01
    6.8498497009e+01   -8.5773063660e+01
    6.8599456787e+01   -8.6023323059e+01
    6.8698257446e+01   -8.6273277283e+01
    6.8798156738e+01   -8.6522933960e+01
    6.8897857666e+01   -8.6772277832e+01
    6.8998680115e+01   -8.7021316528e+01
    6.9099212646e+01   -8.7270034790e+01
    6.9197998047e+01   -8.7518432617e+01
    6.9299217224e+01   -8.7766502380e+01
    6.9399276733e+01   -8.8014259338e+01
    6.9499473572e+01   -8.8261688232e+01
    6.9597831726e+01   -8.8508781433e+01
    6.9698066711e+01   -8.8755561829e+01
    6.9798393250e+01   -8.9002021790e+01
    6.9898490906e+01   -8.9248168945e+01
    6.9998199463e+01   -8.9493995667e+01
    7.0098709106e+01   -8.9739501953e+01
    7.0199256897e+01   -8.9984680176e+01
    7.0298217773e+01   -9.0229522705e+01
    7.0398643494e+01   -9.0474029541e+01
    7.0498558044e+01   -9.0718177795e+01
    7.0597976685e+01   -9.0961967468e+01
    7.0699317932e+01   -9.1205390930e+01
    7.0798171997e+01   -9.1448432922e+01
    7.0898620605e+01   -9.1691108704e+01
    7.0998657227e+01   -9.1933395386e+01
    7.1098358154e+01   -9.2175300598e+01
    7.1198196411e+01   -9.2416816711e+01
    7.1298889160e+01   -9.2657943726e+01
    7.1397987366e+01   -9.2898696899e+01
    7.1498802185e+01   -9.3139060974e+01
    7.1598701477e+01   -9.3379051208e+01
    7.1698097229e+01   -9.3618667603e+01
    7.1797897339e+01   -9.3857917786e+01
    7.1898887634e+01   -9.4096794128e+01
    7.1998710632e+01   -9.4335296631e+01
    7.2098953247e+01   -9.4573417664e+01
    7.2197708130e+01   -9.4811164856e+01
    7.2299423218e+01   -9.5048538208e+01
    7.2398773193e+01   -9.5285514832e+01
    7.2499191284e+01   -9.5522094727e+01
    7.2598358154e+01   -9.5758262634e+01
    7.2699043274e+01   -9.5994018555e+01
    7.2797683716e+01   -9.6229354858e+01
    7.2898399353e+01   -9.6464271545e+01
    7.2998092651e+01   -9.6698760986e+01
    7.3098396301e+01   -9.6932823181e+01
    7.3198448181e+01   -9.7166465759e+01
    7.3299346924e+01   -9.7399696350e+01
    7.3398086548e+01   -9.7632499695e+01
    7.3498809814e+01   -9.7864898682e+01
    7.3599342346e+01   -9.8096878052e+01
    7.3698272705e+01   -9.8328453064e+01
    7.3798248291e+01   -9.8559608459e+01
    7.3897850037e+01   -9.8790367126e+01
    7.3998413086e+01   -9.9020706177e+01
    7.4099006653e+01   -9.9250633240e+01
    7.4198211670e+01   -9.9480133057e+01
    7.4299278259e+01   -9.9709205627e+01
    7.4398132324e+01   -9.9937828064e+01
    7.4498283386e+01   -1.0016600800e+02
    7.4599372864e+01   -1.0039372253e+02
    7.4698829651e+01   -1.0062097931e+02
    7.4799118042e+01   -1.0084775543e+02
    7.4897979736e+01   -1.0107406616e+02
    7.4998458862e+01   -1.0129990387e+02
    7.5098320007e+01   -1.0152527618e+02
    7.5199333191e+01   -1.0175017548e+02
    7.5297897339e+01   -1.0197461700e+02
    7.5398101807e+01   -1.0219858551e+02
    7.5498001099e+01   -1.0242210388e+02
    7.5597717285e+01   -1.0264515686e+02
    7.5699279785e+01   -1.0286775970e+02
    7.5798843384e+01   -1.0308989716e+02
    7.5898452759e+01   -1.0331158447e+02
    7.5998077393e+01   -1.0353280640e+02
    7.6097763062e+01   -1.0375358582e+02
    7.6199279785e+01   -1.0397390747e+02
    7.6299026489e+01   -1.0419377899e+02
    7.6397666931e+01   -1.0441320038e+02
    7.6497711182e+01   -1.0463217163e+02
    7.6598007202e+01   -1.0485069275e+02
    7.6697906494e+01   -1.0506876373e+02
    7.6797836304e+01   -1.0528637695e+02
    7.6897796631e+01   -1.0550354767e+02
    7.6997810364e+01   -1.0572025299e+02
    7.7097846985e+01   -1.0593651581e+02
    7.7198280334e+01   -1.0615231323e+02
    7.7298408508e+01   -1.0636765289e+02
    7.7398582458e+01   -1.0658253479e+02
    7.7498786926e+01   -1.0679694366e+02
    7.7599060059e+01   -1.0701087952e+02
    7.7699363708e+01   -1.0722432709e+02
    7.7797897339e+01   -1.0743728638e+02
    7.7898979187e+01   -1.0764974976e+02
    7.7998176575e+01   -1.0786172485e+02
    7.8097656250e+01   -1.0807320404e+02
    7.8198669434e+01   -1.0828418732e+02
    7.8297691345e+01   -1.0849467468e+02
    7.8398483276e+01   -1.0870465851e+02
    7.8498870850e+01   -1.0891416168e+02
    7.8597953796e+01   -1.0912316895e+02
    7.8699256897e+01   -1.0933168030e+02
    7.8797996521e+01   -1.0953971100e+02
    7.8897628784e+01   -1.0974726868e+02
    7.8998237610e+01   -1.0995435333e+02
    7.9097419739e+01   -1.1016098785e+02
    7.9198516846e+01   -1.1036717987e+02
    7.9297523499e+01   -1.1057293701e+02
    7.9398536682e+01   -1.1077825928e+02
    7.9497467041e+01   -1.1098316956e+02
    7.9598213196e+01   -1.1118766022e+02
    7.9699256897e+01   -1.1139173889e+02
    7.9798217773e+01   -1.1159539795e+02
    7.9897598267e+01   -1.1179863739e+02
    7.9998703003e+01   -1.1200145721e+02
    8.0098480225e+01   -1.1220384216e+02
    8.0197677612e+01   -1.1240578461e+02
    8.0298332214e+01   -1.1260727692e+02
    8.0398490906e+01   -1.1280833435e+02
    8.0499137878e+01   -1.1300894165e+02
    8.0598892212e+01   -1.1320909882e+02
    8.0697532654e+01   -1.1340880585e+02
    8.0799003601e+01   -1.1360806274e+02
    8.0898101807e+01   -1.1380686951e+02
    8.0998733521e+01   -1.1400521088e+02
    8.1097877502e+01   -1.1420310211e+02
    8.1198760986e+01   -1.1440053558e+02
    8.1298469543e+01   -1.1459750366e+02
    8.1398887634e+01   -1.1479402161e+02
    8.1498992920e+01   -1.1499008179e+02
    8.1597511292e+01   -1.1518566895e+02
    8.1698669434e+01   -1.1538079834e+02
    8.1798927307e+01   -1.1557546234e+02
    8.1899177551e+01   -1.1576964569e+02
    8.1998100281e+01   -1.1596335602e+02
    8.2098228455e+01   -1.1615660095e+02
    8.2198440552e+01   -1.1634937286e+02
    8.2298736572e+01   -1.1654168701e+02
    8.2399116516e+01   -1.1673355103e+02
    8.2497863770e+01   -1.1692495728e+02
    8.2598396301e+01   -1.1711592102e+02
    8.2699012756e+01   -1.1730644226e+02
    8.2797813416e+01   -1.1749652863e+02
    8.2898567200e+01   -1.1768617249e+02
    8.2997497559e+01   -1.1787539673e+02
    8.3098396301e+01   -1.1806420135e+02
    8.3197471619e+01   -1.1825258636e+02
    8.3298522949e+01   -1.1844056702e+02
    8.3397712708e+01   -1.1862813568e+02
    8.3498893738e+01   -1.1881529999e+02
    8.3598213196e+01   -1.1900205994e+02
    8.3697593689e+01   -1.1918843079e+02
    8.3798942566e+01   -1.1937439728e+02
    8.3898452759e+01   -1.1955997467e+02
    8.3997993469e+01   -1.1974514008e+02
    8.4097602844e+01   -1.1992989349e+02
    8.4199180603e+01   -1.2011424255e+02
    8.4298896790e+01   -1.2029817200e+02
    8.4398658752e+01   -1.2048169708e+02
    8.4498481750e+01   -1.2066482544e+02
    8.4598350525e+01   -1.2084755707e+02
    8.4698860168e+01   -1.2102990723e+02
    8.4797622681e+01   -1.2121189117e+02
    8.4898117065e+01   -1.2139351654e+02
    8.4998558044e+01   -1.2157478333e+02
    8.5097831726e+01   -1.2175569916e+02
    8.5198959351e+01   -1.2193627167e+02
    8.5298599243e+01   -1.2211650085e+02
    8.5398887634e+01   -1.2229640198e+02
    8.5499237061e+01   -1.2247597504e+02
    8.5597702026e+01   -1.2265523529e+02
    8.5698593140e+01   -1.2283418274e+02
    8.5797859192e+01   -1.2301283264e+02
    8.5898643494e+01   -1.2319117737e+02
    8.5997352600e+01   -1.2336923218e+02
    8.6098388672e+01   -1.2354700470e+02
    8.6197982788e+01   -1.2372450256e+02
    8.6298828125e+01   -1.2390172577e+02
    8.6397796631e+01   -1.2407867432e+02
    8.6498779297e+01   -1.2425534821e+02
    8.6597892761e+01   -1.2443175507e+02
    8.6699020386e+01   -1.2460788727e+02
    8.6798576355e+01   -1.2478374481e+02
    8.6898101807e+01   -1.2495934296e+02
    8.6997512817e+01   -1.2513468170e+02
    8.7099082947e+01   -1.2530976868e+02
    8.7198646545e+01   -1.2548461914e+02
    8.7298652649e+01   -1.2565923309e+02
    8.7398376465e+01   -1.2583361053e+02
    8.7498176575e+01   -1.2600777435e+02
    8.7598083496e+01   -1.2618171692e+02
    8.7698150635e+01   -1.2635545349e+02
    8.7798271179e+01   -1.2652900696e+02
    8.7898803711e+01   -1.2670236969e+02
    8.7997329712e+01   -1.2687557983e+02
    8.8097846985e+01   -1.2704862213e+02
    8.8198333740e+01   -1.2722151184e+02
    8.8299018860e+01   -1.2739425659e+02
    8.8398429871e+01   -1.2756684113e+02
    8.8499092102e+01   -1.2773927307e+02
    8.8597831726e+01   -1.2791154480e+02
    8.8698928833e+01   -1.2808366394e+02
    8.8797729492e+01   -1.2825561523e+02
    8.8898452759e+01   -1.2842738342e+02
    8.8999107361e+01   -1.2859896851e+02
    8.9097732544e+01   -1.2877037048e+02
    8.9198272705e+01   -1.2894158936e+02
    8.9298736572e+01   -1.2911259460e+02
    8.9399139404e+01   -1.2928338623e+02
    8.9497512817e+01   -1.2945396423e+02
    8.9597793579e+01   -1.2962434387e+02
    8.9697990417e+01   -1.2979452515e+02
    8.9798126221e+01   -1.2996449280e+02
    8.9898193359e+01   -1.3013424683e+02
    8.9998176575e+01   -1.3030380249e+02
    9.0098106384e+01   -1.3047315979e+02
    9.0197952271e+01   -1.3064230347e+02
    9.0297737122e+01   -1.3081123352e+02
    9.0397453308e+01   -1.3097991943e+02
    9.0499031067e+01   -1.3114839172e+02
    9.0598587036e+01   -1.3131660461e+02
    9.0698081970e+01   -1.3148455811e+02
    9.0797500610e+01   -1.3165226746e+02
    9.0898788452e+01   -1.3181968689e+02
    9.0998062134e+01   -1.3198683167e+02
    9.1097259521e+01   -1.3215365601e+02
    9.1198646545e+01   -1.3232019043e+02
    9.1297698975e+01   -1.3248637390e+02
    9.1397262573e+01   -1.3265223694e+02
    9.1498100281e+01   -1.3281776428e+02
    9.1598846436e+01   -1.3298295593e+02
    9.1697593689e+01   -1.3314778137e+02
    9.1798179626e+01   -1.3331227112e+02
    9.1898689270e+01   -1.3347640991e+02
    9.1999130249e+01   -1.3364021301e+02
    9.2097549438e+01   -1.3380368042e+02
    9.2197807312e+01   -1.3396681213e+02
    9.2298469543e+01   -1.3412962341e+02
    9.2398361206e+01   -1.3429214478e+02
    9.2499076843e+01   -1.3445439148e+02
    9.2599021912e+01   -1.3461639404e+02
    9.2698822021e+01   -1.3477815247e+02
    9.2799003601e+01   -1.3493972778e+02
    9.2897827148e+01   -1.3510113525e+02
    9.2999023438e+01   -1.3526240540e+02
    9.3098297119e+01   -1.3542358398e+02
    9.3198768616e+01   -1.3558464050e+02
    9.3298149109e+01   -1.3574563599e+02
    9.3397521973e+01   -1.3590653992e+02
    9.3498863220e+01   -1.3606733704e+02
    9.3598091125e+01   -1.3622799683e+02
    9.3697257996e+01   -1.3638845825e+02
    9.3798377991e+01   -1.3654864502e+02
    9.3897407532e+01   -1.3670843506e+02
    9.3998390198e+01   -1.3686766052e+02
    9.4097282410e+01   -1.3702618408e+02
    9.4198143005e+01   -1.3718376160e+02
    9.4298919678e+01   -1.3734016418e+02
    9.4397621155e+01   -1.3749513245e+02
    9.4498291016e+01   -1.3764837646e+02
    9.4598907471e+01   -1.3779959106e+02
    9.4697486877e+01   -1.3794847107e+02
    9.4798072815e+01   -1.3809475708e+02
    9.4898658752e+01   -1.3823815918e+02
    9.4997268677e+01   -1.3837841797e+02
    9.5097930908e+01   -1.3851533508e+02
    9.5198646545e+01   -1.3864872742e+02
    9.5297401428e+01   -1.3877848816e+02
    9.5398231506e+01   -1.3890452576e+02
    9.5497123718e+01   -1.3902684021e+02
    9.5598136902e+01   -1.3914546204e+02
    9.5697280884e+01   -1.3926046753e+02
    9.5798576355e+01   -1.3937199402e+02
    9.5898696899e+01   -1.3948019409e+02
    9.5997169495e+01   -1.3958528137e+02
    9.6098846436e+01   -1.3968746948e+02
    9.6198646545e+01   -1.3978701782e+02
    9.6298599243e+01   -1.3988415527e+02
    9.6398590088e+01   -1.3997915649e+02
    9.6498863220e+01   -1.4007226562e+02
    9.6597213745e+01   -1.4016375732e+02
    9.6697677612e+01   -1.4025386047e+02
    9.6797836304e+01   -1.4034281921e+02
    9.6898368835e+01   -1.4043084717e+02
    9.6998931885e+01   -1.4051809692e+02
    9.7098747253e+01   -1.4060475159e+02
    9.7197288513e+01   -1.4069093323e+02
    9.7297897339e+01   -1.4077676392e+02
    9.7398452759e+01   -1.4086230469e+02
    9.7497222900e+01   -1.4094761658e+02
    9.7597343445e+01   -1.4103273010e+02
    9.7698699951e+01   -1.4111763000e+02
    9.7798118591e+01   -1.4120233154e+02
    9.7897521973e+01   -1.4128678894e+02
    9.7998863220e+01   -1.4137094116e+02
    9.8098243713e+01   -1.4145478821e+02
    9.8197593689e+01   -1.4153825378e+02
    9.8298858643e+01   -1.4162132263e+02
    9.8398117065e+01   -1.4170396423e+02
    9.8497306824e+01   -1.4178617859e+02
    9.8598411560e+01   -1.4186793518e+02
    9.8697532654e+01   -1.4194921875e+02
    9.8798553467e+01   -1.4203005981e+02
    9.8897598267e+01   -1.4211045837e+02
    9.8998573303e+01   -1.4219041443e+02
    9.9097572327e+01   -1.4226995850e+02
    9.9198501587e+01   -1.4234912109e+02
    9.9297492981e+01   -1.4242791748e+02
    9.9398422241e+01   -1.4250640869e+02
    9.9497428894e+01   -1.4258462524e+02
    9.9598220825e+01   -1.4266261292e+02
    9.9697349548e+01   -1.4274040222e+02
    9.9798263550e+01   -1.4281800842e+02
    9.9897438049e+01   -1.4289544678e+02
    9.9997756958e+01   -1.4297276306e+02
    1.0009729767e+02   -1.4304995728e+02
    1.0019730377e+02   -1.4312704468e+02
    1.0029830170e+02   -1.4320404053e+02
    1.0039739990e+02   -1.4328092957e+02
    1.0049770355e+02   -1.4335772705e+02
    1.0059880066e+02   -1.4343441772e+02
    1.0069719696e+02   -1.4351103210e+02
    1.0079820251e+02   -1.4358753967e+02
    1.0089730072e+02   -1.4366395569e+02
    1.0099859619e+02   -1.4374024963e+02
    1.0109839630e+02   -1.4381643677e+02
    1.0119809723e+02   -1.4389250183e+02
    1.0129769897e+02   -1.4396842957e+02
    1.0139720154e+02   -1.4404425049e+02
    1.0149849701e+02   -1.4411993408e+02
    1.0159780121e+02   -1.4419548035e+02
    1.0169899750e+02   -1.4427090454e+02
    1.0179810333e+02   -1.4434617615e+02
    1.0189720154e+02   -1.4442127991e+02
    1.0199810028e+02   -1.4449624634e+02
    1.0209889984e+02   -1.4457104492e+02
    1.0219779968e+02   -1.4464569092e+02
    1.0229750061e+02   -1.4472015381e+02
    1.0239810181e+02   -1.4479441833e+02
    1.0249800110e+02   -1.4486848450e+02
    1.0259829712e+02   -1.4494233704e+02
    1.0269889832e+02   -1.4501597595e+02
    1.0279730225e+02   -1.4508937073e+02
    1.0289769745e+02   -1.4516250610e+02
    1.0299800110e+02   -1.4523538208e+02
    1.0309829712e+02   -1.4530798340e+02
    1.0319850159e+02   -1.4538029480e+02
    1.0329859924e+02   -1.4545231628e+02
    1.0339869690e+02   -1.4552404785e+02
    1.0349829865e+02   -1.4559545898e+02
    1.0359860229e+02   -1.4566653442e+02
    1.0369850159e+02   -1.4573728943e+02
    1.0379779816e+02   -1.4580766296e+02
    1.0389710236e+02   -1.4587770081e+02
    1.0399780273e+02   -1.4594735718e+02
    1.0409750366e+02   -1.4601664734e+02
    1.0419730377e+02   -1.4608552551e+02
    1.0429889679e+02   -1.4615399170e+02
    1.0439739990e+02   -1.4622206116e+02
    1.0449770355e+02   -1.4628970337e+02
    1.0459739685e+02   -1.4635690308e+02
    1.0469860077e+02   -1.4642366028e+02
    1.0479740143e+02   -1.4648994446e+02
    1.0489759827e+02   -1.4655577087e+02
    1.0499729919e+02   -1.4662110901e+02
    1.0509850311e+02   -1.4668595886e+02
    1.0519730377e+02   -1.4675028992e+02
    1.0529759979e+02   -1.4681408691e+02
    1.0539749908e+02   -1.4687733459e+02
    1.0549759674e+02   -1.4694003296e+02
    1.0559709930e+02   -1.4700215149e+02
    1.0569819641e+02   -1.4706367493e+02
    1.0579699707e+02   -1.4712461853e+02
    1.0589900208e+02   -1.4718496704e+02
    1.0599729919e+02   -1.4724470520e+02
    1.0609739685e+02   -1.4730383301e+02
    1.0619730377e+02   -1.4736233521e+02
    1.0629709625e+02   -1.4742022705e+02
    1.0639859772e+02   -1.4747747803e+02
    1.0649800110e+02   -1.4753407288e+02
    1.0659729767e+02   -1.4758999634e+02
    1.0669840240e+02   -1.4764523315e+02
    1.0679740143e+02   -1.4769978333e+02
    1.0689830017e+02   -1.4775361633e+02
    1.0699729919e+02   -1.4780673218e+02
    1.0709799957e+02   -1.4785911560e+02
    1.0719869995e+02   -1.4791076660e+02
    1.0729750061e+02   -1.4796168518e+02
    1.0739859772e+02   -1.4801185608e+02
    1.0749819946e+02   -1.4806129456e+02
    1.0759760284e+02   -1.4811001587e+02
    1.0769889832e+02   -1.4815802002e+02
    1.0779820251e+02   -1.4820530701e+02
    1.0789749908e+02   -1.4825189209e+02
    1.0799729919e+02   -1.4829776001e+02
    1.0809729767e+02   -1.4834291077e+02
    1.0819719696e+02   -1.4838735962e+02
    1.0829889679e+02   -1.4843107605e+02
    1.0839869690e+02   -1.4847406006e+02
    1.0849839783e+02   -1.4851631165e+02
    1.0859709930e+02   -1.4855780029e+02
    1.0869760132e+02   -1.4859854126e+02
    1.0879769897e+02   -1.4863853455e+02
    1.0889769745e+02   -1.4867778015e+02
    1.0899729919e+02   -1.4871626282e+02
    1.0909809875e+02   -1.4875401306e+02
    1.0919779968e+02   -1.4879103088e+02
    1.0929850006e+02   -1.4882731628e+02
    1.0939739990e+02   -1.4886285400e+02
    1.0949829865e+02   -1.4889768982e+02
    1.0959819794e+02   -1.4893176270e+02
    1.0969709778e+02   -1.4896511841e+02
    1.0979720306e+02   -1.4899772644e+02
    1.0989869690e+02   -1.4902960205e+02
    1.0999739838e+02   -1.4906072998e+02
    1.1009790039e+02   -1.4909112549e+02
    1.1019840240e+02   -1.4912077332e+02
    1.1029750061e+02   -1.4914967346e+02
    1.1039730072e+02   -1.4917779541e+02
    1.1049859619e+02   -1.4920515442e+02
    1.1059809875e+02   -1.4923175049e+02
    1.1069750214e+02   -1.4925756836e+02
    1.1079850006e+02   -1.4928262329e+02
    1.1089769745e+02   -1.4930691528e+02
    1.1099859619e+02   -1.4933042908e+02
    1.1109760284e+02   -1.4935317993e+02
    1.1119830322e+02   -1.4937513733e+02
    1.1129730225e+02   -1.4939631653e+02
    1.1139800262e+02   -1.4941673279e+02
    1.1149870300e+02   -1.4943634033e+02
    1.1159760284e+02   -1.4945515442e+02
    1.1169840240e+02   -1.4947319031e+02
    1.1179709625e+02   -1.4949041748e+02
    1.1189830017e+02   -1.4950685120e+02
    1.1199729919e+02   -1.4952247620e+02
    1.1209809875e+02   -1.4953727722e+02
    1.1219879913e+02   -1.4955123901e+02
    1.1229789734e+02   -1.4956437683e+02
    1.1239869690e+02   -1.4957667542e+02
    1.1249870300e+02   -1.4958815002e+02
    1.1259770203e+02   -1.4959875488e+02
    1.1269760132e+02   -1.4960852051e+02
    1.1279759979e+02   -1.4961740112e+02
    1.1289800262e+02   -1.4962541199e+02
    1.1299829865e+02   -1.4963253784e+02
    1.1309829712e+02   -1.4963874817e+02
    1.1319789886e+02   -1.4964405823e+02
    1.1329720306e+02   -1.4964843750e+02
    1.1339710236e+02   -1.4965190125e+02
    1.1349790192e+02   -1.4965441895e+02
    1.1359809875e+02   -1.4965599060e+02
    1.1369709778e+02   -1.4965660095e+02
    1.1379750061e+02   -1.4965626526e+02
    1.1389759827e+02   -1.4965496826e+02
    1.1399729919e+02   -1.4965270996e+02
    1.1409770203e+02   -1.4964947510e+02
    1.1419819641e+02   -1.4964527893e+02
    1.1429759979e+02   -1.4964012146e+02
    1.1439830017e+02   -1.4963397217e+02
    1.1449770355e+02   -1.4962683105e+02
    1.1459870148e+02   -1.4961871338e+02
    1.1469770050e+02   -1.4960961914e+02
    1.1479820251e+02   -1.4959951782e+02
    1.1489830017e+02   -1.4958840942e+02
    1.1499829865e+02   -1.4957632446e+02
    1.1509790039e+02   -1.4956321716e+02
    1.1519740295e+02   -1.4954908752e+02
    1.1529830170e+02   -1.4953396606e+02
    1.1539739990e+02   -1.4951782227e+02
    1.1549720001e+02   -1.4950065613e+02
    1.1559809875e+02   -1.4948246765e+02
    1.1569840240e+02   -1.4946325684e+02
    1.1579820251e+02   -1.4944299316e+02
    1.1589730072e+02   -1.4942169189e+02
    1.1599870300e+02   -1.4939932251e+02
    1.1609829712e+02   -1.4937590027e+02
    1.1619770050e+02   -1.4935140991e+02
    1.1629789734e+02   -1.4932585144e+02
    1.1639749908e+02   -1.4929922485e+02
    1.1649710083e+02   -1.4927154541e+02
    1.1659850311e+02   -1.4924278259e+02
    1.1669830322e+02   -1.4921296692e+02
    1.1679810333e+02   -1.4918206787e+02
    1.1689790344e+02   -1.4915011597e+02
    1.1699780273e+02   -1.4911709595e+02
    1.1709780121e+02   -1.4908299255e+02
    1.1719779968e+02   -1.4904782104e+02
    1.1729789734e+02   -1.4901156616e+02
    1.1739810181e+02   -1.4897421265e+02
    1.1749790192e+02   -1.4893576050e+02
    1.1759750366e+02   -1.4889624023e+02
    1.1769719696e+02   -1.4885563660e+02
    1.1779869843e+02   -1.4881394958e+02
    1.1789859772e+02   -1.4877117920e+02
    1.1799870300e+02   -1.4872734070e+02
    1.1809729767e+02   -1.4868240356e+02
    1.1819760132e+02   -1.4863639832e+02
    1.1829799652e+02   -1.4858930969e+02
    1.1839859772e+02   -1.4854113770e+02
    1.1849770355e+02   -1.4849186707e+02
    1.1859870148e+02   -1.4844154358e+02
    1.1869819641e+02   -1.4839016724e+02
    1.1879789734e+02   -1.4833772278e+02
    1.1889779663e+02   -1.4828422546e+02
    1.1899780273e+02   -1.4822969055e+02
    1.1909790039e+02   -1.4817414856e+02
    1.1919819641e+02   -1.4811761475e+02
    1.1929859924e+02   -1.4806008911e+02
    1.1939739990e+02   -1.4800158691e+02
    1.1949810028e+02   -1.4794212341e+02
    1.1959719849e+02   -1.4788168335e+02
    1.1969809723e+02   -1.4782028198e+02
    1.1979740143e+02   -1.4775790405e+02
    1.1989849854e+02   -1.4769453430e+02
    1.1999859619e+02   -1.4763018799e+02
    1.2009829712e+02   -1.4756486511e+02
    1.2019799805e+02   -1.4749855042e+02
    1.2029750061e+02   -1.4743124390e+02
    1.2039869690e+02   -1.4736296082e+02
    1.2049790192e+02   -1.4729365540e+02
    1.2059729767e+02   -1.4722337341e+02
    1.2069840240e+02   -1.4715208435e+02
    1.2079850006e+02   -1.4707978821e+02
    1.2089820099e+02   -1.4700648499e+02
    1.2099790192e+02   -1.4693218994e+02
    1.2109809875e+02   -1.4685688782e+02
    1.2119750214e+02   -1.4678062439e+02
    1.2129869843e+02   -1.4670335388e+02
    1.2139830017e+02   -1.4662512207e+02
    1.2149800110e+02   -1.4654592896e+02
    1.2159719849e+02   -1.4646574402e+02
    1.2169819641e+02   -1.4638461304e+02
    1.2179750061e+02   -1.4630249023e+02
    1.2189849854e+02   -1.4621940613e+02
    1.2199770355e+02   -1.4613534546e+02
    1.2209829712e+02   -1.4605027771e+02
    1.2219730377e+02   -1.4596421814e+02
    1.2229789734e+02   -1.4587715149e+02
    1.2239839935e+02   -1.4578909302e+02
    1.2249700165e+02   -1.4570004272e+02
    1.2259709930e+02   -1.4560998535e+02
    1.2269709778e+02   -1.4551893616e+02
    1.2279850006e+02   -1.4542687988e+02
    1.2289810181e+02   -1.4533381653e+02
    1.2299749756e+02   -1.4523974609e+02
    1.2309839630e+02   -1.4514466858e+02
    1.2319740295e+02   -1.4504855347e+02
    1.2329789734e+02   -1.4495143127e+02
    1.2339810181e+02   -1.4485327148e+02
    1.2349819946e+02   -1.4475407410e+02
    1.2359799957e+02   -1.4465383911e+02
    1.2369760132e+02   -1.4455255127e+02
    1.2379709625e+02   -1.4445021057e+02
    1.2389790344e+02   -1.4434681702e+02
    1.2399859619e+02   -1.4424238586e+02
    1.2409750366e+02   -1.4413691711e+02
    1.2419789886e+02   -1.4403039551e+02
    1.2429820251e+02   -1.4392286682e+02
    1.2439830017e+02   -1.4381430054e+02
    1.2449829865e+02   -1.4370472717e+02
    1.2459819794e+02   -1.4359411621e+02
    1.2469799805e+02   -1.4348249817e+02
    1.2479769897e+02   -1.4336985779e+02
    1.2489739990e+02   -1.4325622559e+02
    1.2499859619e+02   -1.4314160156e+02
    1.2509799957e+02   -1.4302598572e+02
    1.2519740295e+02   -1.4290939331e+02
    1.2529840088e+02   -1.4279180908e+02
    1.2539769745e+02   -1.4267324829e+02
    1.2549859619e+02   -1.4255369568e+02
    1.2559790039e+02   -1.4243316650e+02
    1.2569719696e+02   -1.4231164551e+02
    1.2579810333e+02   -1.4218911743e+02
    1.2589739990e+02   -1.4206559753e+02
    1.2599849701e+02   -1.4194108582e+02
    1.2609839630e+02   -1.4181558228e+02
    1.2619799805e+02   -1.4168910217e+02
    1.2629769897e+02   -1.4156159973e+02
    1.2639749908e+02   -1.4143312073e+02
    1.2649739838e+02   -1.4130363464e+02
    1.2659739685e+02   -1.4117317200e+02
    1.2669760132e+02   -1.4104171753e+02
    1.2679799652e+02   -1.4090928650e+02
    1.2689859772e+02   -1.4077589417e+02
    1.2699770355e+02   -1.4064154053e+02
    1.2709709930e+02   -1.4050621033e+02
    1.2719709778e+02   -1.4036991882e+02
    1.2729820251e+02   -1.4023266602e+02
    1.2739739990e+02   -1.4009446716e+02
    1.2749700165e+02   -1.3995530701e+02
    1.2759860229e+02   -1.3981520081e+02
    1.2769689941e+02   -1.3967414856e+02
    1.2779740143e+02   -1.3953216553e+02
    1.2789810181e+02   -1.3938923645e+02
    1.2799700165e+02   -1.3924539185e+02
    1.2809700012e+02   -1.3910061646e+02
    1.2819839478e+02   -1.3895492554e+02
    1.2829809570e+02   -1.3880833435e+02
    1.2839799500e+02   -1.3866084290e+02
    1.2849819946e+02   -1.3851246643e+02
    1.2859860229e+02   -1.3836322021e+02
    1.2869749451e+02   -1.3821311951e+02
    1.2879840088e+02   -1.3806214905e+02
    1.2889779663e+02   -1.3791032410e+02
    1.2899729919e+02   -1.3775762939e+02
    1.2909710693e+02   -1.3760408020e+02
    1.2919709778e+02   -1.3744966125e+02
    1.2929739380e+02   -1.3729440308e+02
    1.2939779663e+02   -1.3713830566e+02
    1.2949809265e+02   -1.3698138428e+02
    1.2959829712e+02   -1.3682362366e+02
    1.2969850159e+02   -1.3666506958e+02
    1.2979840088e+02   -1.3650573730e+02
    1.2989810181e+02   -1.3634564209e+02
    1.2999769592e+02   -1.3618479919e+02
    1.3009750366e+02   -1.3602320862e+02
    1.3019749451e+02   -1.3586087036e+02
    1.3029870605e+02   -1.3569781494e+02
    1.3039830017e+02   -1.3553401184e+02
    1.3049800110e+02   -1.3536947632e+02
    1.3059790039e+02   -1.3520420837e+02
    1.3069790649e+02   -1.3503820801e+02
    1.3079800415e+02   -1.3487145996e+02
    1.3089830017e+02   -1.3470397949e+02
    1.3099859619e+02   -1.3453576660e+02
    1.3109809875e+02   -1.3436680603e+02
    1.3119869995e+02   -1.3419711304e+02
    1.3129870605e+02   -1.3402670288e+02
    1.3139799500e+02   -1.3385556030e+02
    1.3149839783e+02   -1.3368370056e+02
    1.3159719849e+02   -1.3351113892e+02
    1.3169790649e+02   -1.3333787537e+02
    1.3179879761e+02   -1.3316392517e+02
    1.3189810181e+02   -1.3298927307e+02
    1.3199819946e+02   -1.3281391907e+02
    1.3209719849e+02   -1.3263786316e+02
    1.3219799805e+02   -1.3246112061e+02
    1.3229879761e+02   -1.3228367615e+02
    1.3239729309e+02   -1.3210554504e+02
    1.3249800110e+02   -1.3192674255e+02
    1.3259880066e+02   -1.3174725342e+02
    1.3269790649e+02   -1.3156709290e+02
    1.3279870605e+02   -1.3138626099e+02
    1.3289770508e+02   -1.3120477295e+02
    1.3299859619e+02   -1.3102262878e+02
    1.3309759521e+02   -1.3083982849e+02
    1.3319839478e+02   -1.3065637207e+02
    1.3329730225e+02   -1.3047225952e+02
    1.3339799500e+02   -1.3028749084e+02
    1.3349859619e+02   -1.3010208130e+02
    1.3359739685e+02   -1.2991601562e+02
    1.3369779968e+02   -1.2972932434e+02
    1.3379820251e+02   -1.2954199219e+02
    1.3389860535e+02   -1.2935398865e+02
    1.3399890137e+02   -1.2916534424e+02
    1.3409730530e+02   -1.2897604370e+02
    1.3419760132e+02   -1.2878607178e+02
    1.3429780579e+02   -1.2859545898e+02
    1.3439799500e+02   -1.2840419006e+02
    1.3449830627e+02   -1.2821224976e+02
    1.3459869385e+02   -1.2801968384e+02
    1.3469729614e+02   -1.2782646942e+02
    1.3479789734e+02   -1.2763262177e+02
    1.3489860535e+02   -1.2743816376e+02
    1.3499789429e+02   -1.2724310303e+02
    1.3509880066e+02   -1.2704746246e+02
    1.3519799805e+02   -1.2685123444e+02
    1.3529739380e+02   -1.2665445709e+02
    1.3539869690e+02   -1.2645713043e+02
    1.3549830627e+02   -1.2625925446e+02
    1.3559800720e+02   -1.2606084442e+02
    1.3569790649e+02   -1.2586190033e+02
    1.3579789734e+02   -1.2566244507e+02
    1.3589819336e+02   -1.2546246338e+02
    1.3599859619e+02   -1.2526196289e+02
    1.3609890747e+02   -1.2506095886e+02
    1.3619740295e+02   -1.2485943604e+02
    1.3629769897e+02   -1.2465740204e+02
    1.3639810181e+02   -1.2445486450e+02
    1.3649839783e+02   -1.2425183868e+02
    1.3659860229e+02   -1.2404831696e+02
    1.3669889832e+02   -1.2384432220e+02
    1.3679899597e+02   -1.2363985443e+02
    1.3689909363e+02   -1.2343494415e+02
    1.3699870300e+02   -1.2322957611e+02
    1.3709790039e+02   -1.2302377319e+02
    1.3719900513e+02   -1.2281755066e+02
    1.3729750061e+02   -1.2261091614e+02
    1.3739739990e+02   -1.2240386963e+02
    1.3749909973e+02   -1.2219642639e+02
    1.3759880066e+02   -1.2198860168e+02
    1.3769850159e+02   -1.2178041077e+02
    1.3779809570e+02   -1.2157184601e+02
    1.3789759827e+02   -1.2136291504e+02
    1.3799890137e+02   -1.2115362549e+02
    1.3809840393e+02   -1.2094398499e+02
    1.3819769287e+02   -1.2073399353e+02
    1.3829879761e+02   -1.2052367401e+02
    1.3839810181e+02   -1.2031301880e+02
    1.3849760437e+02   -1.2010205078e+02
    1.3859800720e+02   -1.1989076233e+02
    1.3869729614e+02   -1.1967918396e+02
    1.3879859924e+02   -1.1946730804e+02
    1.3889779663e+02   -1.1925514984e+02
    1.3899899292e+02   -1.1904273987e+02
    1.3909809875e+02   -1.1883007050e+02
    1.3919920349e+02   -1.1861717987e+02
    1.3929829407e+02   -1.1840406036e+02
    1.3939739990e+02   -1.1819074249e+02
    1.3949909973e+02   -1.1797723389e+02
    1.3959790039e+02   -1.1776353455e+02
    1.3969859314e+02   -1.1754965210e+02
    1.3979930115e+02   -1.1733560944e+02
    1.3989900208e+02   -1.1712139893e+02
    1.3999890137e+02   -1.1690704346e+02
    1.4009790039e+02   -1.1669253540e+02
    1.4019799805e+02   -1.1647785950e+02
    1.4029800415e+02   -1.1626303864e+02
    1.4039799500e+02   -1.1604806519e+02
    1.4049800110e+02   -1.1583293152e+02
    1.4059790039e+02   -1.1561763763e+02
    1.4069779968e+02   -1.1540220642e+02
    1.4079760742e+02   -1.1518661499e+02
    1.4089920044e+02   -1.1497089386e+02
    1.4099760437e+02   -1.1475502777e+02
    1.4109809875e+02   -1.1453904724e+02
    1.4119869995e+02   -1.1432293701e+02
    1.4129780579e+02   -1.1410671234e+02
    1.4139900208e+02   -1.1389038086e+02
    1.4149859619e+02   -1.1367394257e+02
    1.4159840393e+02   -1.1345741272e+02
    1.4169850159e+02   -1.1324079132e+02
    1.4179879761e+02   -1.1302410126e+02
    1.4189939880e+02   -1.1280733490e+02
    1.4199839783e+02   -1.1259050751e+02
    1.4209919739e+02   -1.1237362671e+02
    1.4219799805e+02   -1.1215668488e+02
    1.4229859924e+02   -1.1193968964e+02
    1.4239909363e+02   -1.1172265625e+02
    1.4249949646e+02   -1.1150557709e+02
    1.4259790039e+02   -1.1128845978e+02
    1.4269799805e+02   -1.1107129669e+02
    1.4279820251e+02   -1.1085409546e+02
    1.4289830017e+02   -1.1063685608e+02
    1.4299850464e+02   -1.1041957855e+02
    1.4309880066e+02   -1.1020227814e+02
    1.4319909668e+02   -1.0998494720e+02
    1.4329949951e+02   -1.0976759338e+02
    1.4339810181e+02   -1.0955023193e+02
    1.4349870300e+02   -1.0933285522e+02
    1.4359950256e+02   -1.0911546326e+02
    1.4369839478e+02   -1.0889807129e+02
    1.4379939270e+02   -1.0868067932e+02
    1.4389770508e+02   -1.0846331024e+02
    1.4399899292e+02   -1.0824596405e+02
    1.4409829712e+02   -1.0802866364e+02
    1.4419949341e+02   -1.0781141663e+02
    1.4429890442e+02   -1.0759423828e+02
    1.4439840698e+02   -1.0737712860e+02
    1.4449789429e+02   -1.0716010284e+02
    1.4459779358e+02   -1.0694317627e+02
    1.4469929504e+02   -1.0672636414e+02
    1.4479890442e+02   -1.0650967407e+02
    1.4489840698e+02   -1.0629312897e+02
    1.4499800110e+02   -1.0607674408e+02
    1.4509939575e+02   -1.0586054230e+02
    1.4519949341e+02   -1.0564453888e+02
    1.4529840088e+02   -1.0542874908e+02
    1.4539880371e+02   -1.0521319580e+02
    1.4549809265e+02   -1.0499788666e+02
    1.4559919739e+02   -1.0478284454e+02
    1.4569839478e+02   -1.0456806946e+02
    1.4579949951e+02   -1.0435357666e+02
    1.4589860535e+02   -1.0413938904e+02
    1.4599960327e+02   -1.0392549133e+02
    1.4609860229e+02   -1.0371191406e+02
    1.4619949341e+02   -1.0349865723e+02
    1.4629840088e+02   -1.0328572845e+02
    1.4639930725e+02   -1.0307315063e+02
    1.4649809265e+02   -1.0286091614e+02
    1.4659880066e+02   -1.0264904022e+02
    1.4669949341e+02   -1.0243752289e+02
    1.4679820251e+02   -1.0222637177e+02
    1.4689880371e+02   -1.0201557922e+02
    1.4699929810e+02   -1.0180516052e+02
    1.4709970093e+02   -1.0159510803e+02
    1.4719810486e+02   -1.0138542938e+02
    1.4729829407e+02   -1.0117613220e+02
    1.4739840698e+02   -1.0096722412e+02
    1.4749850464e+02   -1.0075870514e+02
    1.4759860229e+02   -1.0055057526e+02
    1.4769869995e+02   -1.0034284973e+02
    1.4779890442e+02   -1.0013553619e+02
    1.4789909363e+02   -9.9928634644e+01
    1.4799929810e+02   -9.9722152710e+01
    1.4809970093e+02   -9.9516105652e+01
    1.4819830322e+02   -9.9310501099e+01
    1.4829899597e+02   -9.9105346680e+01
    1.4839979553e+02   -9.8900642395e+01
    1.4849879456e+02   -9.8696403503e+01
    1.4859979248e+02   -9.8492607117e+01
    1.4869889832e+02   -9.8289268494e+01
    1.4879820251e+02   -9.8086372375e+01
    1.4889950562e+02   -9.7883926392e+01
    1.4899890137e+02   -9.7681930542e+01
    1.4909860229e+02   -9.7480384827e+01
    1.4919839478e+02   -9.7279296875e+01
    1.4929800415e+02   -9.7078674316e+01
    1.4939930725e+02   -9.6878524780e+01
    1.4949830627e+02   -9.6678863525e+01
    1.4959899902e+02   -9.6479698181e+01
    1.4969929504e+02   -9.6281059265e+01
    1.4979939270e+02   -9.6082946777e+01
    1.4989909363e+02   -9.5885360718e+01
    1.4999850464e+02   -9.5688323975e+01
    1.5009939575e+02   -9.5491828918e+01
    1.5019819641e+02   -9.5295883179e+01
    1.5029859924e+02   -9.5100502014e+01
    1.5039869690e+02   -9.4905693054e+01
    1.5049850464e+02   -9.4711448669e+01
    1.5059989929e+02   -9.4517799377e+01
    1.5069940186e+02   -9.4324745178e+01
    1.5079870605e+02   -9.4132293701e+01
    1.5089970398e+02   -9.3940452576e+01
    1.5099859619e+02   -9.3749221802e+01
    1.5109910583e+02   -9.3558616638e+01
    1.5119940186e+02   -9.3368614197e+01
    1.5129960632e+02   -9.3179229736e+01
    1.5139959717e+02   -9.2990455627e+01
    1.5149940491e+02   -9.2802307129e+01
    1.5159910583e+02   -9.2614776611e+01
    1.5169859314e+02   -9.2427886963e+01
    1.5179989624e+02   -9.2241630554e+01
    1.5189909363e+02   -9.2056022644e+01
    1.5199830627e+02   -9.1871070862e+01
    1.5209919739e+02   -9.1686782837e+01
    1.5219819641e+02   -9.1503158569e+01
    1.5229910278e+02   -9.1320220947e+01
    1.5239990234e+02   -9.1137985229e+01
    1.5249890137e+02   -9.0956451416e+01
    1.5259989929e+02   -9.0775657654e+01
    1.5269900513e+02   -9.0595611572e+01
    1.5279829407e+02   -9.0416328430e+01
    1.5289959717e+02   -9.0237823486e+01
    1.5299920654e+02   -9.0060089111e+01
    1.5309899902e+02   -8.9883155823e+01
    1.5319889832e+02   -8.9707015991e+01
    1.5329910278e+02   -8.9531692505e+01
    1.5339930725e+02   -8.9357185364e+01
    1.5349980164e+02   -8.9183509827e+01
    1.5359849548e+02   -8.9010658264e+01
    1.5369920349e+02   -8.8838645935e+01
    1.5380009460e+02   -8.8667465210e+01
    1.5389930725e+02   -8.8497131348e+01
    1.5399850464e+02   -8.8327644348e+01
    1.5409989929e+02   -8.8159004211e+01
    1.5419940186e+02   -8.7991218567e+01
    1.5429910278e+02   -8.7824279785e+01
    1.5439900208e+02   -8.7658203125e+01
    1.5449890137e+02   -8.7492973328e+01
    1.5459890747e+02   -8.7328590393e+01
    1.5469900513e+02   -8.7165046692e+01
    1.5479899597e+02   -8.7002342224e+01
    1.5489909363e+02   -8.6840492249e+01
    1.5499920654e+02   -8.6679481506e+01
    1.5509930420e+02   -8.6519332886e+01
    1.5519949341e+02   -8.6360031128e+01
    1.5529969788e+02   -8.6201576233e+01
    1.5539979553e+02   -8.6043975830e+01
    1.5549989319e+02   -8.5887214661e+01
    1.5559979248e+02   -8.5731307983e+01
    1.5569960022e+02   -8.5576240540e+01
    1.5579919434e+02   -8.5422004700e+01
    1.5589849854e+02   -8.5268615723e+01
    1.5599929810e+02   -8.5116050720e+01
    1.5609970093e+02   -8.4964332581e+01
    1.5619979858e+02   -8.4813453674e+01
    1.5629930115e+02   -8.4663421631e+01
    1.5640020752e+02   -8.4514236450e+01
    1.5649879456e+02   -8.4365921021e+01
    1.5659880066e+02   -8.4218475342e+01
    1.5669999695e+02   -8.4071899414e+01
    1.5679910278e+02   -8.3926200867e+01
    1.5689950562e+02   -8.3781394958e+01
    1.5699960327e+02   -8.3637466431e+01
    1.5709930420e+02   -8.3494430542e+01
    1.5719880676e+02   -8.3352294922e+01
    1.5729980469e+02   -8.3211051941e+01
    1.5739880371e+02   -8.3070732117e+01
    1.5749929810e+02   -8.2931335449e+01
    1.5759970093e+02   -8.2792861938e+01
    1.5769999695e+02   -8.2655326843e+01
    1.5780009460e+02   -8.2518745422e+01
    1.5790020752e+02   -8.2383110046e+01
    1.5800010681e+02   -8.2248435974e+01
    1.5810000610e+02   -8.2114707947e+01
    1.5819900513e+02   -8.1981948853e+01
    1.5829930115e+02   -8.1850143433e+01
    1.5839970398e+02   -8.1719291687e+01
    1.5850000000e+02   -8.1589385986e+01
    1.5860029602e+02   -8.1460426331e+01
    1.5869869995e+02   -8.1332405090e+01
    1.5879899597e+02   -8.1205307007e+01
    1.5889930725e+02   -8.1079124451e+01
    1.5899980164e+02   -8.0953857422e+01
    1.5910029602e+02   -8.0829513550e+01
    1.5919920349e+02   -8.0706100464e+01
    1.5930020142e+02   -8.0583618164e+01
    1.5939959717e+02   -8.0462081909e+01
    1.5949920654e+02   -8.0341499329e+01
    1.5959919739e+02   -8.0221878052e+01
    1.5969949341e+02   -8.0103218079e+01
    1.5980020142e+02   -7.9985534668e+01
    1.5989939880e+02   -7.9868827820e+01
    1.5999890137e+02   -7.9753112793e+01
    1.6009880066e+02   -7.9638381958e+01
    1.6019909668e+02   -7.9524635315e+01
    1.6029969788e+02   -7.9411872864e+01
    1.6039869690e+02   -7.9300086975e+01
    1.6049980164e+02   -7.9189270020e+01
    1.6060060120e+02   -7.9079421997e+01
    1.6069909668e+02   -7.8970527649e+01
    1.6079919434e+02   -7.8862579346e+01
    1.6089920044e+02   -7.8755561829e+01
    1.6099890137e+02   -7.8649467468e+01
    1.6109950256e+02   -7.8544288635e+01
    1.6120019531e+02   -7.8440025330e+01
    1.6129919434e+02   -7.8336654663e+01
    1.6140029907e+02   -7.8234184265e+01
    1.6149969482e+02   -7.8132598877e+01
    1.6159919739e+02   -7.8031883240e+01
    1.6170060730e+02   -7.7932044983e+01
    1.6180009460e+02   -7.7833068848e+01
    1.6189970398e+02   -7.7734962463e+01
    1.6199920654e+02   -7.7637702942e+01
    1.6210049438e+02   -7.7541305542e+01
    1.6219990540e+02   -7.7445747375e+01
    1.6229910278e+02   -7.7351036072e+01
    1.6239990234e+02   -7.7257148743e+01
    1.6250059509e+02   -7.7164108276e+01
    1.6259919739e+02   -7.7071907043e+01
    1.6269929504e+02   -7.6980529785e+01
    1.6279919434e+02   -7.6889991760e+01
    1.6290049744e+02   -7.6800285339e+01
    1.6299980164e+02   -7.6711395264e+01
    1.6310049438e+02   -7.6623329163e+01
    1.6319909668e+02   -7.6536087036e+01
    1.6329919434e+02   -7.6449661255e+01
    1.6339900208e+02   -7.6364051819e+01
    1.6350030518e+02   -7.6279266357e+01
    1.6359950256e+02   -7.6195312500e+01
    1.6370030212e+02   -7.6112182617e+01
    1.6379919434e+02   -7.6029884338e+01
    1.6389959717e+02   -7.5948417664e+01
    1.6399980164e+02   -7.5867797852e+01
    1.6409979248e+02   -7.5788017273e+01
    1.6419979858e+02   -7.5709091187e+01
    1.6429969788e+02   -7.5631011963e+01
    1.6439950562e+02   -7.5553771973e+01
    1.6449929810e+02   -7.5477363586e+01
    1.6459919739e+02   -7.5401779175e+01
    1.6470080566e+02   -7.5327011108e+01
    1.6480079651e+02   -7.5253044128e+01
    1.6490080261e+02   -7.5179870605e+01
    1.6499920654e+02   -7.5107482910e+01
    1.6509959412e+02   -7.5035873413e+01
    1.6520010376e+02   -7.4965034485e+01
    1.6530079651e+02   -7.4894973755e+01
    1.6540040588e+02   -7.4825675964e+01
    1.6550050354e+02   -7.4757148743e+01
    1.6559910583e+02   -7.4689376831e+01
    1.6569999695e+02   -7.4622360229e+01
    1.6579960632e+02   -7.4556098938e+01
    1.6589970398e+02   -7.4490577698e+01
    1.6600039673e+02   -7.4425788879e+01
    1.6609919739e+02   -7.4361747742e+01
    1.6619960022e+02   -7.4298423767e+01
    1.6629980469e+02   -7.4235816956e+01
    1.6639970398e+02   -7.4173904419e+01
    1.6650010681e+02   -7.4112670898e+01
    1.6659959412e+02   -7.4052108765e+01
    1.6669949341e+02   -7.3992179871e+01
    1.6679960632e+02   -7.3932861328e+01
    1.6689979553e+02   -7.3874145508e+01
    1.6700019836e+02   -7.3816009521e+01
    1.6710069275e+02   -7.3758438110e+01
    1.6719940186e+02   -7.3701408386e+01
    1.6729980469e+02   -7.3644912720e+01
    1.6740029907e+02   -7.3588928223e+01
    1.6750070190e+02   -7.3533454895e+01
    1.6759930420e+02   -7.3478477478e+01
    1.6769970703e+02   -7.3423988342e+01
    1.6780020142e+02   -7.3369956970e+01
    1.6790060425e+02   -7.3316390991e+01
    1.6799920654e+02   -7.3263259888e+01
    1.6809959412e+02   -7.3210548401e+01
    1.6819999695e+02   -7.3158241272e+01
    1.6830039978e+02   -7.3106323242e+01
    1.6840069580e+02   -7.3054771423e+01
    1.6850090027e+02   -7.3003578186e+01
    1.6859919739e+02   -7.2952743530e+01
    1.6869940186e+02   -7.2902259827e+01
    1.6879960632e+02   -7.2852119446e+01
    1.6889979553e+02   -7.2802322388e+01
    1.6900010681e+02   -7.2752868652e+01
    1.6910049438e+02   -7.2703750610e+01
    1.6920109558e+02   -7.2654983521e+01
    1.6930020142e+02   -7.2606552124e+01
    1.6940049744e+02   -7.2558456421e+01
    1.6950070190e+02   -7.2510696411e+01
    1.6960099792e+02   -7.2463264465e+01
    1.6969920349e+02   -7.2416152954e+01
    1.6979939270e+02   -7.2369354248e+01
    1.6989970398e+02   -7.2322868347e+01
    1.6999989319e+02   -7.2276672363e+01
    1.7010029602e+02   -7.2230766296e+01
    1.7020080566e+02   -7.2185150146e+01
    1.7029960632e+02   -7.2139823914e+01
    1.7040040588e+02   -7.2094779968e+01
    1.7049949646e+02   -7.2050018311e+01
    1.7060079956e+02   -7.2005546570e+01
    1.7070089722e+02   -7.1961349487e+01
    1.7080059814e+02   -7.1917434692e+01
    1.7090060425e+02   -7.1873794556e+01
    1.7100079346e+02   -7.1830421448e+01
    1.7109919739e+02   -7.1787292480e+01
    1.7119979858e+02   -7.1744400024e+01
    1.7130070496e+02   -7.1701744080e+01
    1.7140089417e+02   -7.1659309387e+01
    1.7150050354e+02   -7.1617080688e+01
    1.7160020447e+02   -7.1575035095e+01
    1.7170010376e+02   -7.1533172607e+01
    1.7180029297e+02   -7.1491477966e+01
    1.7190080261e+02   -7.1449935913e+01
    1.7199960327e+02   -7.1408538818e+01
    1.7210069275e+02   -7.1367294312e+01
    1.7219979858e+02   -7.1326187134e+01
    1.7230079651e+02   -7.1285202026e+01
    1.7239999390e+02   -7.1244346619e+01
    1.7250120544e+02   -7.1203598022e+01
    1.7260049438e+02   -7.1162940979e+01
    1.7270010376e+02   -7.1122360229e+01
    1.7279980469e+02   -7.1081848145e+01
    1.7289970398e+02   -7.1041366577e+01
    1.7299980164e+02   -7.1000923157e+01
    1.7310009766e+02   -7.0960479736e+01
    1.7320030212e+02   -7.0920028687e+01
    1.7330039978e+02   -7.0879570007e+01
    1.7340029907e+02   -7.0839088440e+01
    1.7350010681e+02   -7.0798568726e+01
    1.7359970093e+02   -7.0758003235e+01
    1.7370129395e+02   -7.0717376709e+01
    1.7380070496e+02   -7.0676673889e+01
    1.7389990234e+02   -7.0635856628e+01
    1.7400120544e+02   -7.0594909668e+01
    1.7410040283e+02   -7.0553817749e+01
    1.7419970703e+02   -7.0512557983e+01
    1.7430020142e+02   -7.0471130371e+01
    1.7439990234e+02   -7.0429512024e+01
    1.7450140381e+02   -7.0387695312e+01
    1.7460040283e+02   -7.0345680237e+01
    1.7470109558e+02   -7.0303436279e+01
    1.7480149841e+02   -7.0260971069e+01
    1.7490139771e+02   -7.0218276978e+01
    1.7500090027e+02   -7.0175331116e+01
    1.7509959412e+02   -7.0132141113e+01
    1.7520100403e+02   -7.0088684082e+01
    1.7530009460e+02   -7.0044960022e+01
    1.7540109253e+02   -7.0000968933e+01
    1.7550000000e+02   -6.9956695557e+01
    1.7560079956e+02   -6.9912155151e+01
    1.7570129395e+02   -6.9867340088e+01
    1.7579969788e+02   -6.9822250366e+01
    1.7589999390e+02   -6.9776878357e+01
    1.7600019836e+02   -6.9731201172e+01
    1.7610029602e+02   -6.9685203552e+01
    1.7620039368e+02   -6.9638854980e+01
    1.7630029297e+02   -6.9592109680e+01
    1.7640010071e+02   -6.9544937134e+01
    1.7649980164e+02   -6.9497283936e+01
    1.7660119629e+02   -6.9449104309e+01
    1.7670050049e+02   -6.9400329590e+01
    1.7679969788e+02   -6.9350898743e+01
    1.7689999390e+02   -6.9300758362e+01
    1.7700100708e+02   -6.9249824524e+01
    1.7709989929e+02   -6.9198043823e+01
    1.7720100403e+02   -6.9145339966e+01
    1.7730009460e+02   -6.9091667175e+01
    1.7740139771e+02   -6.9036979675e+01
    1.7750039673e+02   -6.8981239319e+01
    1.7760150146e+02   -6.8924430847e+01
    1.7770030212e+02   -6.8866577148e+01
    1.7780090332e+02   -6.8807723999e+01
    1.7790150452e+02   -6.8747962952e+01
    1.7799980164e+02   -6.8687431335e+01
    1.7810009766e+02   -6.8626319885e+01
    1.7820030212e+02   -6.8564872742e+01
    1.7830039978e+02   -6.8503425598e+01
    1.7840060425e+02   -6.8442359924e+01
    1.7850070190e+02   -6.8382148743e+01
    1.7860079956e+02   -6.8323341370e+01
    1.7870089722e+02   -6.8266540527e+01
    1.7880099487e+02   -6.8212409973e+01
    1.7890100098e+02   -6.8161651611e+01
    1.7900079346e+02   -6.8114959717e+01
    1.7910049438e+02   -6.8073028564e+01
    1.7919999695e+02   -6.8036468506e+01
    1.7930119324e+02   -6.8005775452e+01
    1.7940020752e+02   -6.7981254578e+01
    1.7950090027e+02   -6.7962982178e+01
    1.7960119629e+02   -6.7950683594e+01
    1.7970129395e+02   -6.7943679810e+01
    1.7980110168e+02   -6.7940773010e+01
    1.7990049744e+02   -6.7940155029e+01
endcurve
