Curveplot
LS-DYNA keyword deck by LS-PrePost
Abscissa
Ordinate
XY data
NBDLHeadxCoo-1 #pts=2000
* Minval=     3.8422401428e+01 at time=         0.0000000000
* Maxval=     2.6420001221e+02 at time=       155.6990356445
    0.0000000000e+00    3.8422401428e+01
    9.8365060985e-02    3.8422401428e+01
    1.9873757660e-01    3.8422401428e+01
    2.9911008477e-01    3.8422401428e+01
    3.9883506298e-01    3.8422401428e+01
    4.9901589751e-01    3.8422401428e+01
    5.9799414873e-01    3.8422401428e+01
    6.9897508621e-01    3.8422401428e+01
    7.9914414883e-01    3.8422401428e+01
    8.9830088615e-01    3.8422401428e+01
    9.9811571836e-01    3.8422401428e+01
    1.0982971191e+00    3.8422500610e+01
    1.1981241703e+00    3.8422500610e+01
    1.2986696959e+00    3.8422500610e+01
    1.3979841471e+00    3.8422500610e+01
    1.4989122152e+00    3.8422599792e+01
    1.5983362198e+00    3.8422599792e+01
    1.6982423067e+00    3.8422599792e+01
    1.7989629507e+00    3.8422698975e+01
    1.8981628418e+00    3.8422698975e+01
    1.9999833107e+00    3.8422798157e+01
    2.0999107361e+00    3.8422798157e+01
    2.1984784603e+00    3.8422798157e+01
    2.2999196053e+00    3.8422897339e+01
    2.3982484341e+00    3.8423000336e+01
    2.4995558262e+00    3.8423000336e+01
    2.5984883308e+00    3.8423099518e+01
    2.6998195648e+00    3.8423099518e+01
    2.7991170883e+00    3.8423202515e+01
    2.8987772465e+00    3.8423301697e+01
    2.9989800453e+00    3.8423400879e+01
    3.0986473560e+00    3.8423400879e+01
    3.1994657516e+00    3.8423500061e+01
    3.2992620468e+00    3.8423599243e+01
    3.3991119862e+00    3.8423698425e+01
    3.4980444908e+00    3.8423797607e+01
    3.5988702774e+00    3.8423900604e+01
    3.6984302998e+00    3.8423999786e+01
    3.7996137142e+00    3.8424098969e+01
    3.8991570473e+00    3.8424201965e+01
    3.9990727901e+00    3.8424301147e+01
    4.0991539955e+00    3.8424400330e+01
    4.1990599632e+00    3.8424499512e+01
    4.2998709679e+00    3.8424697876e+01
    4.3997912407e+00    3.8424797058e+01
    4.4992079735e+00    3.8424900055e+01
    4.5995025635e+00    3.8424999237e+01
    4.6995763779e+00    3.8425201416e+01
    4.7993679047e+00    3.8425300598e+01
    4.8996973038e+00    3.8425399780e+01
    4.9992547035e+00    3.8425598145e+01
    5.0983138084e+00    3.8425697327e+01
    5.1982269287e+00    3.8425899506e+01
    5.2995338440e+00    3.8426002502e+01
    5.3984837532e+00    3.8426200867e+01
    5.4996714592e+00    3.8426399231e+01
    5.5988473892e+00    3.8426498413e+01
    5.6987600327e+00    3.8426700592e+01
    5.7979359627e+00    3.8426898956e+01
    5.8988785744e+00    3.8427001953e+01
    5.9982905388e+00    3.8427200317e+01
    6.0984635353e+00    3.8427398682e+01
    6.1979970932e+00    3.8427597046e+01
    6.2989320755e+00    3.8427799225e+01
    6.3998770714e+00    3.8428001404e+01
    6.4996786118e+00    3.8428199768e+01
    6.5987358093e+00    3.8428398132e+01
    6.6979141235e+00    3.8428600311e+01
    6.7991070747e+00    3.8428802490e+01
    6.8979086876e+00    3.8429000854e+01
    6.9992332458e+00    3.8429199219e+01
    7.0981383324e+00    3.8429500580e+01
    7.1990761757e+00    3.8429698944e+01
    7.2996587753e+00    3.8429901123e+01
    7.3987255096e+00    3.8430198669e+01
    7.4984021187e+00    3.8430397034e+01
    7.5996127129e+00    3.8430599213e+01
    7.6990561485e+00    3.8430900574e+01
    7.7983560562e+00    3.8431098938e+01
    7.8988790512e+00    3.8431400299e+01
    7.9989681244e+00    3.8431602478e+01
    8.0987539291e+00    3.8431900024e+01
    8.1997108459e+00    3.8432197571e+01
    8.2980365753e+00    3.8432399750e+01
    8.3983631134e+00    3.8432701111e+01
    8.4982910156e+00    3.8432998657e+01
    8.5989751816e+00    3.8433300018e+01
    8.6981687546e+00    3.8433601379e+01
    8.7994832993e+00    3.8433898926e+01
    8.8999271393e+00    3.8434200287e+01
    8.9992561340e+00    3.8434501648e+01
    9.0983324051e+00    3.8434799194e+01
    9.1997509003e+00    3.8435100555e+01
    9.2997226715e+00    3.8435401917e+01
    9.3984956741e+00    3.8435699463e+01
    9.4998025894e+00    3.8436000824e+01
    9.5985689163e+00    3.8436302185e+01
    9.6991291046e+00    3.8436698914e+01
    9.7993326187e+00    3.8437000275e+01
    9.8988971710e+00    3.8437400818e+01
    9.9982023239e+00    3.8437698364e+01
    1.0099879265e+01    3.8437999725e+01
    1.0198952675e+01    3.8438400269e+01
    1.0298115730e+01    3.8438697815e+01
    1.0399428368e+01    3.8439102173e+01
    1.0499101639e+01    3.8439498901e+01
    1.0598182678e+01    3.8439800262e+01
    1.0699363708e+01    3.8440200806e+01
    1.0798913956e+01    3.8440498352e+01
    1.0898219109e+01    3.8440898895e+01
    1.0999284744e+01    3.8441299438e+01
    1.1099108696e+01    3.8441699982e+01
    1.1199932098e+01    3.8442100525e+01
    1.1299236298e+01    3.8442501068e+01
    1.1398427010e+01    3.8442901611e+01
    1.1499877930e+01    3.8443298340e+01
    1.1599672318e+01    3.8443698883e+01
    1.1699766159e+01    3.8444099426e+01
    1.1799321175e+01    3.8444499969e+01
    1.1898141861e+01    3.8444999695e+01
    1.1999583244e+01    3.8445400238e+01
    1.2099136353e+01    3.8445800781e+01
    1.2198308945e+01    3.8446197510e+01
    1.2299142838e+01    3.8446601868e+01
    1.2398451805e+01    3.8447097778e+01
    1.2499900818e+01    3.8447502136e+01
    1.2598959923e+01    3.8447998047e+01
    1.2699355125e+01    3.8448501587e+01
    1.2799160957e+01    3.8448898315e+01
    1.2899873734e+01    3.8449401855e+01
    1.2999309540e+01    3.8449897766e+01
    1.3098253250e+01    3.8450302124e+01
    1.3198334694e+01    3.8450798035e+01
    1.3299021721e+01    3.8451301575e+01
    1.3398180962e+01    3.8451801300e+01
    1.3499617577e+01    3.8452301025e+01
    1.3598690033e+01    3.8452800751e+01
    1.3699529648e+01    3.8453300476e+01
    1.3798324585e+01    3.8453701019e+01
    1.3898541451e+01    3.8454200745e+01
    1.3998090744e+01    3.8454799652e+01
    1.4097902298e+01    3.8455299377e+01
    1.4199939728e+01    3.8455902100e+01
    1.4299756050e+01    3.8456401825e+01
    1.4399304390e+01    3.8456802368e+01
    1.4498247147e+01    3.8457397461e+01
    1.4599821091e+01    3.8458000183e+01
    1.4698377609e+01    3.8458499908e+01
    1.4798705101e+01    3.8459098816e+01
    1.4899882317e+01    3.8459701538e+01
    1.4999693871e+01    3.8460201263e+01
    1.5098764420e+01    3.8460700989e+01
    1.5198931694e+01    3.8461299896e+01
    1.5299136162e+01    3.8461898804e+01
    1.5398542404e+01    3.8462402344e+01
    1.5499608994e+01    3.8462997437e+01
    1.5598923683e+01    3.8463600159e+01
    1.5698637009e+01    3.8464302063e+01
    1.5798559189e+01    3.8464897156e+01
    1.5899603844e+01    3.8465400696e+01
    1.5998407364e+01    3.8465999603e+01
    1.6098991394e+01    3.8466701508e+01
    1.6199161530e+01    3.8467300415e+01
    1.6298103333e+01    3.8467899323e+01
    1.6399183273e+01    3.8468498230e+01
    1.6498374939e+01    3.8469200134e+01
    1.6599311829e+01    3.8469802856e+01
    1.6698970795e+01    3.8470397949e+01
    1.6798517227e+01    3.8471099854e+01
    1.6899709702e+01    3.8471801758e+01
    1.6998285294e+01    3.8472400665e+01
    1.7099710464e+01    3.8473098755e+01
    1.7198265076e+01    3.8473800659e+01
    1.7299734116e+01    3.8474399567e+01
    1.7399528503e+01    3.8475097656e+01
    1.7498470306e+01    3.8475799561e+01
    1.7599685669e+01    3.8476398468e+01
    1.7698749542e+01    3.8477100372e+01
    1.7798423767e+01    3.8477901459e+01
    1.7898258209e+01    3.8478500366e+01
    1.7999206543e+01    3.8479301453e+01
    1.8098646164e+01    3.8479900360e+01
    1.8197952271e+01    3.8480701447e+01
    1.8299135208e+01    3.8481399536e+01
    1.8399856567e+01    3.8482101440e+01
    1.8499296188e+01    3.8482898712e+01
    1.8599950790e+01    3.8483497620e+01
    1.8698879242e+01    3.8484298706e+01
    1.8799966812e+01    3.8485099792e+01
    1.8898754120e+01    3.8485801697e+01
    1.8998327255e+01    3.8486598969e+01
    1.9098264694e+01    3.8487300873e+01
    1.9199087143e+01    3.8488098145e+01
    1.9298044205e+01    3.8488800049e+01
    1.9399372101e+01    3.8489700317e+01
    1.9498315811e+01    3.8490402222e+01
    1.9599145889e+01    3.8491199493e+01
    1.9698076248e+01    3.8492000580e+01
    1.9799880981e+01    3.8492797852e+01
    1.9899536133e+01    3.8493598938e+01
    1.9998598099e+01    3.8494400024e+01
    2.0099912643e+01    3.8495201111e+01
    2.0198587418e+01    3.8496101379e+01
    2.0299430847e+01    3.8496799469e+01
    2.0399606705e+01    3.8497600555e+01
    2.0499137878e+01    3.8498500824e+01
    2.0598808289e+01    3.8499301910e+01
    2.0698734283e+01    3.8500198364e+01
    2.0798637390e+01    3.8500999451e+01
    2.0898576736e+01    3.8501800537e+01
    2.0997995377e+01    3.8502700806e+01
    2.1099178314e+01    3.8503601074e+01
    2.1198604584e+01    3.8504402161e+01
    2.1299432755e+01    3.8505302429e+01
    2.1398874283e+01    3.8506198883e+01
    2.1499208450e+01    3.8506999969e+01
    2.1599540710e+01    3.8507999420e+01
    2.1699077606e+01    3.8508899689e+01
    2.1798261642e+01    3.8509700775e+01
    2.1899696350e+01    3.8510601044e+01
    2.1999258041e+01    3.8511600494e+01
    2.2098911285e+01    3.8512496948e+01
    2.2198106766e+01    3.8513298035e+01
    2.2299160004e+01    3.8514301300e+01
    2.2398107529e+01    3.8515197754e+01
    2.2499298096e+01    3.8516201019e+01
    2.2598976135e+01    3.8517101288e+01
    2.2697942734e+01    3.8517997742e+01
    2.2798133850e+01    3.8518898010e+01
    2.2897928238e+01    3.8519897461e+01
    2.2998743057e+01    3.8520797729e+01
    2.3098552704e+01    3.8521900177e+01
    2.3199132919e+01    3.8522800446e+01
    2.3299303055e+01    3.8523799896e+01
    2.3399572372e+01    3.8524799347e+01
    2.3499296188e+01    3.8525802612e+01
    2.3599205017e+01    3.8526699066e+01
    2.3698276520e+01    3.8527702332e+01
    2.3799823761e+01    3.8528701782e+01
    2.3898775101e+01    3.8529701233e+01
    2.3998435974e+01    3.8530700684e+01
    2.4099605560e+01    3.8531799316e+01
    2.4198423386e+01    3.8532798767e+01
    2.4299402237e+01    3.8533798218e+01
    2.4398933411e+01    3.8534797668e+01
    2.4498485565e+01    3.8535900116e+01
    2.4599775314e+01    3.8536899567e+01
    2.4699245453e+01    3.8538002014e+01
    2.4798667908e+01    3.8538902283e+01
    2.4899009705e+01    3.8540000916e+01
    2.4998075485e+01    3.8541099548e+01
    2.5098606110e+01    3.8542198181e+01
    2.5198949814e+01    3.8543300629e+01
    2.5298389435e+01    3.8544399261e+01
    2.5399473190e+01    3.8545402527e+01
    2.5498764038e+01    3.8546501160e+01
    2.5599449158e+01    3.8547599792e+01
    2.5698400497e+01    3.8548698425e+01
    2.5798315048e+01    3.8549697876e+01
    2.5898426056e+01    3.8550899506e+01
    2.5997978210e+01    3.8552001953e+01
    2.6098268509e+01    3.8553199768e+01
    2.6198953629e+01    3.8554199219e+01
    2.6298622131e+01    3.8555400848e+01
    2.6399085999e+01    3.8556499481e+01
    2.6498168945e+01    3.8557601929e+01
    2.6599359512e+01    3.8558799744e+01
    2.6698408127e+01    3.8559898376e+01
    2.6798069000e+01    3.8561100006e+01
    2.6899988174e+01    3.8562198639e+01
    2.7000024796e+01    3.8563499451e+01
    2.7099119186e+01    3.8564598083e+01
    2.7198963165e+01    3.8565799713e+01
    2.7299190521e+01    3.8566902161e+01
    2.7398498535e+01    3.8568199158e+01
    2.7498878479e+01    3.8569301605e+01
    2.7597961426e+01    3.8570602417e+01
    2.7699790955e+01    3.8571800232e+01
    2.7798360825e+01    3.8572998047e+01
    2.7899652481e+01    3.8574199677e+01
    2.7998340607e+01    3.8575401306e+01
    2.8099384308e+01    3.8576698303e+01
    2.8198192596e+01    3.8577899933e+01
    2.8299383163e+01    3.8579101562e+01
    2.8399156570e+01    3.8580299377e+01
    2.8498826981e+01    3.8581600189e+01
    2.8598503113e+01    3.8582801819e+01
    2.8699323654e+01    3.8584098816e+01
    2.8799863815e+01    3.8585300446e+01
    2.8899137497e+01    3.8586700439e+01
    2.8999973297e+01    3.8587898254e+01
    2.9099012375e+01    3.8589199066e+01
    2.9199588776e+01    3.8590499878e+01
    2.9300037384e+01    3.8591800690e+01
    2.9398555756e+01    3.8592998505e+01
    2.9498113632e+01    3.8594299316e+01
    2.9598699570e+01    3.8595600128e+01
    2.9698623657e+01    3.8596900940e+01
    2.9800073624e+01    3.8598297119e+01
    2.9899513245e+01    3.8599601746e+01
    2.9999505997e+01    3.8600898743e+01
    3.0099210739e+01    3.8602298737e+01
    3.0199024200e+01    3.8603599548e+01
    3.0299474716e+01    3.8604999542e+01
    3.0398538589e+01    3.8606399536e+01
    3.0500062943e+01    3.8607700348e+01
    3.0598152161e+01    3.8609001160e+01
    3.0698080063e+01    3.8610401154e+01
    3.0799501419e+01    3.8611801147e+01
    3.0899358749e+01    3.8613201141e+01
    3.0998092651e+01    3.8614601135e+01
    3.1098440170e+01    3.8615997314e+01
    3.1198759079e+01    3.8617401123e+01
    3.1299568176e+01    3.8618801117e+01
    3.1399921417e+01    3.8620300293e+01
    3.1499366760e+01    3.8621700287e+01
    3.1599222183e+01    3.8623100281e+01
    3.1699647903e+01    3.8624599457e+01
    3.1799518585e+01    3.8626098633e+01
    3.1899185181e+01    3.8627498627e+01
    3.1998365402e+01    3.8629001617e+01
    3.2099933624e+01    3.8630500793e+01
    3.2198474884e+01    3.8631999969e+01
    3.2299934387e+01    3.8633499146e+01
    3.2399135590e+01    3.8635101318e+01
    3.2499534607e+01    3.8636600494e+01
    3.2598613739e+01    3.8638099670e+01
    3.2699569702e+01    3.8639598846e+01
    3.2798984528e+01    3.8641201019e+01
    3.2898815155e+01    3.8642799377e+01
    3.2999618530e+01    3.8644302368e+01
    3.3099803925e+01    3.8645900726e+01
    3.3199867249e+01    3.8647598267e+01
    3.3298442841e+01    3.8649200439e+01
    3.3398487091e+01    3.8650798798e+01
    3.3498832703e+01    3.8652397156e+01
    3.3599533081e+01    3.8654098511e+01
    3.3699211121e+01    3.8655700684e+01
    3.3799022675e+01    3.8657402039e+01
    3.3898368835e+01    3.8659099579e+01
    3.3998077393e+01    3.8660800934e+01
    3.4098930359e+01    3.8662502289e+01
    3.4199871063e+01    3.8664299011e+01
    3.4299549103e+01    3.8666000366e+01
    3.4398616791e+01    3.8667602539e+01
    3.4499801636e+01    3.8669399261e+01
    3.4599376678e+01    3.8671199799e+01
    3.4698402405e+01    3.8673000336e+01
    3.4799243927e+01    3.8674800873e+01
    3.4899406433e+01    3.8676597595e+01
    3.4998371124e+01    3.8678501129e+01
    3.5098133087e+01    3.8680198669e+01
    3.5198982239e+01    3.8682197571e+01
    3.5299247742e+01    3.8684101105e+01
    3.5398780823e+01    3.8685897827e+01
    3.5498577118e+01    3.8687801361e+01
    3.5598941803e+01    3.8689701080e+01
    3.5699016571e+01    3.8691699982e+01
    3.5799259186e+01    3.8693599701e+01
    3.5898712158e+01    3.8695499420e+01
    3.5998645782e+01    3.8697601318e+01
    3.6099578857e+01    3.8699600220e+01
    3.6198669434e+01    3.8701499939e+01
    3.6298965454e+01    3.8703598022e+01
    3.6398288727e+01    3.8705600739e+01
    3.6499763489e+01    3.8707698822e+01
    3.6598320007e+01    3.8709701538e+01
    3.6699878693e+01    3.8711898804e+01
    3.6799533844e+01    3.8714000702e+01
    3.6898139954e+01    3.8716098785e+01
    3.6998794556e+01    3.8718299866e+01
    3.7099487305e+01    3.8720500946e+01
    3.7199165344e+01    3.8722702026e+01
    3.7299621582e+01    3.8724899292e+01
    3.7399562836e+01    3.8727001190e+01
    3.7498596191e+01    3.8729301453e+01
    3.7599895477e+01    3.8731597900e+01
    3.7699062347e+01    3.8733901978e+01
    3.7799865723e+01    3.8736198425e+01
    3.7899944305e+01    3.8738498688e+01
    3.7999504089e+01    3.8740798950e+01
    3.8099777222e+01    3.8743202209e+01
    3.8198272705e+01    3.8745498657e+01
    3.8298316956e+01    3.8748001099e+01
    3.8397998810e+01    3.8750400543e+01
    3.8499301910e+01    3.8752899170e+01
    3.8598773956e+01    3.8755401611e+01
    3.8698604584e+01    3.8757801056e+01
    3.8799919128e+01    3.8760299683e+01
    3.8899223328e+01    3.8762901306e+01
    3.8998035431e+01    3.8765399933e+01
    3.9098022461e+01    3.8768001556e+01
    3.9199337006e+01    3.8770698547e+01
    3.9298816681e+01    3.8773300171e+01
    3.9399791718e+01    3.8775901794e+01
    3.9499713898e+01    3.8778602600e+01
    3.9599266052e+01    3.8781299591e+01
    3.9699615479e+01    3.8784000397e+01
    3.9799034119e+01    3.8786701202e+01
    3.9899627686e+01    3.8789501190e+01
    3.9998821259e+01    3.8792297363e+01
    4.0099117279e+01    3.8795097351e+01
    4.0198532104e+01    3.8798000336e+01
    4.0299476624e+01    3.8800899506e+01
    4.0399028778e+01    3.8803798676e+01
    4.0498092651e+01    3.8806602478e+01
    4.0598674774e+01    3.8809600830e+01
    4.0698120117e+01    3.8812599182e+01
    4.0798858643e+01    3.8815597534e+01
    4.0899852753e+01    3.8818702698e+01
    4.0999149323e+01    3.8821701050e+01
    4.1099197388e+01    3.8824798584e+01
    4.1198665619e+01    3.8827899933e+01
    4.1298336029e+01    3.8831100464e+01
    4.1398551941e+01    3.8834197998e+01
    4.1499641418e+01    3.8837398529e+01
    4.1599918365e+01    3.8840599060e+01
    4.1697982788e+01    3.8843902588e+01
    4.1798828125e+01    3.8847198486e+01
    4.1898670197e+01    3.8850498199e+01
    4.1997947693e+01    3.8853797913e+01
    4.2098701477e+01    3.8857200623e+01
    4.2198497772e+01    3.8860599518e+01
    4.2299743652e+01    3.8864101410e+01
    4.2398513794e+01    3.8867500305e+01
    4.2499862671e+01    3.8871002197e+01
    4.2599647522e+01    3.8874500275e+01
    4.2698066711e+01    3.8877998352e+01
    4.2798515320e+01    3.8881599426e+01
    4.2899349213e+01    3.8885200500e+01
    4.2999614716e+01    3.8888900757e+01
    4.3098865509e+01    3.8892501831e+01
    4.3199241638e+01    3.8896202087e+01
    4.3297943115e+01    3.8899902344e+01
    4.3397983551e+01    3.8903701782e+01
    4.3498687744e+01    3.8907501221e+01
    4.3598621368e+01    3.8911300659e+01
    4.3697910309e+01    3.8915199280e+01
    4.3799747467e+01    3.8919200897e+01
    4.3899269104e+01    3.8923099518e+01
    4.3998249054e+01    3.8927001953e+01
    4.4099819183e+01    3.8930999756e+01
    4.4199710846e+01    3.8935100555e+01
    4.4299133301e+01    3.8939098358e+01
    4.4399082184e+01    3.8943199158e+01
    4.4498363495e+01    3.8947200775e+01
    4.4599227905e+01    3.8951499939e+01
    4.4698787689e+01    3.8955699921e+01
    4.4798713684e+01    3.8959800720e+01
    4.4898910522e+01    3.8964202881e+01
    4.4999111176e+01    3.8968399048e+01
    4.5099155426e+01    3.8972801208e+01
    4.5198596954e+01    3.8977199554e+01
    4.5299316406e+01    3.8981700897e+01
    4.5399112701e+01    3.8986099243e+01
    4.5498443604e+01    3.8990600586e+01
    4.5597995758e+01    3.8995098114e+01
    4.5698726654e+01    3.8999698639e+01
    4.5798725128e+01    3.9004302979e+01
    4.5898765564e+01    3.9008998871e+01
    4.5998348236e+01    3.9013702393e+01
    4.6098133087e+01    3.9018501282e+01
    4.6199859619e+01    3.9023399353e+01
    4.6298942566e+01    3.9028099060e+01
    4.6397792816e+01    3.9033000946e+01
    4.6498172760e+01    3.9038002014e+01
    4.6599517822e+01    3.9042999268e+01
    4.6699069977e+01    3.9048099518e+01
    4.6798954010e+01    3.9053100586e+01
    4.6899188995e+01    3.9058300018e+01
    4.6998413086e+01    3.9063400269e+01
    4.7097915649e+01    3.9068698883e+01
    4.7198001862e+01    3.9074001312e+01
    4.7298851013e+01    3.9079399109e+01
    4.7398391724e+01    3.9084701538e+01
    4.7499782562e+01    3.9090202332e+01
    4.7599395752e+01    3.9095699310e+01
    4.7699626923e+01    3.9101299286e+01
    4.7798702240e+01    3.9106899261e+01
    4.7898662567e+01    3.9112499237e+01
    4.7998241425e+01    3.9118198395e+01
    4.8098167419e+01    3.9123901367e+01
    4.8199218750e+01    3.9129901886e+01
    4.8299484253e+01    3.9135799408e+01
    4.8399063110e+01    3.9141700745e+01
    4.8498714447e+01    3.9147701263e+01
    4.8598045349e+01    3.9153900146e+01
    4.8699520111e+01    3.9159999847e+01
    4.8798198700e+01    3.9166099548e+01
    4.8899387360e+01    3.9172500610e+01
    4.8998844147e+01    3.9178901672e+01
    4.9098468781e+01    3.9185302734e+01
    4.9198410034e+01    3.9191699982e+01
    4.9298377991e+01    3.9198402405e+01
    4.9398517609e+01    3.9205001831e+01
    4.9498699188e+01    3.9211799622e+01
    4.9597740173e+01    3.9218498230e+01
    4.9698848724e+01    3.9225399017e+01
    4.9798427582e+01    3.9232299805e+01
    4.9898391724e+01    3.9239299774e+01
    4.9998928070e+01    3.9246498108e+01
    5.0098007202e+01    3.9253601074e+01
    5.0198463440e+01    3.9261001587e+01
    5.0297946930e+01    3.9268199921e+01
    5.0399383545e+01    3.9275901794e+01
    5.0498397827e+01    3.9283302307e+01
    5.0598247528e+01    3.9290901184e+01
    5.0699684143e+01    3.9298797607e+01
    5.0798809052e+01    3.9306503296e+01
    5.0898246765e+01    3.9314498901e+01
    5.0997840881e+01    3.9322402954e+01
    5.1099266052e+01    3.9330600739e+01
    5.1199581146e+01    3.9338897705e+01
    5.1298709869e+01    3.9347099304e+01
    5.1399265289e+01    3.9355598450e+01
    5.1497974396e+01    3.9364002228e+01
    5.1599384308e+01    3.9372798920e+01
    5.1698966980e+01    3.9381500244e+01
    5.1798412323e+01    3.9390300751e+01
    5.1898056030e+01    3.9399299622e+01
    5.1998764038e+01    3.9408500671e+01
    5.2099067688e+01    3.9417598724e+01
    5.2199348450e+01    3.9426998138e+01
    5.2298763275e+01    3.9436401367e+01
    5.2399425507e+01    3.9446098328e+01
    5.2497962952e+01    3.9455600739e+01
    5.2599422455e+01    3.9465698242e+01
    5.2699253082e+01    3.9475601196e+01
    5.2799076080e+01    3.9485599518e+01
    5.2899002075e+01    3.9495800018e+01
    5.2999599457e+01    3.9506301880e+01
    5.3099338531e+01    3.9516799927e+01
    5.3199165344e+01    3.9527400970e+01
    5.3297843933e+01    3.9538002014e+01
    5.3399517059e+01    3.9549098969e+01
    5.3499080658e+01    3.9560199738e+01
    5.3599315643e+01    3.9571399689e+01
    5.3698009491e+01    3.9582599640e+01
    5.3799079895e+01    3.9594299316e+01
    5.3899139404e+01    3.9606002808e+01
    5.3998863220e+01    3.9617801666e+01
    5.4099098206e+01    3.9629798889e+01
    5.4198047638e+01    3.9641799927e+01
    5.4298171997e+01    3.9654201508e+01
    5.4399368286e+01    3.9666900635e+01
    5.4499092102e+01    3.9679500580e+01
    5.4598205566e+01    3.9692199707e+01
    5.4699687958e+01    3.9705497742e+01
    5.4798091888e+01    3.9718502045e+01
    5.4898021698e+01    3.9731899261e+01
    5.4997665405e+01    3.9745399475e+01
    5.5098148346e+01    3.9759300232e+01
    5.5199287415e+01    3.9773498535e+01
    5.5297706604e+01    3.9787399292e+01
    5.5399318695e+01    3.9802001953e+01
    5.5499153137e+01    3.9816596985e+01
    5.5599662781e+01    3.9831501007e+01
    5.5699565887e+01    3.9846397400e+01
    5.5798961639e+01    3.9861499786e+01
    5.5897697449e+01    3.9876701355e+01
    5.5997901917e+01    3.9892299652e+01
    5.6099628448e+01    3.9908401489e+01
    5.6199634552e+01    3.9924499512e+01
    5.6299404144e+01    3.9940700531e+01
    5.6399627686e+01    3.9957199097e+01
    5.6498825073e+01    3.9973701477e+01
    5.6599678040e+01    3.9990798950e+01
    5.6699329376e+01    4.0007900238e+01
    5.6799240112e+01    4.0025299072e+01
    5.6898525238e+01    4.0042800903e+01
    5.6999294281e+01    4.0060901642e+01
    5.7097877502e+01    4.0078701019e+01
    5.7198364258e+01    4.0097099304e+01
    5.7298999786e+01    4.0115798950e+01
    5.7398288727e+01    4.0134498596e+01
    5.7499107361e+01    4.0153800964e+01
    5.7598903656e+01    4.0173000336e+01
    5.7699115753e+01    4.0192600250e+01
    5.7798118591e+01    4.0212303162e+01
    5.7897621155e+01    4.0232398987e+01
    5.7997974396e+01    4.0252700806e+01
    5.8099601746e+01    4.0273799896e+01
    5.8198047638e+01    4.0294300079e+01
    5.8297882080e+01    4.0315498352e+01
    5.8398403168e+01    4.0337097168e+01
    5.8498165131e+01    4.0358798981e+01
    5.8598926544e+01    4.0380901337e+01
    5.8697669983e+01    4.0402999878e+01
    5.8799240112e+01    4.0425998688e+01
    5.8898334503e+01    4.0448600769e+01
    5.8998233795e+01    4.0471797943e+01
    5.9098476410e+01    4.0495201111e+01
    5.9198253632e+01    4.0519001007e+01
    5.9299617767e+01    4.0543197632e+01
    5.9399127960e+01    4.0567398071e+01
    5.9498092651e+01    4.0591800690e+01
    5.9597587585e+01    4.0616600037e+01
    5.9699600220e+01    4.0642200470e+01
    5.9798000336e+01    4.0667297363e+01
    5.9898288727e+01    4.0693199158e+01
    5.9998706818e+01    4.0719299316e+01
    6.0099586487e+01    4.0745899200e+01
    6.0197967529e+01    4.0772201538e+01
    6.0298141479e+01    4.0799201965e+01
    6.0398231506e+01    4.0826499939e+01
    6.0499282837e+01    4.0854400635e+01
    6.0598945618e+01    4.0882198334e+01
    6.0697616577e+01    4.0909999847e+01
    6.0799129486e+01    4.0938899994e+01
    6.0898345947e+01    4.0967498779e+01
    6.0998912811e+01    4.0996799469e+01
    6.1099231720e+01    4.1026199341e+01
    6.1198905945e+01    4.1055801392e+01
    6.1298339844e+01    4.1085800171e+01
    6.1397724152e+01    4.1115898132e+01
    6.1499172211e+01    4.1146999359e+01
    6.1598400116e+01    4.1177803040e+01
    6.1698184967e+01    4.1208999634e+01
    6.1798896790e+01    4.1240798950e+01
    6.1899024963e+01    4.1272701263e+01
    6.1997726440e+01    4.1304500580e+01
    6.2099315643e+01    4.1337600708e+01
    6.2198352814e+01    4.1370201111e+01
    6.2298561096e+01    4.1403499603e+01
    6.2398521423e+01    4.1437000275e+01
    6.2499248505e+01    4.1471099854e+01
    6.2598072052e+01    4.1504901886e+01
    6.2698184967e+01    4.1539398193e+01
    6.2797653198e+01    4.1574100494e+01
    6.2898521423e+01    4.1609500885e+01
    6.2997871399e+01    4.1644798279e+01
    6.3098194122e+01    4.1680702209e+01
    6.3197673798e+01    4.1716697693e+01
    6.3299263000e+01    4.1753799438e+01
    6.3398998260e+01    4.1790500641e+01
    6.3499130249e+01    4.1827800751e+01
    6.3598167419e+01    4.1864898682e+01
    6.3699302673e+01    4.1903099060e+01
    6.3799049377e+01    4.1941299438e+01
    6.3898426056e+01    4.1979499817e+01
    6.3998821259e+01    4.2018600464e+01
    6.4098953247e+01    4.2057800293e+01
    6.4198600769e+01    4.2097198486e+01
    6.4298736572e+01    4.2137199402e+01
    6.4397979736e+01    4.2177101135e+01
    6.4498298645e+01    4.2217903137e+01
    6.4598815918e+01    4.2259101868e+01
    6.4698593140e+01    4.2300300598e+01
    6.4797874451e+01    4.2341701508e+01
    6.4899261475e+01    4.2384300232e+01
    6.4997451782e+01    4.2426101685e+01
    6.5097984314e+01    4.2469001770e+01
    6.5197532654e+01    4.2512100220e+01
    6.5299026489e+01    4.2556400299e+01
    6.5398674011e+01    4.2600097656e+01
    6.5498229980e+01    4.2644302368e+01
    6.5598785400e+01    4.2689300537e+01
    6.5697540283e+01    4.2733798981e+01
    6.5799491882e+01    4.2780300140e+01
    6.5899185181e+01    4.2826099396e+01
    6.5998260498e+01    4.2872001648e+01
    6.6099479675e+01    4.2919197083e+01
    6.6199440002e+01    4.2966400146e+01
    6.6297882080e+01    4.3013301849e+01
    6.6397720337e+01    4.3061203003e+01
    6.6497688293e+01    4.3109600067e+01
    6.6598930359e+01    4.3159099579e+01
    6.6699531555e+01    4.3208702087e+01
    6.6799194336e+01    4.3258300781e+01
    6.6897659302e+01    4.3307701111e+01
    6.6997894287e+01    4.3358497620e+01
    6.7097640991e+01    4.3409400940e+01
    6.7199531555e+01    4.3461997986e+01
    6.7298667908e+01    4.3513599396e+01
    6.7398551941e+01    4.3566101074e+01
    6.7498435974e+01    4.3618999481e+01
    6.7599075317e+01    4.3672801971e+01
    6.7698974609e+01    4.3726802826e+01
    6.7798385620e+01    4.3780899048e+01
    6.7897918701e+01    4.3835601807e+01
    6.7997825623e+01    4.3890998840e+01
    6.8098373413e+01    4.3947303772e+01
    6.8199188232e+01    4.4004302979e+01
    6.8299240112e+01    4.4061401367e+01
    6.8397537231e+01    4.4118000031e+01
    6.8497848511e+01    4.4176300049e+01
    6.8597915649e+01    4.4235099792e+01
    6.8698242188e+01    4.4294509888e+01
    6.8798431396e+01    4.4354408264e+01
    6.8899147034e+01    4.4415199280e+01
    6.8997718811e+01    4.4475257874e+01
    6.9099456787e+01    4.4537948608e+01
    6.9197547913e+01    4.4598808289e+01
    6.9298278809e+01    4.4662029266e+01
    6.9398765564e+01    4.4725681305e+01
    6.9499137878e+01    4.4789878845e+01
    6.9597747803e+01    4.4853519440e+01
    6.9698127747e+01    4.4919059753e+01
    6.9798889160e+01    4.4985397339e+01
    6.9897514343e+01    4.5050918579e+01
    6.9998291016e+01    4.5118610382e+01
    7.0099075317e+01    4.5187026978e+01
    7.0199089050e+01    4.5255519867e+01
    7.0297744751e+01    4.5323829651e+01
    7.0398544312e+01    4.5394210815e+01
    7.0499351501e+01    4.5465400696e+01
    7.0598022461e+01    4.5535770416e+01
    7.0698463440e+01    4.5608131409e+01
    7.0798789978e+01    4.5681118011e+01
    7.0897483826e+01    4.5753650665e+01
    7.0998321533e+01    4.5828430176e+01
    7.1099166870e+01    4.5904117584e+01
    7.1197517395e+01    4.5978630066e+01
    7.1297752380e+01    4.6055389404e+01
    7.1398368835e+01    4.6133140564e+01
    7.1498870850e+01    4.6211711884e+01
    7.1597610474e+01    4.6289642334e+01
    7.1698501587e+01    4.6370201111e+01
    7.1798896790e+01    4.6451103210e+01
    7.1897651672e+01    4.6531661987e+01
    7.1998565674e+01    4.6614738464e+01
    7.2097335815e+01    4.6696910858e+01
    7.2198013306e+01    4.6781620026e+01
    7.2298950195e+01    4.6867408752e+01
    7.2397743225e+01    4.6952301025e+01
    7.2498687744e+01    4.7039989471e+01
    7.2597496033e+01    4.7126777649e+01
    7.2698463440e+01    4.7216369629e+01
    7.2799438477e+01    4.7307060242e+01
    7.2898269653e+01    4.7396652222e+01
    7.2999252319e+01    4.7489330292e+01
    7.3097854614e+01    4.7580841064e+01
    7.3198860168e+01    4.7675498962e+01
    7.3297721863e+01    4.7769279480e+01
    7.3398117065e+01    4.7865592957e+01
    7.3498771667e+01    4.7963169098e+01
    7.3597663879e+01    4.8060119629e+01
    7.3698707581e+01    4.8160339355e+01
    7.3797615051e+01    4.8259468079e+01
    7.3898681641e+01    4.8361846924e+01
    7.3997604370e+01    4.8463260651e+01
    7.4098686218e+01    4.8568111420e+01
    7.4197624207e+01    4.8671779633e+01
    7.4298728943e+01    4.8778888702e+01
    7.4397689819e+01    4.8884929657e+01
    7.4498809814e+01    4.8994491577e+01
    7.4597785950e+01    4.9102878571e+01
    7.4698921204e+01    4.9215003967e+01
    7.4797920227e+01    4.9325851440e+01
    7.4899078369e+01    4.9440406799e+01
    7.4998092651e+01    4.9553699493e+01
    7.5099273682e+01    4.9670799255e+01
    7.5198303223e+01    4.9786739349e+01
    7.5297348022e+01    4.9903850555e+01
    7.5398559570e+01    5.0024841309e+01
    7.5497619629e+01    5.0144577026e+01
    7.5598342896e+01    5.0267669678e+01
    7.5697425842e+01    5.0390140533e+01
    7.5798675537e+01    5.0516582489e+01
    7.5897781372e+01    5.0641670227e+01
    7.5999046326e+01    5.0771030426e+01
    7.6098167419e+01    5.0898826599e+01
    7.6199081421e+01    5.1030551910e+01
    7.6298225403e+01    5.1161262512e+01
    7.6397377014e+01    5.1293331146e+01
    7.6498695374e+01    5.1429840088e+01
    7.6597869873e+01    5.1564811707e+01
    7.6699218750e+01    5.1704311371e+01
    7.6798408508e+01    5.1842269897e+01
    7.6897621155e+01    5.1981681824e+01
    7.6998992920e+01    5.2125701904e+01
    7.7098220825e+01    5.2268089294e+01
    7.7197463989e+01    5.2412117004e+01
    7.7298866272e+01    5.2560752869e+01
    7.7398117065e+01    5.2707748413e+01
    7.7497329712e+01    5.2856197357e+01
    7.7598655701e+01    5.3009441376e+01
    7.7697792053e+01    5.3160957336e+01
    7.7799041748e+01    5.3317260742e+01
    7.7898101807e+01    5.3471759796e+01
    7.7999267578e+01    5.3631118774e+01
    7.8098251343e+01    5.3788780212e+01
    7.8199340820e+01    5.3951301575e+01
    7.8298233032e+01    5.4111911774e+01
    7.8399238586e+01    5.4277679443e+01
    7.8498054504e+01    5.4441436768e+01
    7.8598983765e+01    5.4610351562e+01
    7.8697715759e+01    5.4777252197e+01
    7.8798545837e+01    5.4949386597e+01
    7.8899345398e+01    5.5123229980e+01
    7.8997947693e+01    5.5294887543e+01
    7.9098655701e+01    5.5471847534e+01
    7.9199317932e+01    5.5650520325e+01
    7.9297790527e+01    5.5827007294e+01
    7.9398368835e+01    5.6008987427e+01
    7.9498893738e+01    5.6192657471e+01
    7.9597236633e+01    5.6374069214e+01
    7.9697677612e+01    5.6560939789e+01
    7.9798072815e+01    5.6749599457e+01
    7.9898414612e+01    5.6939956665e+01
    7.9998710632e+01    5.7132011414e+01
    8.0098968506e+01    5.7325839996e+01
    8.0199172974e+01    5.7521247864e+01
    8.0299331665e+01    5.7718547821e+01
    8.0397308350e+01    5.7913188934e+01
    8.0497367859e+01    5.8113849640e+01
    8.0597389221e+01    5.8316287994e+01
    8.0697349548e+01    5.8520401001e+01
    8.0797264099e+01    5.8726379395e+01
    8.0899261475e+01    5.8938438416e+01
    8.0999069214e+01    5.9148048401e+01
    8.1098838806e+01    5.9359321594e+01
    8.1198554993e+01    5.9572460175e+01
    8.1298217773e+01    5.9787452698e+01
    8.1397827148e+01    6.0004199982e+01
    8.1497383118e+01    6.0222709656e+01
    8.1599014282e+01    6.0447849274e+01
    8.1698463440e+01    6.0670150757e+01
    8.1797866821e+01    6.0894309998e+01
    8.1897216797e+01    6.1120300293e+01
    8.1998619080e+01    6.1353000641e+01
    8.2097862244e+01    6.1582771301e+01
    8.2199157715e+01    6.1819328308e+01
    8.2298286438e+01    6.2052970886e+01
    8.2397354126e+01    6.2288352966e+01
    8.2498481750e+01    6.2530776978e+01
    8.2597434998e+01    6.2770008087e+01
    8.2698440552e+01    6.3016368866e+01
    8.2797286987e+01    6.3259540558e+01
    8.2898170471e+01    6.3509738922e+01
    8.2998992920e+01    6.3762031555e+01
    8.3097656250e+01    6.4011039734e+01
    8.3198364258e+01    6.4267250061e+01
    8.3299003601e+01    6.4525550842e+01
    8.3397483826e+01    6.4780380249e+01
    8.3498001099e+01    6.5042671204e+01
    8.3598457336e+01    6.5306861877e+01
    8.3698844910e+01    6.5573226929e+01
    8.3799171448e+01    6.5841476440e+01
    8.3897346497e+01    6.6106178284e+01
    8.3997543335e+01    6.6378486633e+01
    8.4097671509e+01    6.6652885437e+01
    8.4197738647e+01    6.6929252625e+01
    8.4297744751e+01    6.7207679749e+01
    8.4397674561e+01    6.7488182068e+01
    8.4497543335e+01    6.7770736694e+01
    8.4597343445e+01    6.8055259705e+01
    8.4699157715e+01    6.8347915649e+01
    8.4798812866e+01    6.8636741638e+01
    8.4898406982e+01    6.8927619934e+01
    8.4997932434e+01    6.9220642090e+01
    8.5097389221e+01    6.9515708923e+01
    8.5198844910e+01    6.9819068909e+01
    8.5298156738e+01    7.0118408203e+01
    8.5397399902e+01    7.0419792175e+01
    8.5498641968e+01    7.0729721069e+01
    8.5597740173e+01    7.1035362244e+01
    8.5698837280e+01    7.1349517822e+01
    8.5797790527e+01    7.1659400940e+01
    8.5898735046e+01    7.1977783203e+01
    8.5997550964e+01    7.2291885376e+01
    8.6098342896e+01    7.2614677429e+01
    8.6199066162e+01    7.2939567566e+01
    8.6297660828e+01    7.3259994507e+01
    8.6398231506e+01    7.3589172363e+01
    8.6498725891e+01    7.3920417786e+01
    8.6599151611e+01    7.4253860474e+01
    8.6697448730e+01    7.4582550049e+01
    8.6797714233e+01    7.4920249939e+01
    8.6897911072e+01    7.5260009766e+01
    8.6998031616e+01    7.5601844788e+01
    8.7098075867e+01    7.5945838928e+01
    8.7198036194e+01    7.6291893005e+01
    8.7297927856e+01    7.6639999390e+01
    8.7397743225e+01    7.6990158081e+01
    8.7497474670e+01    7.7342460632e+01
    8.7599166870e+01    7.7703948975e+01
    8.7698753357e+01    7.8060325623e+01
    8.7798255920e+01    7.8418647766e+01
    8.7897682190e+01    7.8778991699e+01
    8.7999061584e+01    7.9148773193e+01
    8.8098327637e+01    7.9513160706e+01
    8.8197525024e+01    7.9879570007e+01
    8.8298660278e+01    8.0255355835e+01
    8.8397705078e+01    8.0625587463e+01
    8.8498687744e+01    8.1005371094e+01
    8.8597572327e+01    8.1379493713e+01
    8.8698394775e+01    8.1763259888e+01
    8.8799140930e+01    8.2148887634e+01
    8.8897796631e+01    8.2528785706e+01
    8.8998382568e+01    8.2918251038e+01
    8.9098892212e+01    8.3309585571e+01
    8.9197311401e+01    8.3694999695e+01
    8.9297660828e+01    8.4090065002e+01
    8.9397941589e+01    8.4486961365e+01
    8.9498130798e+01    8.4885711670e+01
    8.9598251343e+01    8.5286186218e+01
    8.9698287964e+01    8.5688407898e+01
    8.9798248291e+01    8.6092353821e+01
    8.9898124695e+01    8.6498016357e+01
    8.9997932434e+01    8.6905410767e+01
    9.0097656250e+01    8.7314407349e+01
    9.0197303772e+01    8.7725112915e+01
    9.0298866272e+01    8.8145591736e+01
    9.0398361206e+01    8.8559494019e+01
    9.0497772217e+01    8.8974891663e+01
    9.0599098206e+01    8.9400085449e+01
    9.0698364258e+01    8.9818550110e+01
    9.0797538757e+01    9.0238380432e+01
    9.0898605347e+01    9.0667984009e+01
    9.0997596741e+01    9.1090484619e+01
    9.1098472595e+01    9.1522712708e+01
    9.1197265625e+01    9.1947853088e+01
    9.1297950745e+01    9.2382682800e+01
    9.1398529053e+01    9.2818649292e+01
    9.1499015808e+01    9.3255851746e+01
    9.1597434998e+01    9.3685592651e+01
    9.1697723389e+01    9.4125045776e+01
    9.1797920227e+01    9.4565544128e+01
    9.1898010254e+01    9.5007141113e+01
    9.1998016357e+01    9.5449638367e+01
    9.2097915649e+01    9.5893157959e+01
    9.2197723389e+01    9.6337570190e+01
    9.2297431946e+01    9.6782875061e+01
    9.2399002075e+01    9.7237754822e+01
    9.2498512268e+01    9.7684715271e+01
    9.2597938538e+01    9.8132369995e+01
    9.2697265625e+01    9.8580688477e+01
    9.2798439026e+01    9.9038497925e+01
    9.2897575378e+01    9.9488151550e+01
    9.2998558044e+01    9.9947250366e+01
    9.3097496033e+01    1.0039798737e+02
    9.3198287964e+01    1.0085814667e+02
    9.3298980713e+01    1.0131872559e+02
    9.3397644043e+01    1.0177088165e+02
    9.3498146057e+01    1.0223227692e+02
    9.3598548889e+01    1.0269369507e+02
    9.3698860168e+01    1.0315608978e+02
    9.3799072266e+01    1.0361868286e+02
    9.3897270203e+01    1.0407219696e+02
    9.3997299194e+01    1.0453417969e+02
    9.4097236633e+01    1.0499732208e+02
    9.4198997498e+01    1.0546884918e+02
    9.4298736572e+01    1.0593231964e+02
    9.4398391724e+01    1.0639495087e+02
    9.4497955322e+01    1.0685772705e+02
    9.4597419739e+01    1.0732067108e+02
    9.4698707581e+01    1.0779187012e+02
    9.4797988892e+01    1.0825407410e+02
    9.4899093628e+01    1.0872451019e+02
    9.4998191833e+01    1.0918595123e+02
    9.5099113464e+01    1.0965658569e+02
    9.5198028564e+01    1.1011727142e+02
    9.5298767090e+01    1.1058609009e+02
    9.5397506714e+01    1.1104598236e+02
    9.5498062134e+01    1.1151396179e+02
    9.5598526001e+01    1.1198200989e+02
    9.5698677063e+01    1.1244737244e+02
    9.5798957825e+01    1.1291353607e+02
    9.5897262573e+01    1.1336984253e+02
    9.5997367859e+01    1.1383512878e+02
    9.6097389221e+01    1.1429946136e+02
    9.6197319031e+01    1.1476182556e+02
    9.6298385620e+01    1.1523081970e+02
    9.6397598267e+01    1.1568986511e+02
    9.6497261047e+01    1.1615031433e+02
    9.6597625732e+01    1.1661386108e+02
    9.6698669434e+01    1.1707949066e+02
    9.6797531128e+01    1.1753460693e+02
    9.6898727417e+01    1.1800081635e+02
    9.6997962952e+01    1.1845629120e+02
    9.7098983765e+01    1.1892044067e+02
    9.7198829651e+01    1.1937789917e+02
    9.7297805786e+01    1.1983031464e+02
    9.7397804260e+01    1.2028731537e+02
    9.7498481750e+01    1.2074629974e+02
    9.7597221375e+01    1.2119660187e+02
    9.7697723389e+01    1.2165347290e+02
    9.7797378540e+01    1.2210628510e+02
    9.7898590088e+01    1.2256485748e+02
    9.7998504639e+01    1.2301794434e+02
    9.8097908020e+01    1.2346653748e+02
    9.8197784424e+01    1.2391730499e+02
    9.8298652649e+01    1.2437151337e+02
    9.8397476196e+01    1.2481631470e+02
    9.8497848511e+01    1.2526675415e+02
    9.8597579956e+01    1.2571287537e+02
    9.8697227478e+01    1.2615888977e+02
    9.8797798157e+01    1.2660836792e+02
    9.8898170471e+01    1.2705485535e+02
    9.8997367859e+01    1.2749680328e+02
    9.9097785950e+01    1.2794270325e+02
    9.9198547363e+01    1.2838883972e+02
    9.9297386169e+01    1.2882556152e+02
    9.9398742676e+01    1.2927325439e+02
    9.9497947693e+01    1.2971087646e+02
    9.9598693848e+01    1.3015390015e+02
    9.9698287964e+01    1.3059138489e+02
    9.9798751831e+01    1.3103120422e+02
    9.9898498535e+01    1.3146784973e+02
    9.9997383118e+01    1.3189956665e+02
    1.0009886169e+02    1.3234184265e+02
    1.0019776917e+02    1.3277192688e+02
    1.0029878998e+02    1.3321125793e+02
    1.0039779663e+02    1.3363951111e+02
    1.0049861145e+02    1.3407650757e+02
    1.0059773254e+02    1.3450393677e+02
    1.0069821167e+02    1.3493775940e+02
    1.0079817200e+02    1.3536810303e+02
    1.0089797211e+02    1.3579737854e+02
    1.0099726105e+02    1.3622314453e+02
    1.0109825897e+02    1.3665559387e+02
    1.0119821930e+02    1.3708346558e+02
    1.0129831696e+02    1.3751171875e+02
    1.0139811707e+02    1.3793711853e+02
    1.0149870300e+02    1.3836570740e+02
    1.0159739685e+02    1.3878530884e+02
    1.0169844818e+02    1.3921528625e+02
    1.0179856873e+02    1.3964051819e+02
    1.0189766693e+02    1.4006021118e+02
    1.0199822998e+02    1.4048678589e+02
    1.0209803772e+02    1.4090934753e+02
    1.0219828033e+02    1.4133268738e+02
    1.0229798889e+02    1.4175456238e+02
    1.0239750671e+02    1.4217442322e+02
    1.0249894714e+02    1.4260211182e+02
    1.0259892273e+02    1.4302420044e+02
    1.0269889832e+02    1.4344479370e+02
    1.0279788971e+02    1.4386189270e+02
    1.0289794922e+02    1.4428250122e+02
    1.0299741364e+02    1.4470080566e+02
    1.0309806061e+02    1.4512419128e+02
    1.0319821167e+02    1.4554510498e+02
    1.0329817963e+02    1.4596499634e+02
    1.0339766693e+02    1.4638330078e+02
    1.0349790955e+02    1.4680371094e+02
    1.0359741211e+02    1.4722200012e+02
    1.0369793701e+02    1.4764379883e+02
    1.0379781342e+02    1.4806330872e+02
    1.0389743042e+02    1.4848100281e+02
    1.0399870300e+02    1.4890649414e+02
    1.0409855652e+02    1.4932560730e+02
    1.0419750977e+02    1.4974020386e+02
    1.0429783630e+02    1.5016120911e+02
    1.0439762115e+02    1.5058090210e+02
    1.0449752045e+02    1.5099978638e+02
    1.0459854889e+02    1.5142359924e+02
    1.0469783783e+02    1.5184078979e+02
    1.0479769135e+02    1.5226010132e+02
    1.0489846039e+02    1.5268389893e+02
    1.0499893188e+02    1.5310569763e+02
    1.0509741974e+02    1.5351950073e+02
    1.0519744110e+02    1.5394030762e+02
    1.0529727936e+02    1.5435989380e+02
    1.0539800262e+02    1.5478379822e+02
    1.0549781799e+02    1.5520429993e+02
    1.0559761047e+02    1.5562319946e+02
    1.0569827271e+02    1.5604750061e+02
    1.0579792023e+02    1.5646659851e+02
    1.0589839935e+02    1.5689010620e+02
    1.0599873352e+02    1.5731240845e+02
    1.0609822845e+02    1.5773200989e+02
    1.0619819641e+02    1.5815290833e+02
    1.0629788971e+02    1.5857290649e+02
    1.0639752197e+02    1.5899340820e+02
    1.0649761200e+02    1.5941519165e+02
    1.0659797668e+02    1.5983850098e+02
    1.0669809723e+02    1.6026089478e+02
    1.0679826355e+02    1.6068350220e+02
    1.0689784241e+02    1.6110398865e+02
    1.0699875641e+02    1.6152929688e+02
    1.0709732819e+02    1.6194509888e+02
    1.0719767761e+02    1.6236859131e+02
    1.0729821014e+02    1.6279290771e+02
    1.0739871979e+02    1.6321759033e+02
    1.0749788666e+02    1.6363619995e+02
    1.0759799957e+02    1.6405859375e+02
    1.0769760895e+02    1.6447859192e+02
    1.0779782104e+02    1.6490139771e+02
    1.0789788055e+02    1.6532379150e+02
    1.0799842072e+02    1.6574819946e+02
    1.0809786224e+02    1.6616790771e+02
    1.0819830322e+02    1.6659109497e+02
    1.0829756927e+02    1.6700990295e+02
    1.0839761353e+02    1.6743190002e+02
    1.0849830627e+02    1.6785610962e+02
    1.0859831238e+02    1.6827760315e+02
    1.0869779968e+02    1.6869689941e+02
    1.0879731750e+02    1.6911639404e+02
    1.0889830780e+02    1.6954180908e+02
    1.0899835205e+02    1.6996220398e+02
    1.0909834290e+02    1.7038299561e+02
    1.0919740295e+02    1.7079980469e+02
    1.0929804230e+02    1.7122320557e+02
    1.0939837646e+02    1.7164460754e+02
    1.0949826050e+02    1.7206359863e+02
    1.0959761810e+02    1.7248040771e+02
    1.0969773102e+02    1.7290020752e+02
    1.0979872894e+02    1.7332330322e+02
    1.0989737701e+02    1.7373599243e+02
    1.0999781036e+02    1.7415640259e+02
    1.1009861755e+02    1.7457769775e+02
    1.1019737244e+02    1.7498959351e+02
    1.1029791260e+02    1.7540908813e+02
    1.1039737701e+02    1.7582319641e+02
    1.1049800110e+02    1.7624169922e+02
    1.1059877014e+02    1.7666090393e+02
    1.1069841003e+02    1.7707490540e+02
    1.1079821777e+02    1.7748950195e+02
    1.1089881897e+02    1.7790570068e+02
    1.1099729919e+02    1.7831399536e+02
    1.1109854126e+02    1.7873220825e+02
    1.1119751740e+02    1.7914118958e+02
    1.1129724121e+02    1.7955178833e+02
    1.1139807129e+02    1.7996670532e+02
    1.1149758148e+02    1.8037631226e+02
    1.1159876251e+02    1.8079119873e+02
    1.1169738007e+02    1.8119509888e+02
    1.1179772949e+02    1.8160609436e+02
    1.1189771271e+02    1.8201451111e+02
    1.1199839783e+02    1.8242541504e+02
    1.1209806824e+02    1.8283099365e+02
    1.1219785309e+02    1.8323739624e+02
    1.1229802704e+02    1.8364329529e+02
    1.1239877319e+02    1.8405139160e+02
    1.1249780273e+02    1.8445260620e+02
    1.1259831238e+02    1.8485760498e+02
    1.1269732666e+02    1.8525709534e+02
    1.1279727936e+02    1.8565921021e+02
    1.1289772034e+02    1.8606259155e+02
    1.1299842072e+02    1.8646600342e+02
    1.1309825134e+02    1.8686479187e+02
    1.1319727325e+02    1.8725950623e+02
    1.1329737854e+02    1.8765830994e+02
    1.1339865875e+02    1.8806069946e+02
    1.1349790955e+02    1.8845471191e+02
    1.1359780884e+02    1.8885031128e+02
    1.1369773865e+02    1.8924479675e+02
    1.1379783630e+02    1.8963870239e+02
    1.1389808655e+02    1.9003298950e+02
    1.1399809265e+02    1.9042529297e+02
    1.1409745789e+02    1.9081408691e+02
    1.1419730377e+02    1.9120300293e+02
    1.1429859161e+02    1.9159819031e+02
    1.1439807129e+02    1.9198449707e+02
    1.1449774933e+02    1.9237100220e+02
    1.1459761047e+02    1.9275680542e+02
    1.1469780731e+02    1.9314318848e+02
    1.1479840851e+02    1.9352999878e+02
    1.1489804840e+02    1.9391259766e+02
    1.1499855804e+02    1.9429660034e+02
    1.1509816742e+02    1.9467730713e+02
    1.1519844055e+02    1.9505920410e+02
    1.1529759979e+02    1.9543579102e+02
    1.1539826202e+02    1.9581690979e+02
    1.1549852753e+02    1.9619470215e+02
    1.1559796143e+02    1.9657000732e+02
    1.1569818878e+02    1.9694570923e+02
    1.1579744720e+02    1.9731761169e+02
    1.1589752197e+02    1.9769198608e+02
    1.1599736023e+02    1.9806329346e+02
    1.1609855652e+02    1.9843960571e+02
    1.1619728088e+02    1.9880569458e+02
    1.1629804993e+02    1.9917761230e+02
    1.1639750671e+02    1.9954431152e+02
    1.1649765015e+02    1.9991189575e+02
    1.1659793854e+02    2.0027870178e+02
    1.1669763947e+02    2.0064311218e+02
    1.1679769897e+02    2.0100769043e+02
    1.1689743805e+02    2.0136970520e+02
    1.1699819946e+02    2.0173400879e+02
    1.1709837341e+02    2.0209588623e+02
    1.1719751740e+02    2.0245220947e+02
    1.1729728699e+02    2.0280969238e+02
    1.1739817810e+02    2.0317089844e+02
    1.1749752045e+02    2.0352510071e+02
    1.1759837341e+02    2.0388319397e+02
    1.1769763947e+02    2.0423449707e+02
    1.1779840851e+02    2.0459071350e+02
    1.1789813232e+02    2.0494158936e+02
    1.1799733734e+02    2.0528890991e+02
    1.1809819031e+02    2.0564218140e+02
    1.1819759369e+02    2.0598829651e+02
    1.1829815674e+02    2.0633770752e+02
    1.1839747620e+02    2.0668190002e+02
    1.1849858093e+02    2.0703041077e+02
    1.1859750366e+02    2.0737030029e+02
    1.1869872284e+02    2.0771780396e+02
    1.1879869080e+02    2.0805920410e+02
    1.1889823151e+02    2.0839768982e+02
    1.1899774170e+02    2.0873510742e+02
    1.1909760284e+02    2.0907258606e+02
    1.1919728851e+02    2.0940881348e+02
    1.1929862213e+02    2.0974859619e+02
    1.1939726257e+02    2.1007879639e+02
    1.1949799347e+02    2.1041418457e+02
    1.1959754944e+02    2.1074530029e+02
    1.1969815063e+02    2.1107800293e+02
    1.1979769135e+02    2.1140599060e+02
    1.1989823914e+02    2.1173651123e+02
    1.1999739838e+02    2.1206098938e+02
    1.2009735107e+02    2.1238717651e+02
    1.2019803619e+02    2.1271330261e+02
    1.2029721832e+02    2.1303509521e+02
    1.2039788818e+02    2.1335900879e+02
    1.2049733734e+02    2.1367799377e+02
    1.2059755707e+02    2.1399871826e+02
    1.2069770813e+02    2.1431759644e+02
    1.2079853058e+02    2.1463771057e+02
    1.2089862061e+02    2.1495437622e+02
    1.2099829865e+02    2.1526809692e+02
    1.2109819794e+02    2.1558129883e+02
    1.2119769287e+02    2.1589169312e+02
    1.2129728699e+02    2.1620111084e+02
    1.2139824677e+02    2.1651391602e+02
    1.2149720001e+02    2.1681939697e+02
    1.2159722900e+02    2.1712680054e+02
    1.2169850159e+02    2.1743600464e+02
    1.2179724884e+02    2.1773698425e+02
    1.2189807892e+02    2.1804321289e+02
    1.2199845886e+02    2.1834649658e+02
    1.2209835052e+02    2.1864639282e+02
    1.2219869232e+02    2.1894741821e+02
    1.2229830933e+02    2.1924418640e+02
    1.2239721680e+02    2.1953788757e+02
    1.2249787903e+02    2.1983520508e+02
    1.2259770966e+02    2.2012899780e+02
    1.2269783020e+02    2.2042199707e+02
    1.2279723358e+02    2.2071179199e+02
    1.2289795685e+02    2.2100448608e+02
    1.2299781036e+02    2.2129309082e+02
    1.2309818268e+02    2.2158128357e+02
    1.2319799042e+02    2.2186761475e+02
    1.2329759216e+02    2.2215170288e+02
    1.2339763641e+02    2.2243499756e+02
    1.2349817657e+02    2.2271899414e+02
    1.2359813690e+02    2.2300009155e+02
    1.2369793701e+02    2.2327990723e+02
    1.2379739380e+02    2.2355650330e+02
    1.2389733124e+02    2.2383380127e+02
    1.2399735260e+02    2.2411029053e+02
    1.2409780121e+02    2.2438589478e+02
    1.2419841766e+02    2.2466108704e+02
    1.2429715729e+02    2.2492948914e+02
    1.2439848328e+02    2.2520370483e+02
    1.2449797058e+02    2.2547190857e+02
    1.2459722900e+02    2.2573820496e+02
    1.2469844055e+02    2.2600799561e+02
    1.2479760742e+02    2.2627218628e+02
    1.2489832306e+02    2.2653840637e+02
    1.2499790955e+02    2.2680029297e+02
    1.2509764099e+02    2.2706097412e+02
    1.2519857025e+02    2.2732501221e+02
    1.2529754639e+02    2.2758001709e+02
    1.2539853668e+02    2.2784199524e+02
    1.2549768829e+02    2.2809597778e+02
    1.2559773254e+02    2.2835198975e+02
    1.2569803619e+02    2.2860700989e+02
    1.2579837799e+02    2.2886099243e+02
    1.2589810944e+02    2.2911198425e+02
    1.2599803162e+02    2.2936199951e+02
    1.2609809875e+02    2.2961199951e+02
    1.2619824982e+02    2.2986001587e+02
    1.2629844666e+02    2.3010798645e+02
    1.2639855957e+02    2.3035400391e+02
    1.2649764252e+02    2.3059600830e+02
    1.2659783936e+02    2.3083999634e+02
    1.2669841003e+02    2.3108300781e+02
    1.2679853821e+02    2.3132501221e+02
    1.2689858246e+02    2.3156399536e+02
    1.2699835205e+02    2.3180200195e+02
    1.2709838104e+02    2.3203900146e+02
    1.2719850159e+02    2.3227500916e+02
    1.2729724121e+02    2.3250799561e+02
    1.2739804077e+02    2.3274301147e+02
    1.2749771118e+02    2.3297499084e+02
    1.2759757233e+02    2.3320599365e+02
    1.2769744873e+02    2.3343600464e+02
    1.2779830170e+02    2.3366699219e+02
    1.2789733887e+02    2.3389199829e+02
    1.2799723816e+02    2.3411900330e+02
    1.2809820557e+02    2.3434700012e+02
    1.2819859314e+02    2.3457199097e+02
    1.2829721069e+02    2.3479199219e+02
    1.2839845276e+02    2.3501797485e+02
    1.2849716187e+02    2.3523599243e+02
    1.2859834290e+02    2.3545800781e+02
    1.2869770813e+02    2.3567599487e+02
    1.2879774475e+02    2.3589300537e+02
    1.2889854431e+02    2.3611199951e+02
    1.2899827576e+02    2.3632699585e+02
    1.2909829712e+02    2.3654100037e+02
    1.2919766235e+02    2.3675399780e+02
    1.2929827881e+02    2.3696701050e+02
    1.2939761353e+02    2.3717799377e+02
    1.2949728394e+02    2.3738699341e+02
    1.2959794617e+02    2.3759800720e+02
    1.2969859314e+02    2.3780799866e+02
    1.2979754639e+02    2.3801300049e+02
    1.2989793396e+02    2.3822000122e+02
    1.2999838257e+02    2.3842698669e+02
    1.3009748840e+02    2.3862899780e+02
    1.3019758606e+02    2.3883300781e+02
    1.3029832458e+02    2.3903698730e+02
    1.3039761353e+02    2.3923600769e+02
    1.3049797058e+02    2.3943701172e+02
    1.3059738159e+02    2.3963598633e+02
    1.3069825745e+02    2.3983599854e+02
    1.3079855347e+02    2.4003500366e+02
    1.3089849854e+02    2.4023098755e+02
    1.3099778748e+02    2.4042601013e+02
    1.3109851074e+02    2.4062200928e+02
    1.3119758606e+02    2.4081399536e+02
    1.3129824829e+02    2.4100799561e+02
    1.3139828491e+02    2.4120101929e+02
    1.3149830627e+02    2.4139201355e+02
    1.3159832764e+02    2.4158198547e+02
    1.3169882202e+02    2.4177301025e+02
    1.3179774475e+02    2.4196000671e+02
    1.3189797974e+02    2.4214801025e+02
    1.3199833679e+02    2.4233499146e+02
    1.3209823608e+02    2.4252099609e+02
    1.3219853210e+02    2.4270799255e+02
    1.3229876709e+02    2.4289300537e+02
    1.3239755249e+02    2.4307400513e+02
    1.3249870300e+02    2.4325901794e+02
    1.3259866333e+02    2.4344100952e+02
    1.3269880676e+02    2.4362199402e+02
    1.3279855347e+02    2.4380200195e+02
    1.3289865112e+02    2.4398199463e+02
    1.3299751282e+02    2.4416000366e+02
    1.3309791565e+02    2.4433799744e+02
    1.3319778442e+02    2.4451499939e+02
    1.3329776001e+02    2.4469198608e+02
    1.3339802551e+02    2.4486898804e+02
    1.3349845886e+02    2.4504400635e+02
    1.3359819031e+02    2.4521899414e+02
    1.3369778442e+02    2.4539201355e+02
    1.3379774475e+02    2.4556500244e+02
    1.3389886475e+02    2.4573899841e+02
    1.3399865723e+02    2.4591000366e+02
    1.3409820557e+02    2.4608000183e+02
    1.3419798279e+02    2.4624899292e+02
    1.3429763794e+02    2.4641799927e+02
    1.3439886475e+02    2.4658901978e+02
    1.3449827576e+02    2.4675498962e+02
    1.3459788513e+02    2.4692098999e+02
    1.3469845581e+02    2.4708898926e+02
    1.3479800415e+02    2.4725299072e+02
    1.3489880371e+02    2.4741899109e+02
    1.3499821472e+02    2.4758300781e+02
    1.3509893799e+02    2.4774700928e+02
    1.3519830322e+02    2.4790800476e+02
    1.3529895020e+02    2.4807098389e+02
    1.3539814758e+02    2.4823100281e+02
    1.3549877930e+02    2.4839201355e+02
    1.3559788513e+02    2.4855000305e+02
    1.3569839478e+02    2.4870899963e+02
    1.3579884338e+02    2.4886700439e+02
    1.3589775085e+02    2.4902299500e+02
    1.3599803162e+02    2.4917900085e+02
    1.3609817505e+02    2.4933599854e+02
    1.3619819641e+02    2.4949000549e+02
    1.3629809570e+02    2.4964401245e+02
    1.3639785767e+02    2.4979600525e+02
    1.3649896240e+02    2.4995098877e+02
    1.3659848022e+02    2.5010098267e+02
    1.3669787598e+02    2.5025099182e+02
    1.3679861450e+02    2.5040298462e+02
    1.3689775085e+02    2.5054998779e+02
    1.3699822998e+02    2.5069898987e+02
    1.3709858704e+02    2.5084799194e+02
    1.3719880676e+02    2.5099400330e+02
    1.3729888916e+02    2.5114100647e+02
    1.3739886475e+02    2.5128599548e+02
    1.3749870300e+02    2.5142900085e+02
    1.3759841919e+02    2.5157298279e+02
    1.3769801331e+02    2.5171499634e+02
    1.3779891968e+02    2.5185801697e+02
    1.3789826965e+02    2.5199800110e+02
    1.3799891663e+02    2.5213899231e+02
    1.3809800720e+02    2.5227798462e+02
    1.3819839478e+02    2.5241700745e+02
    1.3829867554e+02    2.5255499268e+02
    1.3839881897e+02    2.5269198608e+02
    1.3849882507e+02    2.5282801819e+02
    1.3859872437e+02    2.5296301270e+02
    1.3869848633e+02    2.5309701538e+02
    1.3879812622e+02    2.5322900391e+02
    1.3889906311e+02    2.5336401367e+02
    1.3899844360e+02    2.5349501038e+02
    1.3909913635e+02    2.5362701416e+02
    1.3919825745e+02    2.5375498962e+02
    1.3929869080e+02    2.5388499451e+02
    1.3939898682e+02    2.5401399231e+02
    1.3949916077e+02    2.5414199829e+02
    1.3959921265e+02    2.5426901245e+02
    1.3969912720e+02    2.5439498901e+02
    1.3979893494e+02    2.5451899719e+02
    1.3989860535e+02    2.5464201355e+02
    1.3999815369e+02    2.5476499939e+02
    1.4009898376e+02    2.5488900757e+02
    1.4019830322e+02    2.5501000977e+02
    1.4029887390e+02    2.5513098145e+02
    1.4039933777e+02    2.5525199890e+02
    1.4049827576e+02    2.5536900330e+02
    1.4059849548e+02    2.5548799133e+02
    1.4069859314e+02    2.5560501099e+02
    1.4079856873e+02    2.5572100830e+02
    1.4089842224e+02    2.5583599854e+02
    1.4099815369e+02    2.5595100403e+02
    1.4109915161e+02    2.5606597900e+02
    1.4119865417e+02    2.5617800903e+02
    1.4129940796e+02    2.5629101562e+02
    1.4139866638e+02    2.5640200806e+02
    1.4149920654e+02    2.5651202393e+02
    1.4159823608e+02    2.5661999512e+02
    1.4169851685e+02    2.5673001099e+02
    1.4179869080e+02    2.5683700562e+02
    1.4189874268e+02    2.5694396973e+02
    1.4199868774e+02    2.5705102539e+02
    1.4209851074e+02    2.5715499878e+02
    1.4219822693e+02    2.5726000977e+02
    1.4229919434e+02    2.5736401367e+02
    1.4239866638e+02    2.5746600342e+02
    1.4249938965e+02    2.5756896973e+02
    1.4259864807e+02    2.5766900635e+02
    1.4269914246e+02    2.5776998901e+02
    1.4279817200e+02    2.5786798096e+02
    1.4289843750e+02    2.5796600342e+02
    1.4299859619e+02    2.5806399536e+02
    1.4309863281e+02    2.5816101074e+02
    1.4319863892e+02    2.5825701904e+02
    1.4329879761e+02    2.5835202026e+02
    1.4339848328e+02    2.5844598389e+02
    1.4349940491e+02    2.5853997803e+02
    1.4359889221e+02    2.5863296509e+02
    1.4369825745e+02    2.5872396851e+02
    1.4379882812e+02    2.5881597900e+02
    1.4389930725e+02    2.5890600586e+02
    1.4399833679e+02    2.5899499512e+02
    1.4409858704e+02    2.5908398438e+02
    1.4419871521e+02    2.5917098999e+02
    1.4429873657e+02    2.5925900269e+02
    1.4439863586e+02    2.5934500122e+02
    1.4449842834e+02    2.5942999268e+02
    1.4459944153e+02    2.5951602173e+02
    1.4469934082e+02    2.5959899902e+02
    1.4479879761e+02    2.5968197632e+02
    1.4489945984e+02    2.5976400757e+02
    1.4499870300e+02    2.5984497070e+02
    1.4509913635e+02    2.5992697144e+02
    1.4519946289e+02    2.6000698853e+02
    1.4529835510e+02    2.6008596802e+02
    1.4539845276e+02    2.6016403198e+02
    1.4549844360e+02    2.6024099731e+02
    1.4559963989e+02    2.6032000732e+02
    1.4569940186e+02    2.6039599609e+02
    1.4579905701e+02    2.6047000122e+02
    1.4589860535e+02    2.6054501343e+02
    1.4599966431e+02    2.6061999512e+02
    1.4609898376e+02    2.6069201660e+02
    1.4619842529e+02    2.6076400757e+02
    1.4629899597e+02    2.6083602905e+02
    1.4639927673e+02    2.6090701294e+02
    1.4649946594e+02    2.6097698975e+02
    1.4659953308e+02    2.6104699707e+02
    1.4669949341e+02    2.6111599731e+02
    1.4679934692e+02    2.6118298340e+02
    1.4689909363e+02    2.6124996948e+02
    1.4699873352e+02    2.6131600952e+02
    1.4709954834e+02    2.6138201904e+02
    1.4719897461e+02    2.6144702148e+02
    1.4729957581e+02    2.6151199341e+02
    1.4739950562e+02    2.6157397461e+02
    1.4749861145e+02    2.6163601685e+02
    1.4759906006e+02    2.6169796753e+02
    1.4769923401e+02    2.6176000977e+02
    1.4779956055e+02    2.6182000732e+02
    1.4789953613e+02    2.6188003540e+02
    1.4799940491e+02    2.6193798828e+02
    1.4809965515e+02    2.6199597168e+02
    1.4819868469e+02    2.6205200195e+02
    1.4829870605e+02    2.6211001587e+02
    1.4839910889e+02    2.6216598511e+02
    1.4849949646e+02    2.6222003174e+02
    1.4859909058e+02    2.6227496338e+02
    1.4869943237e+02    2.6232897949e+02
    1.4879913330e+02    2.6238101196e+02
    1.4889898682e+02    2.6243200684e+02
    1.4899984741e+02    2.6248397827e+02
    1.4909878540e+02    2.6253399658e+02
    1.4919906616e+02    2.6258297729e+02
    1.4929946899e+02    2.6263299561e+02
    1.4939947510e+02    2.6268103027e+02
    1.4949963379e+02    2.6272799683e+02
    1.4959875488e+02    2.6277502441e+02
    1.4969863892e+02    2.6281997681e+02
    1.4979924011e+02    2.6286602783e+02
    1.4989872742e+02    2.6291000366e+02
    1.4999984741e+02    2.6295401001e+02
    1.5009962463e+02    2.6299600220e+02
    1.5019961548e+02    2.6303802490e+02
    1.5029898071e+02    2.6307998657e+02
    1.5039935303e+02    2.6312002563e+02
    1.5049986267e+02    2.6316101074e+02
    1.5059953308e+02    2.6319900513e+02
    1.5069895935e+02    2.6323797607e+02
    1.5079954529e+02    2.6327502441e+02
    1.5089962769e+02    2.6331198120e+02
    1.5099920654e+02    2.6334802246e+02
    1.5109890747e+02    2.6338296509e+02
    1.5119987488e+02    2.6341802979e+02
    1.5130003357e+02    2.6345199585e+02
    1.5139996338e+02    2.6348397827e+02
    1.5149940491e+02    2.6351699829e+02
    1.5159986877e+02    2.6354797363e+02
    1.5169892883e+02    2.6357897949e+02
    1.5179954529e+02    2.6360900879e+02
    1.5189999390e+02    2.6363897705e+02
    1.5199983215e+02    2.6366699219e+02
    1.5209997559e+02    2.6369396973e+02
    1.5219926453e+02    2.6372198486e+02
    1.5229949951e+02    2.6374801636e+02
    1.5240002441e+02    2.6377301025e+02
    1.5249963379e+02    2.6379797363e+02
    1.5259901428e+02    2.6382196045e+02
    1.5270001221e+02    2.6384600830e+02
    1.5280007935e+02    2.6386798096e+02
    1.5289978027e+02    2.6388998413e+02
    1.5299948120e+02    2.6391101074e+02
    1.5309956360e+02    2.6393099976e+02
    1.5319920349e+02    2.6395101929e+02
    1.5329928589e+02    2.6396997070e+02
    1.5339976501e+02    2.6398800659e+02
    1.5349935913e+02    2.6400497437e+02
    1.5359948730e+02    2.6402200317e+02
    1.5369961548e+02    2.6403698730e+02
    1.5379960632e+02    2.6405297852e+02
    1.5389999390e+02    2.6406799316e+02
    1.5399946594e+02    2.6408096313e+02
    1.5409986877e+02    2.6409402466e+02
    1.5419960022e+02    2.6410601807e+02
    1.5430018616e+02    2.6411801147e+02
    1.5439918518e+02    2.6412902832e+02
    1.5449957275e+02    2.6413803101e+02
    1.5459944153e+02    2.6414804077e+02
    1.5469917297e+02    2.6415603638e+02
    1.5479968262e+02    2.6416400146e+02
    1.5490014648e+02    2.6417095947e+02
    1.5499986267e+02    2.6417697144e+02
    1.5509989929e+02    2.6418301392e+02
    1.5519966125e+02    2.6418698120e+02
    1.5529945374e+02    2.6419100952e+02
    1.5539901733e+02    2.6419497681e+02
    1.5549928284e+02    2.6419702148e+02
    1.5559938049e+02    2.6419900513e+02
    1.5569903564e+02    2.6420001221e+02
    1.5580014038e+02    2.6420001221e+02
    1.5590022278e+02    2.6419897461e+02
    1.5599996948e+02    2.6419802856e+02
    1.5609959412e+02    2.6419500732e+02
    1.5619938660e+02    2.6419299316e+02
    1.5630010986e+02    2.6418798828e+02
    1.5639965820e+02    2.6418402100e+02
    1.5649911499e+02    2.6417901611e+02
    1.5660000610e+02    2.6417303467e+02
    1.5669958496e+02    2.6416601562e+02
    1.5679920959e+02    2.6415802002e+02
    1.5689961243e+02    2.6414999390e+02
    1.5699996948e+02    2.6414001465e+02
    1.5709992981e+02    2.6413000488e+02
    1.5720004272e+02    2.6412002563e+02
    1.5729948425e+02    2.6410800171e+02
    1.5739991760e+02    2.6409500122e+02
    1.5750010681e+02    2.6408200073e+02
    1.5760023499e+02    2.6406698608e+02
    1.5769943237e+02    2.6405197144e+02
    1.5779988098e+02    2.6403598022e+02
    1.5790037537e+02    2.6401901245e+02
    1.5800021362e+02    2.6400100708e+02
    1.5810011292e+02    2.6398202515e+02
    1.5820042419e+02    2.6396298218e+02
    1.5829995728e+02    2.6394299316e+02
    1.5839976501e+02    2.6392199707e+02
    1.5849923706e+02    2.6389901733e+02
    1.5859979248e+02    2.6387701416e+02
    1.5869943237e+02    2.6385296631e+02
    1.5880015564e+02    2.6382800293e+02
    1.5890046692e+02    2.6380197144e+02
    1.5899957275e+02    2.6377499390e+02
    1.5909939575e+02    2.6374700928e+02
    1.5919926453e+02    2.6371896362e+02
    1.5929998779e+02    2.6369003296e+02
    1.5939964294e+02    2.6365899658e+02
    1.5950016785e+02    2.6362698364e+02
    1.5959960938e+02    2.6359597778e+02
    1.5970014954e+02    2.6356201172e+02
    1.5980029297e+02    2.6352697754e+02
    1.5989950562e+02    2.6349301147e+02
    1.6000004578e+02    2.6345697021e+02
    1.6010038757e+02    2.6341897583e+02
    1.6020033264e+02    2.6338101196e+02
    1.6029966736e+02    2.6334201050e+02
    1.6039987183e+02    2.6330102539e+02
    1.6050004578e+02    2.6325997925e+02
    1.6059968567e+02    2.6321801758e+02
    1.6069973755e+02    2.6317498779e+02
    1.6080050659e+02    2.6313003540e+02
    1.6090005493e+02    2.6308499146e+02
    1.6100025940e+02    2.6303796387e+02
    1.6109977722e+02    2.6299102783e+02
    1.6120046997e+02    2.6294100952e+02
    1.6130030823e+02    2.6289196777e+02
    1.6139976501e+02    2.6284100342e+02
    1.6150039673e+02    2.6278903198e+02
    1.6159951782e+02    2.6273596191e+02
    1.6169967651e+02    2.6268200684e+02
    1.6180024719e+02    2.6262600708e+02
    1.6189970398e+02    2.6256997681e+02
    1.6200024414e+02    2.6251196289e+02
    1.6210005188e+02    2.6245300293e+02
    1.6220057678e+02    2.6239297485e+02
    1.6229991150e+02    2.6233200073e+02
    1.6239967346e+02    2.6227001953e+02
    1.6250039673e+02    2.6220599365e+02
    1.6259970093e+02    2.6214099121e+02
    1.6270019531e+02    2.6207501221e+02
    1.6280035400e+02    2.6200799561e+02
    1.6290052795e+02    2.6193902588e+02
    1.6299983215e+02    2.6186999512e+02
    1.6310058594e+02    2.6179797363e+02
    1.6320060730e+02    2.6172601318e+02
    1.6330010986e+02    2.6165301514e+02
    1.6340005493e+02    2.6157800293e+02
    1.6349986267e+02    2.6150201416e+02
    1.6360018921e+02    2.6142498779e+02
    1.6369993591e+02    2.6134594727e+02
    1.6379995728e+02    2.6126599121e+02
    1.6390000916e+02    2.6118499756e+02
    1.6399992371e+02    2.6110198975e+02
    1.6409968567e+02    2.6101794434e+02
    1.6419990540e+02    2.6093298340e+02
    1.6430035400e+02    2.6084600830e+02
    1.6439979553e+02    2.6075799561e+02
    1.6450065613e+02    2.6066802979e+02
    1.6460040283e+02    2.6057702637e+02
    1.6470036316e+02    2.6048400879e+02
    1.6480015564e+02    2.6039099121e+02
    1.6489984131e+02    2.6029699707e+02
    1.6500065613e+02    2.6019897461e+02
    1.6510058594e+02    2.6010101318e+02
    1.6520050049e+02    2.6000195312e+02
    1.6529995728e+02    2.5990197754e+02
    1.6539991760e+02    2.5979998779e+02
    1.6549972534e+02    2.5969702148e+02
    1.6560055542e+02    2.5958996582e+02
    1.6569978333e+02    2.5948498535e+02
    1.6580065918e+02    2.5937500000e+02
    1.6590089417e+02    2.5926599121e+02
    1.6600027466e+02    2.5915600586e+02
    1.6609991455e+02    2.5904400635e+02
    1.6620002747e+02    2.5892999268e+02
    1.6630039978e+02    2.5881396484e+02
    1.6640072632e+02    2.5869702148e+02
    1.6649978638e+02    2.5858001709e+02
    1.6660017395e+02    2.5845898438e+02
    1.6670077515e+02    2.5833697510e+02
    1.6679992676e+02    2.5821502686e+02
    1.6690037537e+02    2.5808996582e+02
    1.6700027466e+02    2.5796496582e+02
    1.6710006714e+02    2.5783801270e+02
    1.6719981384e+02    2.5770898438e+02
    1.6729986572e+02    2.5757904053e+02
    1.6740098572e+02    2.5744500732e+02
    1.6750025940e+02    2.5731298828e+02
    1.6760101318e+02    2.5717700195e+02
    1.6770086670e+02    2.5703997803e+02
    1.6780038452e+02    2.5690203857e+02
    1.6789996338e+02    2.5676397705e+02
    1.6800041199e+02    2.5662200928e+02
    1.6810096741e+02    2.5647802734e+02
    1.6820045471e+02    2.5633496094e+02
    1.6830076599e+02    2.5618896484e+02
    1.6840089417e+02    2.5603997803e+02
    1.6850079346e+02    2.5589202881e+02
    1.6860050964e+02    2.5574096680e+02
    1.6870007324e+02    2.5558996582e+02
    1.6880050659e+02    2.5543499756e+02
    1.6890025330e+02    2.5528002930e+02
    1.6900015259e+02    2.5512304688e+02
    1.6910017395e+02    2.5496502686e+02
    1.6920092773e+02    2.5480303955e+02
    1.6929995728e+02    2.5464300537e+02
    1.6940061951e+02    2.5447802734e+02
    1.6950090027e+02    2.5431298828e+02
    1.6960020447e+02    2.5414697266e+02
    1.6970057678e+02    2.5397900391e+02
    1.6980064392e+02    2.5380895996e+02
    1.6990043640e+02    2.5363696289e+02
    1.7000090027e+02    2.5346295166e+02
    1.7010041809e+02    2.5328900146e+02
    1.7020001221e+02    2.5311297607e+02
    1.7030062866e+02    2.5293402100e+02
    1.7040010071e+02    2.5275500488e+02
    1.7050079346e+02    2.5257202148e+02
    1.7060081482e+02    2.5238897705e+02
    1.7070085144e+02    2.5220397949e+02
    1.7080009460e+02    2.5201898193e+02
    1.7090054321e+02    2.5183099365e+02
    1.7100094604e+02    2.5163897705e+02
    1.7110000610e+02    2.5145001221e+02
    1.7120010376e+02    2.5125598145e+02
    1.7130003357e+02    2.5106103516e+02
    1.7140020752e+02    2.5086401367e+02
    1.7150010681e+02    2.5066595459e+02
    1.7160017395e+02    2.5046600342e+02
    1.7170007324e+02    2.5026501465e+02
    1.7180114746e+02    2.5005895996e+02
    1.7190104675e+02    2.4985504150e+02
    1.7200088501e+02    2.4964801025e+02
    1.7210067749e+02    2.4944000244e+02
    1.7220042419e+02    2.4922998047e+02
    1.7230010986e+02    2.4901898193e+02
    1.7240101624e+02    2.4880297852e+02
    1.7250059509e+02    2.4858801270e+02
    1.7260130310e+02    2.4836999512e+02
    1.7270080566e+02    2.4815203857e+02
    1.7280024719e+02    2.4793304443e+02
    1.7290089417e+02    2.4770800781e+02
    1.7300021362e+02    2.4748596191e+02
    1.7310072327e+02    2.4725903320e+02
    1.7320123291e+02    2.4703002930e+02
    1.7330044556e+02    2.4680200195e+02
    1.7340086365e+02    2.4657000732e+02
    1.7350123596e+02    2.4633599854e+02
    1.7360029602e+02    2.4610400391e+02
    1.7370059204e+02    2.4586700439e+02
    1.7380082703e+02    2.4562799072e+02
    1.7390101624e+02    2.4538702393e+02
    1.7400117493e+02    2.4514501953e+02
    1.7410127258e+02    2.4490100098e+02
    1.7420135498e+02    2.4465600586e+02
    1.7430137634e+02    2.4440802002e+02
    1.7440136719e+02    2.4415899658e+02
    1.7450129700e+02    2.4390899658e+02
    1.7460119629e+02    2.4365600586e+02
    1.7470106506e+02    2.4340197754e+02
    1.7480087280e+02    2.4314697266e+02
    1.7490066528e+02    2.4289001465e+02
    1.7500039673e+02    2.4263000488e+02
    1.7510134888e+02    2.4236602783e+02
    1.7520100403e+02    2.4210400391e+02
    1.7530064392e+02    2.4183898926e+02
    1.7540147400e+02    2.4157104492e+02
    1.7550100708e+02    2.4130297852e+02
    1.7560052490e+02    2.4103399658e+02
    1.7570123291e+02    2.4075903320e+02
    1.7580065918e+02    2.4048699951e+02
    1.7590129089e+02    2.4020898438e+02
    1.7600065613e+02    2.3993304443e+02
    1.7610121155e+02    2.3965093994e+02
    1.7620048523e+02    2.3937200928e+02
    1.7630096436e+02    2.3908703613e+02
    1.7640141296e+02    2.3880102539e+02
    1.7650057983e+02    2.3851605225e+02
    1.7660095215e+02    2.3822601318e+02
    1.7670127869e+02    2.3793103027e+02
    1.7680157471e+02    2.3764495850e+02
    1.7690058899e+02    2.3735101318e+02
    1.7700082397e+02    2.3705102539e+02
    1.7710099792e+02    2.3675000000e+02
    1.7720115662e+02    2.3645800781e+02
    1.7730126953e+02    2.3615399170e+02
    1.7740133667e+02    2.3584802246e+02
    1.7750138855e+02    2.3554101562e+02
    1.7760139465e+02    2.3523199463e+02
    1.7770135498e+02    2.3493200684e+02
    1.7780130005e+02    2.3461999512e+02
    1.7790119934e+02    2.3430700684e+02
    1.7800106812e+02    2.3399304199e+02
    1.7810090637e+02    2.3367706299e+02
    1.7820069885e+02    2.3335894775e+02
    1.7830047607e+02    2.3303997803e+02
    1.7840144348e+02    2.3271502686e+02
    1.7850114441e+02    2.3239306641e+02
    1.7860081482e+02    2.3206896973e+02
    1.7870167542e+02    2.3175000000e+02
    1.7880128479e+02    2.3142303467e+02
    1.7890086365e+02    2.3109503174e+02
    1.7900163269e+02    2.3076098633e+02
    1.7910116577e+02    2.3042999268e+02
    1.7920065308e+02    2.3009802246e+02
    1.7930134583e+02    2.2975897217e+02
    1.7940078735e+02    2.2942395020e+02
    1.7950140381e+02    2.2908203125e+02
    1.7960078430e+02    2.2874304199e+02
    1.7970135498e+02    2.2839898682e+02
    1.7980067444e+02    2.2805798340e+02
    1.7990118408e+02    2.2771002197e+02
    1.8000167847e+02    2.2736096191e+02
    1.8010090637e+02    2.2701495361e+02
    1.8020133972e+02    2.2666302490e+02
    1.8030174255e+02    2.2630004883e+02
    1.8040089417e+02    2.2594995117e+02
    1.8050123596e+02    2.2559301758e+02
    1.8060156250e+02    2.2523504639e+02
    1.8070065308e+02    2.2488092041e+02
    1.8080093384e+02    2.2452001953e+02
    1.8090118408e+02    2.2415704346e+02
    1.8100143433e+02    2.2379296875e+02
    1.8110163879e+02    2.2342797852e+02
    1.8120182800e+02    2.2306103516e+02
    1.8130076599e+02    2.2269696045e+02
    1.8140092468e+02    2.2232800293e+02
    1.8150105286e+02    2.2195605469e+02
    1.8160116577e+02    2.2158398438e+02
    1.8170124817e+02    2.2121002197e+02
    1.8180133057e+02    2.2083404541e+02
    1.8190138245e+02    2.2046795654e+02
    1.8200164795e+02    2.2008502197e+02
    1.8210166931e+02    2.1970593262e+02
    1.8220167542e+02    2.1932501221e+02
    1.8230174255e+02    2.1895202637e+02
    1.8240170288e+02    2.1856793213e+02
    1.8250166321e+02    2.1818402100e+02
    1.8260162354e+02    2.1779803467e+02
    1.8270193481e+02    2.1741296387e+02
    1.8280122375e+02    2.1702801514e+02
    1.8290121460e+02    2.1664697266e+02
    1.8300111389e+02    2.1625701904e+02
    1.8310098267e+02    2.1586505127e+02
    1.8320086670e+02    2.1548199463e+02
    1.8330194092e+02    2.1508300781e+02
    1.8340179443e+02    2.1468792725e+02
    1.8350163269e+02    2.1430200195e+02
    1.8360145569e+02    2.1390502930e+02
    1.8370126343e+02    2.1351696777e+02
    1.8380107117e+02    2.1311804199e+02
    1.8390086365e+02    2.1272894287e+02
    1.8400088501e+02    2.1233398438e+02
    1.8410194397e+02    2.1193493652e+02
    1.8420170593e+02    2.1153302002e+02
    1.8430148315e+02    2.1114007568e+02
    1.8440168762e+02    2.1074700928e+02
    1.8450105286e+02    2.1035003662e+02
    1.8460110474e+02    2.0994897461e+02
    1.8470085144e+02    2.0955303955e+02
    1.8480181885e+02    2.0915100098e+02
    1.8490156555e+02    2.0875305176e+02
    1.8500146484e+02    2.0835198975e+02
    1.8510122681e+02    2.0795404053e+02
    1.8520149231e+02    2.0755395508e+02
    1.8530122375e+02    2.0715502930e+02
    1.8540182495e+02    2.0675799561e+02
    1.8550166321e+02    2.0635601807e+02
    1.8560087585e+02    2.0596697998e+02
    1.8570208740e+02    2.0556604004e+02
    1.8580155945e+02    2.0517095947e+02
    1.8590165710e+02    2.0477404785e+02
    1.8600148010e+02    2.0437194824e+02
    1.8610168457e+02    2.0398303223e+02
    1.8620097351e+02    2.0358294678e+02
    1.8630105591e+02    2.0319604492e+02
    1.8640115356e+02    2.0279998779e+02
    1.8650134277e+02    2.0240203857e+02
    1.8660101318e+02    2.0201599121e+02
    1.8670193481e+02    2.0162506104e+02
    1.8680166626e+02    2.0123901367e+02
    1.8690179443e+02    2.0084497070e+02
    1.8700212097e+02    2.0045898438e+02
    1.8710200500e+02    2.0008197021e+02
    1.8720094299e+02    1.9970599365e+02
    1.8730143738e+02    1.9931994629e+02
    1.8740197754e+02    1.9894403076e+02
    1.8750132751e+02    1.9856396484e+02
    1.8760156250e+02    1.9818707275e+02
    1.8770123291e+02    1.9782403564e+02
    1.8780117798e+02    1.9744793701e+02
    1.8790133667e+02    1.9708300781e+02
    1.8800144958e+02    1.9673297119e+02
    1.8810147095e+02    1.9638305664e+02
    1.8820213318e+02    1.9603900146e+02
    1.8830134583e+02    1.9571594238e+02
    1.8840184021e+02    1.9540002441e+02
    1.8850100708e+02    1.9509997559e+02
    1.8860154724e+02    1.9481994629e+02
    1.8870207214e+02    1.9455004883e+02
    1.8880128479e+02    1.9431994629e+02
    1.8890194702e+02    1.9409002686e+02
    1.8900143433e+02    1.9390002441e+02
    1.8910101318e+02    1.9372998047e+02
    1.8920198059e+02    1.9357006836e+02
    1.8930172729e+02    1.9344000244e+02
    1.8940153503e+02    1.9333996582e+02
    1.8950143433e+02    1.9326000977e+02
    1.8960142517e+02    1.9320996094e+02
    1.8970135498e+02    1.9317993164e+02
    1.8980137634e+02    1.9316003418e+02
    1.8990225220e+02    1.9318005371e+02
    1.9000227356e+02    1.9321997070e+02
    1.9010134888e+02    1.9327001953e+02
    1.9020135498e+02    1.9333996582e+02
    1.9030186462e+02    1.9342993164e+02
    1.9040115356e+02    1.9354003906e+02
    1.9050183105e+02    1.9367004395e+02
    1.9060125732e+02    1.9380993652e+02
    1.9070208740e+02    1.9395996094e+02
    1.9080165100e+02    1.9410998535e+02
    1.9090130615e+02    1.9427001953e+02
    1.9100236511e+02    1.9444995117e+02
    1.9110218811e+02    1.9462011719e+02
    1.9120210266e+02    1.9480004883e+02
    1.9130210876e+02    1.9498999023e+02
    1.9140171814e+02    1.9516992188e+02
    1.9150161743e+02    1.9535998535e+02
    1.9160116577e+02    1.9555004883e+02
    1.9170211792e+02    1.9573999023e+02
    1.9180163574e+02    1.9592993164e+02
    1.9190217590e+02    1.9613000488e+02
    1.9200128174e+02    1.9631005859e+02
    1.9210148621e+02    1.9651000977e+02
    1.9220149231e+02    1.9669995117e+02
    1.9230131531e+02    1.9688000488e+02
    1.9240229797e+02    1.9707006836e+02
    1.9250216675e+02    1.9726000977e+02
    1.9260211182e+02    1.9743994141e+02
    1.9270242310e+02    1.9763000488e+02
    1.9280230713e+02    1.9781005859e+02
    1.9290144348e+02    1.9800000000e+02
    1.9300166321e+02    1.9817993164e+02
    1.9310208130e+02    1.9835998535e+02
    1.9320140076e+02    1.9855004883e+02
    1.9330183411e+02    1.9872009277e+02
    1.9340217590e+02    1.9890002441e+02
    1.9350247192e+02    1.9906994629e+02
    1.9360244751e+02    1.9925000000e+02
    1.9370135498e+02    1.9942004395e+02
    1.9380192566e+02    1.9960009766e+02
    1.9390141296e+02    1.9976000977e+02
    1.9400219727e+02    1.9994006348e+02
    1.9410153198e+02    2.0009997559e+02
    1.9420216370e+02    2.0027001953e+02
    1.9430262756e+02    2.0042993164e+02
    1.9440240479e+02    2.0060009766e+02
    1.9450224304e+02    2.0077001953e+02
    1.9460177612e+02    2.0092004395e+02
    1.9470225525e+02    2.0107995605e+02
    1.9480261230e+02    2.0125000000e+02
    1.9490159607e+02    2.0140991211e+02
    1.9500172424e+02    2.0156005859e+02
    1.9510177612e+02    2.0172009277e+02
    1.9520175171e+02    2.0186999512e+02
    1.9530163574e+02    2.0202001953e+02
    1.9540147400e+02    2.0217004395e+02
    1.9550166321e+02    2.0231994629e+02
    1.9560243225e+02    2.0247998047e+02
    1.9570202637e+02    2.0261999512e+02
    1.9580197144e+02    2.0276989746e+02
    1.9590199280e+02    2.0291003418e+02
    1.9600256348e+02    2.0306005859e+02
    1.9610148621e+02    2.0320007324e+02
    1.9620225525e+02    2.0333996582e+02
    1.9630168152e+02    2.0347998047e+02
    1.9640237427e+02    2.0361999512e+02
    1.9650270081e+02    2.0376000977e+02
    1.9660165405e+02    2.0389001465e+02
    1.9670228577e+02    2.0402001953e+02
    1.9680271912e+02    2.0416003418e+02
    1.9690209961e+02    2.0428991699e+02
    1.9700239563e+02    2.0441992188e+02
    1.9710151672e+02    2.0455004883e+02
    1.9720167542e+02    2.0467004395e+02
    1.9730252075e+02    2.0480004883e+02
    1.9740185547e+02    2.0492004395e+02
    1.9750195312e+02    2.0505004883e+02
    1.9760186768e+02    2.0517004395e+02
    1.9770283508e+02    2.0529003906e+02
    1.9780166626e+02    2.0541003418e+02
    1.9790191650e+02    2.0552001953e+02
    1.9800247192e+02    2.0563000488e+02
    1.9810284424e+02    2.0576000977e+02
    1.9820185852e+02    2.0585998535e+02
    1.9830177307e+02    2.0596997070e+02
    1.9840208435e+02    2.0607995605e+02
    1.9850213623e+02    2.0618994141e+02
    1.9860212708e+02    2.0630004883e+02
    1.9870202637e+02    2.0640002441e+02
    1.9880198669e+02    2.0651000977e+02
    1.9890255737e+02    2.0660998535e+02
    1.9900230408e+02    2.0670996094e+02
    1.9910220337e+02    2.0681005859e+02
    1.9920222473e+02    2.0691003418e+02
    1.9930239868e+02    2.0701000977e+02
    1.9940283203e+02    2.0709997559e+02
    1.9950224304e+02    2.0719995117e+02
    1.9960197449e+02    2.0728002930e+02
    1.9970201111e+02    2.0738000488e+02
    1.9980232239e+02    2.0747998047e+02
    1.9990292358e+02    2.0756005859e+02
endcurve
