Curveplot
LS-DYNA keyword deck by LS-PrePost
Abscissa
Ordinate
XY data
NBDLHeadzCoo-1 #pts=2000
* Minval=    -6.2149200439e+01 at time=       187.2009429932
* Maxval=     1.5358110046e+02 at time=         0.0000000000
    0.0000000000e+00    1.5358110046e+02
    9.8365060985e-02    1.5358110046e+02
    1.9873757660e-01    1.5358110046e+02
    2.9911008477e-01    1.5358110046e+02
    3.9883506298e-01    1.5358110046e+02
    4.9901589751e-01    1.5358110046e+02
    5.9799414873e-01    1.5358110046e+02
    6.9897508621e-01    1.5358110046e+02
    7.9914414883e-01    1.5358110046e+02
    8.9830088615e-01    1.5358110046e+02
    9.9811571836e-01    1.5358110046e+02
    1.0982971191e+00    1.5358110046e+02
    1.1981241703e+00    1.5358110046e+02
    1.2986696959e+00    1.5358110046e+02
    1.3979841471e+00    1.5358110046e+02
    1.4989122152e+00    1.5358110046e+02
    1.5983362198e+00    1.5358110046e+02
    1.6982423067e+00    1.5358110046e+02
    1.7989629507e+00    1.5358110046e+02
    1.8981628418e+00    1.5358110046e+02
    1.9999833107e+00    1.5358110046e+02
    2.0999107361e+00    1.5358110046e+02
    2.1984784603e+00    1.5358110046e+02
    2.2999196053e+00    1.5358110046e+02
    2.3982484341e+00    1.5358110046e+02
    2.4995558262e+00    1.5358110046e+02
    2.5984883308e+00    1.5358110046e+02
    2.6998195648e+00    1.5358110046e+02
    2.7991170883e+00    1.5358110046e+02
    2.8987772465e+00    1.5358110046e+02
    2.9989800453e+00    1.5358110046e+02
    3.0986473560e+00    1.5358110046e+02
    3.1994657516e+00    1.5358110046e+02
    3.2992620468e+00    1.5358110046e+02
    3.3991119862e+00    1.5358110046e+02
    3.4980444908e+00    1.5358110046e+02
    3.5988702774e+00    1.5358110046e+02
    3.6984302998e+00    1.5358110046e+02
    3.7996137142e+00    1.5358110046e+02
    3.8991570473e+00    1.5358110046e+02
    3.9990727901e+00    1.5358110046e+02
    4.0991539955e+00    1.5358110046e+02
    4.1990599632e+00    1.5358110046e+02
    4.2998709679e+00    1.5358110046e+02
    4.3997912407e+00    1.5358110046e+02
    4.4992079735e+00    1.5358110046e+02
    4.5995025635e+00    1.5358110046e+02
    4.6995763779e+00    1.5358110046e+02
    4.7993679047e+00    1.5358110046e+02
    4.8996973038e+00    1.5358110046e+02
    4.9992547035e+00    1.5358110046e+02
    5.0983138084e+00    1.5358110046e+02
    5.1982269287e+00    1.5358110046e+02
    5.2995338440e+00    1.5358110046e+02
    5.3984837532e+00    1.5358110046e+02
    5.4996714592e+00    1.5358110046e+02
    5.5988473892e+00    1.5358110046e+02
    5.6987600327e+00    1.5358110046e+02
    5.7979359627e+00    1.5358110046e+02
    5.8988785744e+00    1.5358110046e+02
    5.9982905388e+00    1.5358110046e+02
    6.0984635353e+00    1.5358110046e+02
    6.1979970932e+00    1.5358110046e+02
    6.2989320755e+00    1.5358110046e+02
    6.3998770714e+00    1.5358110046e+02
    6.4996786118e+00    1.5358110046e+02
    6.5987358093e+00    1.5358110046e+02
    6.6979141235e+00    1.5358110046e+02
    6.7991070747e+00    1.5358110046e+02
    6.8979086876e+00    1.5358110046e+02
    6.9992332458e+00    1.5358110046e+02
    7.0981383324e+00    1.5358110046e+02
    7.1990761757e+00    1.5358110046e+02
    7.2996587753e+00    1.5358110046e+02
    7.3987255096e+00    1.5358110046e+02
    7.4984021187e+00    1.5358110046e+02
    7.5996127129e+00    1.5358110046e+02
    7.6990561485e+00    1.5358110046e+02
    7.7983560562e+00    1.5358110046e+02
    7.8988790512e+00    1.5358110046e+02
    7.9989681244e+00    1.5358110046e+02
    8.0987539291e+00    1.5358110046e+02
    8.1997108459e+00    1.5358110046e+02
    8.2980365753e+00    1.5358110046e+02
    8.3983631134e+00    1.5358110046e+02
    8.4982910156e+00    1.5358110046e+02
    8.5989751816e+00    1.5358110046e+02
    8.6981687546e+00    1.5358110046e+02
    8.7994832993e+00    1.5358110046e+02
    8.8999271393e+00    1.5358110046e+02
    8.9992561340e+00    1.5358110046e+02
    9.0983324051e+00    1.5358110046e+02
    9.1997509003e+00    1.5358110046e+02
    9.2997226715e+00    1.5358110046e+02
    9.3984956741e+00    1.5358110046e+02
    9.4998025894e+00    1.5358110046e+02
    9.5985689163e+00    1.5358110046e+02
    9.6991291046e+00    1.5358110046e+02
    9.7993326187e+00    1.5358110046e+02
    9.8988971710e+00    1.5358110046e+02
    9.9982023239e+00    1.5358110046e+02
    1.0099879265e+01    1.5358110046e+02
    1.0198952675e+01    1.5358110046e+02
    1.0298115730e+01    1.5358110046e+02
    1.0399428368e+01    1.5358110046e+02
    1.0499101639e+01    1.5358110046e+02
    1.0598182678e+01    1.5358110046e+02
    1.0699363708e+01    1.5358110046e+02
    1.0798913956e+01    1.5358110046e+02
    1.0898219109e+01    1.5358110046e+02
    1.0999284744e+01    1.5358110046e+02
    1.1099108696e+01    1.5358110046e+02
    1.1199932098e+01    1.5358110046e+02
    1.1299236298e+01    1.5358110046e+02
    1.1398427010e+01    1.5358110046e+02
    1.1499877930e+01    1.5358110046e+02
    1.1599672318e+01    1.5358110046e+02
    1.1699766159e+01    1.5358110046e+02
    1.1799321175e+01    1.5358110046e+02
    1.1898141861e+01    1.5358110046e+02
    1.1999583244e+01    1.5358110046e+02
    1.2099136353e+01    1.5358110046e+02
    1.2198308945e+01    1.5358110046e+02
    1.2299142838e+01    1.5358110046e+02
    1.2398451805e+01    1.5358110046e+02
    1.2499900818e+01    1.5358110046e+02
    1.2598959923e+01    1.5358110046e+02
    1.2699355125e+01    1.5358110046e+02
    1.2799160957e+01    1.5358110046e+02
    1.2899873734e+01    1.5358110046e+02
    1.2999309540e+01    1.5358110046e+02
    1.3098253250e+01    1.5358110046e+02
    1.3198334694e+01    1.5358110046e+02
    1.3299021721e+01    1.5358110046e+02
    1.3398180962e+01    1.5358110046e+02
    1.3499617577e+01    1.5358110046e+02
    1.3598690033e+01    1.5358110046e+02
    1.3699529648e+01    1.5358110046e+02
    1.3798324585e+01    1.5358110046e+02
    1.3898541451e+01    1.5358110046e+02
    1.3998090744e+01    1.5358110046e+02
    1.4097902298e+01    1.5358110046e+02
    1.4199939728e+01    1.5358110046e+02
    1.4299756050e+01    1.5358009338e+02
    1.4399304390e+01    1.5358009338e+02
    1.4498247147e+01    1.5358009338e+02
    1.4599821091e+01    1.5358009338e+02
    1.4698377609e+01    1.5358009338e+02
    1.4798705101e+01    1.5358009338e+02
    1.4899882317e+01    1.5358009338e+02
    1.4999693871e+01    1.5358009338e+02
    1.5098764420e+01    1.5358009338e+02
    1.5198931694e+01    1.5358009338e+02
    1.5299136162e+01    1.5358009338e+02
    1.5398542404e+01    1.5358009338e+02
    1.5499608994e+01    1.5358009338e+02
    1.5598923683e+01    1.5358009338e+02
    1.5698637009e+01    1.5358009338e+02
    1.5798559189e+01    1.5358009338e+02
    1.5899603844e+01    1.5358009338e+02
    1.5998407364e+01    1.5358009338e+02
    1.6098991394e+01    1.5358009338e+02
    1.6199161530e+01    1.5358009338e+02
    1.6298103333e+01    1.5358009338e+02
    1.6399183273e+01    1.5358009338e+02
    1.6498374939e+01    1.5358009338e+02
    1.6599311829e+01    1.5358009338e+02
    1.6698970795e+01    1.5358009338e+02
    1.6798517227e+01    1.5358009338e+02
    1.6899709702e+01    1.5358009338e+02
    1.6998285294e+01    1.5358009338e+02
    1.7099710464e+01    1.5358009338e+02
    1.7198265076e+01    1.5358009338e+02
    1.7299734116e+01    1.5358009338e+02
    1.7399528503e+01    1.5358009338e+02
    1.7498470306e+01    1.5358009338e+02
    1.7599685669e+01    1.5358009338e+02
    1.7698749542e+01    1.5358009338e+02
    1.7798423767e+01    1.5358009338e+02
    1.7898258209e+01    1.5358009338e+02
    1.7999206543e+01    1.5358009338e+02
    1.8098646164e+01    1.5358009338e+02
    1.8197952271e+01    1.5358009338e+02
    1.8299135208e+01    1.5358009338e+02
    1.8399856567e+01    1.5358009338e+02
    1.8499296188e+01    1.5358009338e+02
    1.8599950790e+01    1.5358009338e+02
    1.8698879242e+01    1.5358009338e+02
    1.8799966812e+01    1.5358009338e+02
    1.8898754120e+01    1.5358009338e+02
    1.8998327255e+01    1.5358009338e+02
    1.9098264694e+01    1.5358009338e+02
    1.9199087143e+01    1.5358009338e+02
    1.9298044205e+01    1.5358009338e+02
    1.9399372101e+01    1.5358009338e+02
    1.9498315811e+01    1.5358009338e+02
    1.9599145889e+01    1.5358009338e+02
    1.9698076248e+01    1.5358009338e+02
    1.9799880981e+01    1.5358009338e+02
    1.9899536133e+01    1.5358009338e+02
    1.9998598099e+01    1.5358009338e+02
    2.0099912643e+01    1.5358009338e+02
    2.0198587418e+01    1.5358009338e+02
    2.0299430847e+01    1.5358009338e+02
    2.0399606705e+01    1.5358009338e+02
    2.0499137878e+01    1.5358009338e+02
    2.0598808289e+01    1.5358009338e+02
    2.0698734283e+01    1.5358009338e+02
    2.0798637390e+01    1.5358009338e+02
    2.0898576736e+01    1.5358009338e+02
    2.0997995377e+01    1.5358009338e+02
    2.1099178314e+01    1.5358009338e+02
    2.1198604584e+01    1.5358009338e+02
    2.1299432755e+01    1.5357910156e+02
    2.1398874283e+01    1.5357910156e+02
    2.1499208450e+01    1.5357910156e+02
    2.1599540710e+01    1.5357910156e+02
    2.1699077606e+01    1.5357910156e+02
    2.1798261642e+01    1.5357910156e+02
    2.1899696350e+01    1.5357910156e+02
    2.1999258041e+01    1.5357910156e+02
    2.2098911285e+01    1.5357910156e+02
    2.2198106766e+01    1.5357910156e+02
    2.2299160004e+01    1.5357910156e+02
    2.2398107529e+01    1.5357910156e+02
    2.2499298096e+01    1.5357910156e+02
    2.2598976135e+01    1.5357910156e+02
    2.2697942734e+01    1.5357910156e+02
    2.2798133850e+01    1.5357910156e+02
    2.2897928238e+01    1.5357910156e+02
    2.2998743057e+01    1.5357910156e+02
    2.3098552704e+01    1.5357910156e+02
    2.3199132919e+01    1.5357910156e+02
    2.3299303055e+01    1.5357910156e+02
    2.3399572372e+01    1.5357910156e+02
    2.3499296188e+01    1.5357910156e+02
    2.3599205017e+01    1.5357910156e+02
    2.3698276520e+01    1.5357910156e+02
    2.3799823761e+01    1.5357910156e+02
    2.3898775101e+01    1.5357910156e+02
    2.3998435974e+01    1.5357910156e+02
    2.4099605560e+01    1.5357910156e+02
    2.4198423386e+01    1.5357910156e+02
    2.4299402237e+01    1.5357910156e+02
    2.4398933411e+01    1.5357910156e+02
    2.4498485565e+01    1.5357809448e+02
    2.4599775314e+01    1.5357809448e+02
    2.4699245453e+01    1.5357809448e+02
    2.4798667908e+01    1.5357809448e+02
    2.4899009705e+01    1.5357809448e+02
    2.4998075485e+01    1.5357809448e+02
    2.5098606110e+01    1.5357809448e+02
    2.5198949814e+01    1.5357809448e+02
    2.5298389435e+01    1.5357809448e+02
    2.5399473190e+01    1.5357809448e+02
    2.5498764038e+01    1.5357809448e+02
    2.5599449158e+01    1.5357809448e+02
    2.5698400497e+01    1.5357809448e+02
    2.5798315048e+01    1.5357809448e+02
    2.5898426056e+01    1.5357809448e+02
    2.5997978210e+01    1.5357809448e+02
    2.6098268509e+01    1.5357809448e+02
    2.6198953629e+01    1.5357809448e+02
    2.6298622131e+01    1.5357809448e+02
    2.6399085999e+01    1.5357809448e+02
    2.6498168945e+01    1.5357809448e+02
    2.6599359512e+01    1.5357809448e+02
    2.6698408127e+01    1.5357809448e+02
    2.6798069000e+01    1.5357710266e+02
    2.6899988174e+01    1.5357710266e+02
    2.7000024796e+01    1.5357710266e+02
    2.7099119186e+01    1.5357710266e+02
    2.7198963165e+01    1.5357710266e+02
    2.7299190521e+01    1.5357710266e+02
    2.7398498535e+01    1.5357710266e+02
    2.7498878479e+01    1.5357710266e+02
    2.7597961426e+01    1.5357710266e+02
    2.7699790955e+01    1.5357710266e+02
    2.7798360825e+01    1.5357710266e+02
    2.7899652481e+01    1.5357710266e+02
    2.7998340607e+01    1.5357710266e+02
    2.8099384308e+01    1.5357710266e+02
    2.8198192596e+01    1.5357710266e+02
    2.8299383163e+01    1.5357710266e+02
    2.8399156570e+01    1.5357710266e+02
    2.8498826981e+01    1.5357710266e+02
    2.8598503113e+01    1.5357710266e+02
    2.8699323654e+01    1.5357609558e+02
    2.8799863815e+01    1.5357609558e+02
    2.8899137497e+01    1.5357609558e+02
    2.8999973297e+01    1.5357609558e+02
    2.9099012375e+01    1.5357609558e+02
    2.9199588776e+01    1.5357609558e+02
    2.9300037384e+01    1.5357609558e+02
    2.9398555756e+01    1.5357609558e+02
    2.9498113632e+01    1.5357609558e+02
    2.9598699570e+01    1.5357609558e+02
    2.9698623657e+01    1.5357609558e+02
    2.9800073624e+01    1.5357609558e+02
    2.9899513245e+01    1.5357609558e+02
    2.9999505997e+01    1.5357609558e+02
    3.0099210739e+01    1.5357609558e+02
    3.0199024200e+01    1.5357609558e+02
    3.0299474716e+01    1.5357510376e+02
    3.0398538589e+01    1.5357510376e+02
    3.0500062943e+01    1.5357510376e+02
    3.0598152161e+01    1.5357510376e+02
    3.0698080063e+01    1.5357510376e+02
    3.0799501419e+01    1.5357510376e+02
    3.0899358749e+01    1.5357510376e+02
    3.0998092651e+01    1.5357510376e+02
    3.1098440170e+01    1.5357510376e+02
    3.1198759079e+01    1.5357510376e+02
    3.1299568176e+01    1.5357510376e+02
    3.1399921417e+01    1.5357510376e+02
    3.1499366760e+01    1.5357510376e+02
    3.1599222183e+01    1.5357409668e+02
    3.1699647903e+01    1.5357409668e+02
    3.1799518585e+01    1.5357409668e+02
    3.1899185181e+01    1.5357409668e+02
    3.1998365402e+01    1.5357409668e+02
    3.2099933624e+01    1.5357409668e+02
    3.2198474884e+01    1.5357409668e+02
    3.2299934387e+01    1.5357409668e+02
    3.2399135590e+01    1.5357409668e+02
    3.2499534607e+01    1.5357409668e+02
    3.2598613739e+01    1.5357409668e+02
    3.2699569702e+01    1.5357409668e+02
    3.2798984528e+01    1.5357409668e+02
    3.2898815155e+01    1.5357310486e+02
    3.2999618530e+01    1.5357310486e+02
    3.3099803925e+01    1.5357310486e+02
    3.3199867249e+01    1.5357310486e+02
    3.3298442841e+01    1.5357310486e+02
    3.3398487091e+01    1.5357310486e+02
    3.3498832703e+01    1.5357310486e+02
    3.3599533081e+01    1.5357310486e+02
    3.3699211121e+01    1.5357310486e+02
    3.3799022675e+01    1.5357310486e+02
    3.3898368835e+01    1.5357310486e+02
    3.3998077393e+01    1.5357209778e+02
    3.4098930359e+01    1.5357209778e+02
    3.4199871063e+01    1.5357209778e+02
    3.4299549103e+01    1.5357209778e+02
    3.4398616791e+01    1.5357209778e+02
    3.4499801636e+01    1.5357209778e+02
    3.4599376678e+01    1.5357209778e+02
    3.4698402405e+01    1.5357209778e+02
    3.4799243927e+01    1.5357209778e+02
    3.4899406433e+01    1.5357209778e+02
    3.4998371124e+01    1.5357209778e+02
    3.5098133087e+01    1.5357110596e+02
    3.5198982239e+01    1.5357110596e+02
    3.5299247742e+01    1.5357110596e+02
    3.5398780823e+01    1.5357110596e+02
    3.5498577118e+01    1.5357110596e+02
    3.5598941803e+01    1.5357110596e+02
    3.5699016571e+01    1.5357110596e+02
    3.5799259186e+01    1.5357110596e+02
    3.5898712158e+01    1.5357110596e+02
    3.5998645782e+01    1.5357009888e+02
    3.6099578857e+01    1.5357009888e+02
    3.6198669434e+01    1.5357009888e+02
    3.6298965454e+01    1.5357009888e+02
    3.6398288727e+01    1.5357009888e+02
    3.6499763489e+01    1.5357009888e+02
    3.6598320007e+01    1.5357009888e+02
    3.6699878693e+01    1.5357009888e+02
    3.6799533844e+01    1.5357009888e+02
    3.6898139954e+01    1.5356910706e+02
    3.6998794556e+01    1.5356910706e+02
    3.7099487305e+01    1.5356910706e+02
    3.7199165344e+01    1.5356910706e+02
    3.7299621582e+01    1.5356910706e+02
    3.7399562836e+01    1.5356910706e+02
    3.7498596191e+01    1.5356910706e+02
    3.7599895477e+01    1.5356910706e+02
    3.7699062347e+01    1.5356910706e+02
    3.7799865723e+01    1.5356809998e+02
    3.7899944305e+01    1.5356809998e+02
    3.7999504089e+01    1.5356809998e+02
    3.8099777222e+01    1.5356809998e+02
    3.8198272705e+01    1.5356809998e+02
    3.8298316956e+01    1.5356809998e+02
    3.8397998810e+01    1.5356809998e+02
    3.8499301910e+01    1.5356809998e+02
    3.8598773956e+01    1.5356709290e+02
    3.8698604584e+01    1.5356709290e+02
    3.8799919128e+01    1.5356709290e+02
    3.8899223328e+01    1.5356709290e+02
    3.8998035431e+01    1.5356709290e+02
    3.9098022461e+01    1.5356709290e+02
    3.9199337006e+01    1.5356709290e+02
    3.9298816681e+01    1.5356709290e+02
    3.9399791718e+01    1.5356610107e+02
    3.9499713898e+01    1.5356610107e+02
    3.9599266052e+01    1.5356610107e+02
    3.9699615479e+01    1.5356610107e+02
    3.9799034119e+01    1.5356610107e+02
    3.9899627686e+01    1.5356610107e+02
    3.9998821259e+01    1.5356610107e+02
    4.0099117279e+01    1.5356509399e+02
    4.0198532104e+01    1.5356509399e+02
    4.0299476624e+01    1.5356509399e+02
    4.0399028778e+01    1.5356509399e+02
    4.0498092651e+01    1.5356509399e+02
    4.0598674774e+01    1.5356509399e+02
    4.0698120117e+01    1.5356509399e+02
    4.0798858643e+01    1.5356410217e+02
    4.0899852753e+01    1.5356410217e+02
    4.0999149323e+01    1.5356410217e+02
    4.1099197388e+01    1.5356410217e+02
    4.1198665619e+01    1.5356410217e+02
    4.1298336029e+01    1.5356410217e+02
    4.1398551941e+01    1.5356410217e+02
    4.1499641418e+01    1.5356309509e+02
    4.1599918365e+01    1.5356309509e+02
    4.1697982788e+01    1.5356309509e+02
    4.1798828125e+01    1.5356309509e+02
    4.1898670197e+01    1.5356309509e+02
    4.1997947693e+01    1.5356309509e+02
    4.2098701477e+01    1.5356210327e+02
    4.2198497772e+01    1.5356210327e+02
    4.2299743652e+01    1.5356210327e+02
    4.2398513794e+01    1.5356210327e+02
    4.2499862671e+01    1.5356210327e+02
    4.2599647522e+01    1.5356210327e+02
    4.2698066711e+01    1.5356210327e+02
    4.2798515320e+01    1.5356109619e+02
    4.2899349213e+01    1.5356109619e+02
    4.2999614716e+01    1.5356109619e+02
    4.3098865509e+01    1.5356109619e+02
    4.3199241638e+01    1.5356109619e+02
    4.3297943115e+01    1.5356109619e+02
    4.3397983551e+01    1.5356010437e+02
    4.3498687744e+01    1.5356010437e+02
    4.3598621368e+01    1.5356010437e+02
    4.3697910309e+01    1.5356010437e+02
    4.3799747467e+01    1.5356010437e+02
    4.3899269104e+01    1.5355909729e+02
    4.3998249054e+01    1.5355909729e+02
    4.4099819183e+01    1.5355909729e+02
    4.4199710846e+01    1.5355909729e+02
    4.4299133301e+01    1.5355909729e+02
    4.4399082184e+01    1.5355909729e+02
    4.4498363495e+01    1.5355810547e+02
    4.4599227905e+01    1.5355810547e+02
    4.4698787689e+01    1.5355810547e+02
    4.4798713684e+01    1.5355810547e+02
    4.4898910522e+01    1.5355810547e+02
    4.4999111176e+01    1.5355709839e+02
    4.5099155426e+01    1.5355709839e+02
    4.5198596954e+01    1.5355709839e+02
    4.5299316406e+01    1.5355709839e+02
    4.5399112701e+01    1.5355709839e+02
    4.5498443604e+01    1.5355709839e+02
    4.5597995758e+01    1.5355610657e+02
    4.5698726654e+01    1.5355610657e+02
    4.5798725128e+01    1.5355610657e+02
    4.5898765564e+01    1.5355610657e+02
    4.5998348236e+01    1.5355610657e+02
    4.6098133087e+01    1.5355509949e+02
    4.6199859619e+01    1.5355509949e+02
    4.6298942566e+01    1.5355509949e+02
    4.6397792816e+01    1.5355509949e+02
    4.6498172760e+01    1.5355410767e+02
    4.6599517822e+01    1.5355410767e+02
    4.6699069977e+01    1.5355410767e+02
    4.6798954010e+01    1.5355410767e+02
    4.6899188995e+01    1.5355410767e+02
    4.6998413086e+01    1.5355310059e+02
    4.7097915649e+01    1.5355310059e+02
    4.7198001862e+01    1.5355310059e+02
    4.7298851013e+01    1.5355310059e+02
    4.7398391724e+01    1.5355310059e+02
    4.7499782562e+01    1.5355209351e+02
    4.7599395752e+01    1.5355209351e+02
    4.7699626923e+01    1.5355209351e+02
    4.7798702240e+01    1.5355209351e+02
    4.7898662567e+01    1.5355110168e+02
    4.7998241425e+01    1.5355110168e+02
    4.8098167419e+01    1.5355110168e+02
    4.8199218750e+01    1.5355110168e+02
    4.8299484253e+01    1.5355009460e+02
    4.8399063110e+01    1.5355009460e+02
    4.8498714447e+01    1.5355009460e+02
    4.8598045349e+01    1.5355009460e+02
    4.8699520111e+01    1.5354910278e+02
    4.8798198700e+01    1.5354910278e+02
    4.8899387360e+01    1.5354910278e+02
    4.8998844147e+01    1.5354910278e+02
    4.9098468781e+01    1.5354910278e+02
    4.9198410034e+01    1.5354809570e+02
    4.9298377991e+01    1.5354809570e+02
    4.9398517609e+01    1.5354809570e+02
    4.9498699188e+01    1.5354710388e+02
    4.9597740173e+01    1.5354710388e+02
    4.9698848724e+01    1.5354710388e+02
    4.9798427582e+01    1.5354710388e+02
    4.9898391724e+01    1.5354609680e+02
    4.9998928070e+01    1.5354609680e+02
    5.0098007202e+01    1.5354609680e+02
    5.0198463440e+01    1.5354609680e+02
    5.0297946930e+01    1.5354510498e+02
    5.0399383545e+01    1.5354510498e+02
    5.0498397827e+01    1.5354510498e+02
    5.0598247528e+01    1.5354510498e+02
    5.0699684143e+01    1.5354409790e+02
    5.0798809052e+01    1.5354409790e+02
    5.0898246765e+01    1.5354409790e+02
    5.0997840881e+01    1.5354310608e+02
    5.1099266052e+01    1.5354310608e+02
    5.1199581146e+01    1.5354310608e+02
    5.1298709869e+01    1.5354310608e+02
    5.1399265289e+01    1.5354209900e+02
    5.1497974396e+01    1.5354209900e+02
    5.1599384308e+01    1.5354209900e+02
    5.1698966980e+01    1.5354110718e+02
    5.1798412323e+01    1.5354110718e+02
    5.1898056030e+01    1.5354110718e+02
    5.1998764038e+01    1.5354010010e+02
    5.2099067688e+01    1.5354010010e+02
    5.2199348450e+01    1.5354010010e+02
    5.2298763275e+01    1.5353909302e+02
    5.2399425507e+01    1.5353909302e+02
    5.2497962952e+01    1.5353909302e+02
    5.2599422455e+01    1.5353909302e+02
    5.2699253082e+01    1.5353810120e+02
    5.2799076080e+01    1.5353810120e+02
    5.2899002075e+01    1.5353810120e+02
    5.2999599457e+01    1.5353709412e+02
    5.3099338531e+01    1.5353709412e+02
    5.3199165344e+01    1.5353709412e+02
    5.3297843933e+01    1.5353610229e+02
    5.3399517059e+01    1.5353610229e+02
    5.3499080658e+01    1.5353509521e+02
    5.3599315643e+01    1.5353509521e+02
    5.3698009491e+01    1.5353509521e+02
    5.3799079895e+01    1.5353410339e+02
    5.3899139404e+01    1.5353410339e+02
    5.3998863220e+01    1.5353410339e+02
    5.4099098206e+01    1.5353309631e+02
    5.4198047638e+01    1.5353309631e+02
    5.4298171997e+01    1.5353309631e+02
    5.4399368286e+01    1.5353210449e+02
    5.4499092102e+01    1.5353210449e+02
    5.4598205566e+01    1.5353109741e+02
    5.4699687958e+01    1.5353109741e+02
    5.4798091888e+01    1.5353109741e+02
    5.4898021698e+01    1.5353010559e+02
    5.4997665405e+01    1.5353010559e+02
    5.5098148346e+01    1.5352909851e+02
    5.5199287415e+01    1.5352909851e+02
    5.5297706604e+01    1.5352909851e+02
    5.5399318695e+01    1.5352810669e+02
    5.5499153137e+01    1.5352810669e+02
    5.5599662781e+01    1.5352709961e+02
    5.5699565887e+01    1.5352709961e+02
    5.5798961639e+01    1.5352709961e+02
    5.5897697449e+01    1.5352610779e+02
    5.5997901917e+01    1.5352610779e+02
    5.6099628448e+01    1.5352510071e+02
    5.6199634552e+01    1.5352510071e+02
    5.6299404144e+01    1.5352409363e+02
    5.6399627686e+01    1.5352409363e+02
    5.6498825073e+01    1.5352310181e+02
    5.6599678040e+01    1.5352310181e+02
    5.6699329376e+01    1.5352209473e+02
    5.6799240112e+01    1.5352209473e+02
    5.6898525238e+01    1.5352209473e+02
    5.6999294281e+01    1.5352110291e+02
    5.7097877502e+01    1.5352110291e+02
    5.7198364258e+01    1.5352009583e+02
    5.7298999786e+01    1.5352009583e+02
    5.7398288727e+01    1.5351910400e+02
    5.7499107361e+01    1.5351910400e+02
    5.7598903656e+01    1.5351809692e+02
    5.7699115753e+01    1.5351809692e+02
    5.7798118591e+01    1.5351710510e+02
    5.7897621155e+01    1.5351710510e+02
    5.7997974396e+01    1.5351609802e+02
    5.8099601746e+01    1.5351510620e+02
    5.8198047638e+01    1.5351510620e+02
    5.8297882080e+01    1.5351409912e+02
    5.8398403168e+01    1.5351409912e+02
    5.8498165131e+01    1.5351310730e+02
    5.8598926544e+01    1.5351310730e+02
    5.8697669983e+01    1.5351210022e+02
    5.8799240112e+01    1.5351210022e+02
    5.8898334503e+01    1.5351109314e+02
    5.8998233795e+01    1.5351010132e+02
    5.9098476410e+01    1.5351010132e+02
    5.9198253632e+01    1.5350909424e+02
    5.9299617767e+01    1.5350909424e+02
    5.9399127960e+01    1.5350810242e+02
    5.9498092651e+01    1.5350709534e+02
    5.9597587585e+01    1.5350709534e+02
    5.9699600220e+01    1.5350610352e+02
    5.9798000336e+01    1.5350509644e+02
    5.9898288727e+01    1.5350509644e+02
    5.9998706818e+01    1.5350410461e+02
    6.0099586487e+01    1.5350309753e+02
    6.0197967529e+01    1.5350309753e+02
    6.0298141479e+01    1.5350210571e+02
    6.0398231506e+01    1.5350109863e+02
    6.0499282837e+01    1.5350109863e+02
    6.0598945618e+01    1.5350010681e+02
    6.0697616577e+01    1.5349909973e+02
    6.0799129486e+01    1.5349909973e+02
    6.0898345947e+01    1.5349810791e+02
    6.0998912811e+01    1.5349710083e+02
    6.1099231720e+01    1.5349609375e+02
    6.1198905945e+01    1.5349609375e+02
    6.1298339844e+01    1.5349510193e+02
    6.1397724152e+01    1.5349409485e+02
    6.1499172211e+01    1.5349310303e+02
    6.1598400116e+01    1.5349209595e+02
    6.1698184967e+01    1.5349209595e+02
    6.1798896790e+01    1.5349110413e+02
    6.1899024963e+01    1.5349009705e+02
    6.1997726440e+01    1.5348910522e+02
    6.2099315643e+01    1.5348809814e+02
    6.2198352814e+01    1.5348710632e+02
    6.2298561096e+01    1.5348710632e+02
    6.2398521423e+01    1.5348609924e+02
    6.2499248505e+01    1.5348510742e+02
    6.2598072052e+01    1.5348410034e+02
    6.2698184967e+01    1.5348309326e+02
    6.2797653198e+01    1.5348210144e+02
    6.2898521423e+01    1.5348109436e+02
    6.2997871399e+01    1.5348010254e+02
    6.3098194122e+01    1.5347909546e+02
    6.3197673798e+01    1.5347810364e+02
    6.3299263000e+01    1.5347709656e+02
    6.3398998260e+01    1.5347610474e+02
    6.3499130249e+01    1.5347509766e+02
    6.3598167419e+01    1.5347410583e+02
    6.3699302673e+01    1.5347309875e+02
    6.3799049377e+01    1.5347210693e+02
    6.3898426056e+01    1.5347109985e+02
    6.3998821259e+01    1.5347010803e+02
    6.4098953247e+01    1.5346910095e+02
    6.4198600769e+01    1.5346809387e+02
    6.4298736572e+01    1.5346710205e+02
    6.4397979736e+01    1.5346609497e+02
    6.4498298645e+01    1.5346510315e+02
    6.4598815918e+01    1.5346409607e+02
    6.4698593140e+01    1.5346209717e+02
    6.4797874451e+01    1.5346110535e+02
    6.4899261475e+01    1.5346009827e+02
    6.4997451782e+01    1.5345910645e+02
    6.5097984314e+01    1.5345809937e+02
    6.5197532654e+01    1.5345610046e+02
    6.5299026489e+01    1.5345509338e+02
    6.5398674011e+01    1.5345410156e+02
    6.5498229980e+01    1.5345309448e+02
    6.5598785400e+01    1.5345109558e+02
    6.5697540283e+01    1.5345010376e+02
    6.5799491882e+01    1.5344909668e+02
    6.5899185181e+01    1.5344709778e+02
    6.5998260498e+01    1.5344610596e+02
    6.6099479675e+01    1.5344509888e+02
    6.6199440002e+01    1.5344309998e+02
    6.6297882080e+01    1.5344209290e+02
    6.6397720337e+01    1.5344009399e+02
    6.6497688293e+01    1.5343910217e+02
    6.6598930359e+01    1.5343710327e+02
    6.6699531555e+01    1.5343609619e+02
    6.6799194336e+01    1.5343409729e+02
    6.6897659302e+01    1.5343310547e+02
    6.6997894287e+01    1.5343110657e+02
    6.7097640991e+01    1.5343009949e+02
    6.7199531555e+01    1.5342810059e+02
    6.7298667908e+01    1.5342709351e+02
    6.7398551941e+01    1.5342509460e+02
    6.7498435974e+01    1.5342309570e+02
    6.7599075317e+01    1.5342210388e+02
    6.7698974609e+01    1.5342010498e+02
    6.7798385620e+01    1.5341810608e+02
    6.7897918701e+01    1.5341709900e+02
    6.7997825623e+01    1.5341510010e+02
    6.8098373413e+01    1.5341310120e+02
    6.8199188232e+01    1.5341110229e+02
    6.8299240112e+01    1.5340910339e+02
    6.8397537231e+01    1.5340809631e+02
    6.8497848511e+01    1.5340609741e+02
    6.8597915649e+01    1.5340409851e+02
    6.8698242188e+01    1.5340209961e+02
    6.8798431396e+01    1.5340010071e+02
    6.8899147034e+01    1.5339810181e+02
    6.8997718811e+01    1.5339610291e+02
    6.9099456787e+01    1.5339410400e+02
    6.9197547913e+01    1.5339210510e+02
    6.9298278809e+01    1.5339010620e+02
    6.9398765564e+01    1.5338810730e+02
    6.9499137878e+01    1.5338609314e+02
    6.9597747803e+01    1.5338409424e+02
    6.9698127747e+01    1.5338209534e+02
    6.9798889160e+01    1.5337910461e+02
    6.9897514343e+01    1.5337710571e+02
    6.9998291016e+01    1.5337510681e+02
    7.0099075317e+01    1.5337310791e+02
    7.0199089050e+01    1.5337010193e+02
    7.0297744751e+01    1.5336810303e+02
    7.0398544312e+01    1.5336610413e+02
    7.0499351501e+01    1.5336309814e+02
    7.0598022461e+01    1.5336109924e+02
    7.0698463440e+01    1.5335809326e+02
    7.0798789978e+01    1.5335609436e+02
    7.0897483826e+01    1.5335409546e+02
    7.0998321533e+01    1.5335110474e+02
    7.1099166870e+01    1.5334809875e+02
    7.1197517395e+01    1.5334609985e+02
    7.1297752380e+01    1.5334309387e+02
    7.1398368835e+01    1.5334109497e+02
    7.1498870850e+01    1.5333810425e+02
    7.1597610474e+01    1.5333509827e+02
    7.1698501587e+01    1.5333210754e+02
    7.1798896790e+01    1.5333009338e+02
    7.1897651672e+01    1.5332710266e+02
    7.1998565674e+01    1.5332409668e+02
    7.2097335815e+01    1.5332110596e+02
    7.2198013306e+01    1.5331809998e+02
    7.2298950195e+01    1.5331509399e+02
    7.2397743225e+01    1.5331210327e+02
    7.2498687744e+01    1.5330909729e+02
    7.2597496033e+01    1.5330610657e+02
    7.2698463440e+01    1.5330310059e+02
    7.2799438477e+01    1.5330009460e+02
    7.2898269653e+01    1.5329710388e+02
    7.2999252319e+01    1.5329409790e+02
    7.3097854614e+01    1.5329010010e+02
    7.3198860168e+01    1.5328709412e+02
    7.3297721863e+01    1.5328410339e+02
    7.3398117065e+01    1.5328010559e+02
    7.3498771667e+01    1.5327709961e+02
    7.3597663879e+01    1.5327310181e+02
    7.3698707581e+01    1.5327009583e+02
    7.3797615051e+01    1.5326609802e+02
    7.3898681641e+01    1.5326310730e+02
    7.3997604370e+01    1.5325909424e+02
    7.4098686218e+01    1.5325509644e+02
    7.4197624207e+01    1.5325210571e+02
    7.4298728943e+01    1.5324810791e+02
    7.4397689819e+01    1.5324409485e+02
    7.4498809814e+01    1.5324009705e+02
    7.4597785950e+01    1.5323609924e+02
    7.4698921204e+01    1.5323210144e+02
    7.4797920227e+01    1.5322909546e+02
    7.4899078369e+01    1.5322410583e+02
    7.4998092651e+01    1.5322010803e+02
    7.5099273682e+01    1.5321609497e+02
    7.5198303223e+01    1.5321209717e+02
    7.5297348022e+01    1.5320809937e+02
    7.5398559570e+01    1.5320309448e+02
    7.5497619629e+01    1.5319909668e+02
    7.5598342896e+01    1.5319509888e+02
    7.5697425842e+01    1.5319009399e+02
    7.5798675537e+01    1.5318609619e+02
    7.5897781372e+01    1.5318110657e+02
    7.5999046326e+01    1.5317709351e+02
    7.6098167419e+01    1.5317210388e+02
    7.6199081421e+01    1.5316709900e+02
    7.6298225403e+01    1.5316209412e+02
    7.6397377014e+01    1.5315809631e+02
    7.6498695374e+01    1.5315310669e+02
    7.6597869873e+01    1.5314810181e+02
    7.6699218750e+01    1.5314210510e+02
    7.6798408508e+01    1.5313710022e+02
    7.6897621155e+01    1.5313209534e+02
    7.6998992920e+01    1.5312710571e+02
    7.7098220825e+01    1.5312210083e+02
    7.7197463989e+01    1.5311610413e+02
    7.7298866272e+01    1.5311109924e+02
    7.7398117065e+01    1.5310510254e+02
    7.7497329712e+01    1.5310009766e+02
    7.7598655701e+01    1.5309410095e+02
    7.7697792053e+01    1.5308909607e+02
    7.7799041748e+01    1.5308309937e+02
    7.7898101807e+01    1.5307710266e+02
    7.7999267578e+01    1.5307110596e+02
    7.8098251343e+01    1.5306509399e+02
    7.8199340820e+01    1.5305909729e+02
    7.8298233032e+01    1.5305310059e+02
    7.8399238586e+01    1.5304609680e+02
    7.8498054504e+01    1.5304010010e+02
    7.8598983765e+01    1.5303410339e+02
    7.8697715759e+01    1.5302709961e+02
    7.8798545837e+01    1.5302110291e+02
    7.8899345398e+01    1.5301409912e+02
    7.8997947693e+01    1.5300709534e+02
    7.9098655701e+01    1.5300010681e+02
    7.9199317932e+01    1.5299409485e+02
    7.9297790527e+01    1.5298710632e+02
    7.9398368835e+01    1.5298010254e+02
    7.9498893738e+01    1.5297210693e+02
    7.9597236633e+01    1.5296510315e+02
    7.9697677612e+01    1.5295809937e+02
    7.9798072815e+01    1.5295010376e+02
    7.9898414612e+01    1.5294309998e+02
    7.9998710632e+01    1.5293510437e+02
    8.0098968506e+01    1.5292709351e+02
    8.0199172974e+01    1.5291909790e+02
    8.0299331665e+01    1.5291209412e+02
    8.0397308350e+01    1.5290409851e+02
    8.0497367859e+01    1.5289610291e+02
    8.0597389221e+01    1.5288710022e+02
    8.0697349548e+01    1.5287910461e+02
    8.0797264099e+01    1.5287010193e+02
    8.0899261475e+01    1.5286210632e+02
    8.0999069214e+01    1.5285310364e+02
    8.1098838806e+01    1.5284410095e+02
    8.1198554993e+01    1.5283509827e+02
    8.1298217773e+01    1.5282609558e+02
    8.1397827148e+01    1.5281709290e+02
    8.1497383118e+01    1.5280810547e+02
    8.1599014282e+01    1.5279910278e+02
    8.1698463440e+01    1.5278909302e+02
    8.1797866821e+01    1.5278010559e+02
    8.1897216797e+01    1.5277009583e+02
    8.1998619080e+01    1.5276010132e+02
    8.2097862244e+01    1.5275010681e+02
    8.2199157715e+01    1.5274009705e+02
    8.2298286438e+01    1.5272909546e+02
    8.2397354126e+01    1.5271910095e+02
    8.2498481750e+01    1.5270809937e+02
    8.2597434998e+01    1.5269810486e+02
    8.2698440552e+01    1.5268710327e+02
    8.2797286987e+01    1.5267610168e+02
    8.2898170471e+01    1.5266510010e+02
    8.2998992920e+01    1.5265409851e+02
    8.3097656250e+01    1.5264210510e+02
    8.3198364258e+01    1.5263110352e+02
    8.3299003601e+01    1.5261909485e+02
    8.3397483826e+01    1.5260710144e+02
    8.3498001099e+01    1.5259510803e+02
    8.3598457336e+01    1.5258309937e+02
    8.3698844910e+01    1.5257110596e+02
    8.3799171448e+01    1.5255810547e+02
    8.3897346497e+01    1.5254609680e+02
    8.3997543335e+01    1.5253309631e+02
    8.4097671509e+01    1.5252009583e+02
    8.4197738647e+01    1.5250709534e+02
    8.4297744751e+01    1.5249310303e+02
    8.4397674561e+01    1.5248010254e+02
    8.4497543335e+01    1.5246609497e+02
    8.4597343445e+01    1.5245210266e+02
    8.4699157715e+01    1.5243809509e+02
    8.4798812866e+01    1.5242410278e+02
    8.4898406982e+01    1.5241009521e+02
    8.4997932434e+01    1.5239509583e+02
    8.5097389221e+01    1.5238009644e+02
    8.5198844910e+01    1.5236509705e+02
    8.5298156738e+01    1.5235009766e+02
    8.5397399902e+01    1.5233509827e+02
    8.5498641968e+01    1.5231910706e+02
    8.5597740173e+01    1.5230310059e+02
    8.5698837280e+01    1.5228709412e+02
    8.5797790527e+01    1.5227110291e+02
    8.5898735046e+01    1.5225509644e+02
    8.5997550964e+01    1.5223809814e+02
    8.6098342896e+01    1.5222109985e+02
    8.6199066162e+01    1.5220410156e+02
    8.6297660828e+01    1.5218710327e+02
    8.6398231506e+01    1.5216909790e+02
    8.6498725891e+01    1.5215110779e+02
    8.6599151611e+01    1.5213310242e+02
    8.6697448730e+01    1.5211610413e+02
    8.6797714233e+01    1.5209710693e+02
    8.6897911072e+01    1.5207809448e+02
    8.6998031616e+01    1.5205909729e+02
    8.7098075867e+01    1.5204010010e+02
    8.7198036194e+01    1.5202110291e+02
    8.7297927856e+01    1.5200109863e+02
    8.7397743225e+01    1.5198109436e+02
    8.7497474670e+01    1.5196110535e+02
    8.7599166870e+01    1.5194009399e+02
    8.7698753357e+01    1.5192010498e+02
    8.7798255920e+01    1.5189909363e+02
    8.7897682190e+01    1.5187809753e+02
    8.7999061584e+01    1.5185609436e+02
    8.8098327637e+01    1.5183410645e+02
    8.8197525024e+01    1.5181210327e+02
    8.8298660278e+01    1.5179010010e+02
    8.8397705078e+01    1.5176710510e+02
    8.8498687744e+01    1.5174409485e+02
    8.8597572327e+01    1.5172109985e+02
    8.8698394775e+01    1.5169709778e+02
    8.8799140930e+01    1.5167309570e+02
    8.8897796631e+01    1.5164909363e+02
    8.8998382568e+01    1.5162510681e+02
    8.9098892212e+01    1.5160009766e+02
    8.9197311401e+01    1.5157510376e+02
    8.9297660828e+01    1.5155009460e+02
    8.9397941589e+01    1.5152409363e+02
    8.9498130798e+01    1.5149810791e+02
    8.9598251343e+01    1.5147109985e+02
    8.9698287964e+01    1.5144509888e+02
    8.9798248291e+01    1.5141810608e+02
    8.9898124695e+01    1.5139010620e+02
    8.9997932434e+01    1.5136309814e+02
    9.0097656250e+01    1.5133509827e+02
    9.0197303772e+01    1.5130610657e+02
    9.0298866272e+01    1.5127709961e+02
    9.0398361206e+01    1.5124810791e+02
    9.0497772217e+01    1.5121910095e+02
    9.0599098206e+01    1.5118809509e+02
    9.0698364258e+01    1.5115809631e+02
    9.0797538757e+01    1.5112809753e+02
    9.0898605347e+01    1.5109710693e+02
    9.0997596741e+01    1.5106509399e+02
    9.1098472595e+01    1.5103309631e+02
    9.1197265625e+01    1.5100210571e+02
    9.1297950745e+01    1.5096910095e+02
    9.1398529053e+01    1.5093609619e+02
    9.1499015808e+01    1.5090209961e+02
    9.1597434998e+01    1.5086909485e+02
    9.1697723389e+01    1.5083509827e+02
    9.1797920227e+01    1.5080009460e+02
    9.1898010254e+01    1.5076510620e+02
    9.1998016357e+01    1.5073010254e+02
    9.2097915649e+01    1.5069410706e+02
    9.2197723389e+01    1.5065809631e+02
    9.2297431946e+01    1.5062109375e+02
    9.2399002075e+01    1.5058309937e+02
    9.2498512268e+01    1.5054609680e+02
    9.2597938538e+01    1.5050810242e+02
    9.2697265625e+01    1.5047010803e+02
    9.2798439026e+01    1.5043110657e+02
    9.2897575378e+01    1.5039210510e+02
    9.2998558044e+01    1.5035110474e+02
    9.3097496033e+01    1.5031210327e+02
    9.3198287964e+01    1.5027110291e+02
    9.3298980713e+01    1.5022909546e+02
    9.3397644043e+01    1.5018809509e+02
    9.3498146057e+01    1.5014509583e+02
    9.3598548889e+01    1.5010310364e+02
    9.3698860168e+01    1.5005909729e+02
    9.3799072266e+01    1.5001609802e+02
    9.3897270203e+01    1.4997210693e+02
    9.3997299194e+01    1.4992810059e+02
    9.4097236633e+01    1.4988310242e+02
    9.4198997498e+01    1.4983610535e+02
    9.4298736572e+01    1.4979010010e+02
    9.4398391724e+01    1.4974409485e+02
    9.4497955322e+01    1.4969709778e+02
    9.4597419739e+01    1.4964909363e+02
    9.4698707581e+01    1.4960110474e+02
    9.4797988892e+01    1.4955209351e+02
    9.4899093628e+01    1.4950210571e+02
    9.4998191833e+01    1.4945309448e+02
    9.5099113464e+01    1.4940209961e+02
    9.5198028564e+01    1.4935209656e+02
    9.5298767090e+01    1.4930009460e+02
    9.5397506714e+01    1.4924909973e+02
    9.5498062134e+01    1.4919610596e+02
    9.5598526001e+01    1.4914309692e+02
    9.5698677063e+01    1.4908909607e+02
    9.5798957825e+01    1.4903509521e+02
    9.5897262573e+01    1.4898109436e+02
    9.5997367859e+01    1.4892610168e+02
    9.6097389221e+01    1.4887010193e+02
    9.6197319031e+01    1.4881309509e+02
    9.6298385620e+01    1.4875610352e+02
    9.6397598267e+01    1.4869909668e+02
    9.6497261047e+01    1.4864109802e+02
    9.6597625732e+01    1.4858210754e+02
    9.6698669434e+01    1.4852209473e+02
    9.6797531128e+01    1.4846310425e+02
    9.6898727417e+01    1.4840110779e+02
    9.6997962952e+01    1.4834109497e+02
    9.7098983765e+01    1.4827810669e+02
    9.7198829651e+01    1.4821609497e+02
    9.7297805786e+01    1.4815409851e+02
    9.7397804260e+01    1.4809010315e+02
    9.7498481750e+01    1.4802510071e+02
    9.7597221375e+01    1.4796110535e+02
    9.7697723389e+01    1.4789610291e+02
    9.7797378540e+01    1.4783009338e+02
    9.7898590088e+01    1.4776210022e+02
    9.7998504639e+01    1.4769509888e+02
    9.8097908020e+01    1.4762809753e+02
    9.8197784424e+01    1.4755909729e+02
    9.8298652649e+01    1.4749009705e+02
    9.8397476196e+01    1.4742109680e+02
    9.8497848511e+01    1.4735009766e+02
    9.8597579956e+01    1.4727909851e+02
    9.8697227478e+01    1.4720710754e+02
    9.8797798157e+01    1.4713510132e+02
    9.8898170471e+01    1.4706109619e+02
    9.8997367859e+01    1.4698809814e+02
    9.9097785950e+01    1.4691409302e+02
    9.9198547363e+01    1.4683810425e+02
    9.9297386169e+01    1.4676309204e+02
    9.9398742676e+01    1.4668609619e+02
    9.9497947693e+01    1.4660910034e+02
    9.9598693848e+01    1.4653109741e+02
    9.9698287964e+01    1.4645309448e+02
    9.9798751831e+01    1.4637409973e+02
    9.9898498535e+01    1.4629409790e+02
    9.9997383118e+01    1.4621510315e+02
    1.0009886169e+02    1.4613310242e+02
    1.0019776917e+02    1.4605209351e+02
    1.0029878998e+02    1.4596910095e+02
    1.0039779663e+02    1.4588710022e+02
    1.0049861145e+02    1.4580209351e+02
    1.0059773254e+02    1.4571910095e+02
    1.0069821167e+02    1.4563310242e+02
    1.0079817200e+02    1.4554710388e+02
    1.0089797211e+02    1.4546109009e+02
    1.0099726105e+02    1.4537409973e+02
    1.0109825897e+02    1.4528610229e+02
    1.0119821930e+02    1.4519709778e+02
    1.0129831696e+02    1.4510809326e+02
    1.0139811707e+02    1.4501809692e+02
    1.0149870300e+02    1.4492709351e+02
    1.0159739685e+02    1.4483709717e+02
    1.0169844818e+02    1.4474411011e+02
    1.0179856873e+02    1.4465109253e+02
    1.0189766693e+02    1.4455810547e+02
    1.0199822998e+02    1.4446310425e+02
    1.0209803772e+02    1.4436911011e+02
    1.0219828033e+02    1.4427310181e+02
    1.0229798889e+02    1.4417709351e+02
    1.0239750671e+02    1.4408010864e+02
    1.0249894714e+02    1.4398110962e+02
    1.0259892273e+02    1.4388211060e+02
    1.0269889832e+02    1.4378311157e+02
    1.0279788971e+02    1.4368409729e+02
    1.0289794922e+02    1.4358410645e+02
    1.0299741364e+02    1.4348309326e+02
    1.0309806061e+02    1.4338009644e+02
    1.0319821167e+02    1.4327709961e+02
    1.0329817963e+02    1.4317309570e+02
    1.0339766693e+02    1.4307009888e+02
    1.0349790955e+02    1.4296411133e+02
    1.0359741211e+02    1.4285910034e+02
    1.0369793701e+02    1.4275210571e+02
    1.0379781342e+02    1.4264511108e+02
    1.0389743042e+02    1.4253710938e+02
    1.0399870300e+02    1.4242709351e+02
    1.0409855652e+02    1.4231809998e+02
    1.0419750977e+02    1.4220910645e+02
    1.0429783630e+02    1.4209710693e+02
    1.0439762115e+02    1.4198609924e+02
    1.0449752045e+02    1.4187409973e+02
    1.0459854889e+02    1.4175909424e+02
    1.0469783783e+02    1.4164610291e+02
    1.0479769135e+02    1.4153210449e+02
    1.0489846039e+02    1.4141510010e+02
    1.0499893188e+02    1.4129809570e+02
    1.0509741974e+02    1.4118310547e+02
    1.0519744110e+02    1.4106610107e+02
    1.0529727936e+02    1.4094709778e+02
    1.0539800262e+02    1.4082710266e+02
    1.0549781799e+02    1.4070709229e+02
    1.0559761047e+02    1.4058709717e+02
    1.0569827271e+02    1.4046510315e+02
    1.0579792023e+02    1.4034310913e+02
    1.0589839935e+02    1.4021910095e+02
    1.0599873352e+02    1.4009509277e+02
    1.0609822845e+02    1.3997109985e+02
    1.0619819641e+02    1.3984609985e+02
    1.0629788971e+02    1.3972009277e+02
    1.0639752197e+02    1.3959410095e+02
    1.0649761200e+02    1.3946609497e+02
    1.0659797668e+02    1.3933709717e+02
    1.0669809723e+02    1.3920809937e+02
    1.0679826355e+02    1.3907809448e+02
    1.0689784241e+02    1.3894808960e+02
    1.0699875641e+02    1.3881509399e+02
    1.0709732819e+02    1.3868508911e+02
    1.0719767761e+02    1.3855209351e+02
    1.0729821014e+02    1.3841709900e+02
    1.0739871979e+02    1.3828210449e+02
    1.0749788666e+02    1.3814810181e+02
    1.0759799957e+02    1.3801110840e+02
    1.0769760895e+02    1.3787509155e+02
    1.0779782104e+02    1.3773709106e+02
    1.0789788055e+02    1.3759909058e+02
    1.0799842072e+02    1.3745910645e+02
    1.0809786224e+02    1.3732009888e+02
    1.0819830322e+02    1.3717810059e+02
    1.0829756927e+02    1.3703810120e+02
    1.0839761353e+02    1.3689610291e+02
    1.0849830627e+02    1.3675109863e+02
    1.0859831238e+02    1.3660809326e+02
    1.0869779968e+02    1.3646411133e+02
    1.0879731750e+02    1.3631909180e+02
    1.0889830780e+02    1.3617109680e+02
    1.0899835205e+02    1.3602410889e+02
    1.0909834290e+02    1.3587710571e+02
    1.0919740295e+02    1.3572909546e+02
    1.0929804230e+02    1.3557910156e+02
    1.0939837646e+02    1.3542910767e+02
    1.0949826050e+02    1.3527810669e+02
    1.0959761810e+02    1.3512710571e+02
    1.0969773102e+02    1.3497509766e+02
    1.0979872894e+02    1.3482009888e+02
    1.0989737701e+02    1.3466809082e+02
    1.0999781036e+02    1.3451210022e+02
    1.1009861755e+02    1.3435510254e+02
    1.1019737244e+02    1.3420111084e+02
    1.1029791260e+02    1.3404309082e+02
    1.1039737701e+02    1.3388610840e+02
    1.1049800110e+02    1.3372610474e+02
    1.1059877014e+02    1.3356509399e+02
    1.1069841003e+02    1.3340609741e+02
    1.1079821777e+02    1.3324510193e+02
    1.1089881897e+02    1.3308209229e+02
    1.1099729919e+02    1.3292210388e+02
    1.1109854126e+02    1.3275610352e+02
    1.1119751740e+02    1.3259410095e+02
    1.1129724121e+02    1.3242910767e+02
    1.1139807129e+02    1.3226210022e+02
    1.1149758148e+02    1.3209609985e+02
    1.1159876251e+02    1.3192709351e+02
    1.1169738007e+02    1.3176110840e+02
    1.1179772949e+02    1.3159210205e+02
    1.1189771271e+02    1.3142210388e+02
    1.1199839783e+02    1.3125009155e+02
    1.1209806824e+02    1.3107910156e+02
    1.1219785309e+02    1.3090811157e+02
    1.1229802704e+02    1.3073510742e+02
    1.1239877319e+02    1.3056008911e+02
    1.1249780273e+02    1.3038710022e+02
    1.1259831238e+02    1.3021109009e+02
    1.1269732666e+02    1.3003710938e+02
    1.1279727936e+02    1.2986010742e+02
    1.1289772034e+02    1.2968209839e+02
    1.1299842072e+02    1.2950210571e+02
    1.1309825134e+02    1.2932308960e+02
    1.1319727325e+02    1.2914511108e+02
    1.1329737854e+02    1.2896411133e+02
    1.1339865875e+02    1.2878009033e+02
    1.1349790955e+02    1.2859909058e+02
    1.1359780884e+02    1.2841709900e+02
    1.1369773865e+02    1.2823309326e+02
    1.1379783630e+02    1.2804809570e+02
    1.1389808655e+02    1.2786209869e+02
    1.1399809265e+02    1.2767610168e+02
    1.1409745789e+02    1.2749009705e+02
    1.1419730377e+02    1.2730310059e+02
    1.1429859161e+02    1.2711209869e+02
    1.1439807129e+02    1.2692410278e+02
    1.1449774933e+02    1.2673410034e+02
    1.1459761047e+02    1.2654409790e+02
    1.1469780731e+02    1.2635210419e+02
    1.1479840851e+02    1.2615810394e+02
    1.1489804840e+02    1.2596610260e+02
    1.1499855804e+02    1.2577110291e+02
    1.1509816742e+02    1.2557710266e+02
    1.1519844055e+02    1.2538110352e+02
    1.1529759979e+02    1.2518710327e+02
    1.1539826202e+02    1.2498809814e+02
    1.1549852753e+02    1.2479010010e+02
    1.1559796143e+02    1.2459310150e+02
    1.1569818878e+02    1.2439309692e+02
    1.1579744720e+02    1.2419409943e+02
    1.1589752197e+02    1.2399310303e+02
    1.1599736023e+02    1.2379209900e+02
    1.1609855652e+02    1.2358709717e+02
    1.1619728088e+02    1.2338710022e+02
    1.1629804993e+02    1.2318109894e+02
    1.1639750671e+02    1.2297810364e+02
    1.1649765015e+02    1.2277210236e+02
    1.1659793854e+02    1.2256510162e+02
    1.1669763947e+02    1.2235910034e+02
    1.1679769897e+02    1.2215110016e+02
    1.1689743805e+02    1.2194309998e+02
    1.1699819946e+02    1.2173210144e+02
    1.1709837341e+02    1.2152210236e+02
    1.1719751740e+02    1.2131310272e+02
    1.1729728699e+02    1.2110210419e+02
    1.1739817810e+02    1.2088809967e+02
    1.1749752045e+02    1.2067610168e+02
    1.1759837341e+02    1.2046009827e+02
    1.1769763947e+02    1.2024710083e+02
    1.1779840851e+02    1.2003009796e+02
    1.1789813232e+02    1.1981510162e+02
    1.1799733734e+02    1.1960009766e+02
    1.1809819031e+02    1.1938010406e+02
    1.1819759369e+02    1.1916310120e+02
    1.1829815674e+02    1.1894309998e+02
    1.1839747620e+02    1.1872480011e+02
    1.1849858093e+02    1.1850180054e+02
    1.1859750366e+02    1.1828289795e+02
    1.1869872284e+02    1.1805819702e+02
    1.1879869080e+02    1.1783540344e+02
    1.1889823151e+02    1.1761299896e+02
    1.1899774170e+02    1.1738980103e+02
    1.1909760284e+02    1.1716510010e+02
    1.1919728851e+02    1.1694010162e+02
    1.1929862213e+02    1.1671060181e+02
    1.1939726257e+02    1.1648650360e+02
    1.1949799347e+02    1.1625689697e+02
    1.1959754944e+02    1.1602919769e+02
    1.1969815063e+02    1.1579850006e+02
    1.1979769135e+02    1.1556939697e+02
    1.1989823914e+02    1.1533730316e+02
    1.1999739838e+02    1.1510770416e+02
    1.2009735107e+02    1.1487550354e+02
    1.2019803619e+02    1.1464080048e+02
    1.2029721832e+02    1.1440900421e+02
    1.2039788818e+02    1.1417300415e+02
    1.2049733734e+02    1.1393910217e+02
    1.2059755707e+02    1.1370269775e+02
    1.2069770813e+02    1.1346569824e+02
    1.2079853058e+02    1.1322640228e+02
    1.2089862061e+02    1.1298819733e+02
    1.2099829865e+02    1.1275019836e+02
    1.2109819794e+02    1.1251090240e+02
    1.2119769287e+02    1.1227200317e+02
    1.2129728699e+02    1.1203209686e+02
    1.2139824677e+02    1.1178820038e+02
    1.2149720001e+02    1.1154840088e+02
    1.2159722900e+02    1.1130539703e+02
    1.2169850159e+02    1.1105850220e+02
    1.2179724884e+02    1.1081719971e+02
    1.2189807892e+02    1.1057009888e+02
    1.2199845886e+02    1.1032340240e+02
    1.2209835052e+02    1.1007710266e+02
    1.2219869232e+02    1.0982910156e+02
    1.2229830933e+02    1.0958219910e+02
    1.2239721680e+02    1.0933630371e+02
    1.2249787903e+02    1.0908540344e+02
    1.2259770966e+02    1.0883589935e+02
    1.2269783020e+02    1.0858499908e+02
    1.2279723358e+02    1.0833519745e+02
    1.2289795685e+02    1.0808139801e+02
    1.2299781036e+02    1.0782910156e+02
    1.2309818268e+02    1.0757479858e+02
    1.2319799042e+02    1.0732129669e+02
    1.2329759216e+02    1.0706760406e+02
    1.2339763641e+02    1.0681210327e+02
    1.2349817657e+02    1.0655470276e+02
    1.2359813690e+02    1.0629810333e+02
    1.2369793701e+02    1.0604119873e+02
    1.2379739380e+02    1.0578459930e+02
    1.2389733124e+02    1.0552600098e+02
    1.2399735260e+02    1.0526660156e+02
    1.2409780121e+02    1.0500540161e+02
    1.2419841766e+02    1.0474310303e+02
    1.2429715729e+02    1.0448509979e+02
    1.2439848328e+02    1.0421959686e+02
    1.2449797058e+02    1.0395829773e+02
    1.2459722900e+02    1.0369699860e+02
    1.2469844055e+02    1.0342980194e+02
    1.2479760742e+02    1.0316740417e+02
    1.2489832306e+02    1.0290029907e+02
    1.2499790955e+02    1.0263549805e+02
    1.2509764099e+02    1.0236969757e+02
    1.2519857025e+02    1.0209999847e+02
    1.2529754639e+02    1.0183499908e+02
    1.2539853668e+02    1.0156390381e+02
    1.2549768829e+02    1.0129710388e+02
    1.2559773254e+02    1.0102729797e+02
    1.2569803619e+02    1.0075610352e+02
    1.2579837799e+02    1.0048429871e+02
    1.2589810944e+02    1.0021340179e+02
    1.2599803162e+02    9.9941497803e+01
    1.2609809875e+02    9.9668403625e+01
    1.2619824982e+02    9.9394599915e+01
    1.2629844666e+02    9.9120002747e+01
    1.2639855957e+02    9.8845001221e+01
    1.2649764252e+02    9.8572303772e+01
    1.2659783936e+02    9.8295898438e+01
    1.2669841003e+02    9.8017799377e+01
    1.2679853821e+02    9.7740303040e+01
    1.2689858246e+02    9.7462501526e+01
    1.2699835205e+02    9.7184799194e+01
    1.2709838104e+02    9.6905799866e+01
    1.2719850159e+02    9.6625999451e+01
    1.2729724121e+02    9.6349403381e+01
    1.2739804077e+02    9.6066497803e+01
    1.2749771118e+02    9.5786201477e+01
    1.2759757233e+02    9.5504699707e+01
    1.2769744873e+02    9.5222602844e+01
    1.2779830170e+02    9.4937103271e+01
    1.2789733887e+02    9.4656204224e+01
    1.2799723816e+02    9.4372299194e+01
    1.2809820557e+02    9.4084800720e+01
    1.2819859314e+02    9.3798301697e+01
    1.2829721069e+02    9.3516403198e+01
    1.2839845276e+02    9.3226303101e+01
    1.2849716187e+02    9.2942901611e+01
    1.2859834290e+02    9.2651901245e+01
    1.2869770813e+02    9.2365501404e+01
    1.2879774475e+02    9.2076698303e+01
    1.2889854431e+02    9.1785003662e+01
    1.2899827576e+02    9.1495903015e+01
    1.2909829712e+02    9.1205398560e+01
    1.2919766235e+02    9.0916297913e+01
    1.2929827881e+02    9.0622901917e+01
    1.2939761353e+02    9.0332801819e+01
    1.2949728394e+02    9.0041099548e+01
    1.2959794617e+02    8.9745903015e+01
    1.2969859314e+02    8.9450302124e+01
    1.2979754639e+02    8.9159103394e+01
    1.2989793396e+02    8.8863197327e+01
    1.2999838257e+02    8.8566497803e+01
    1.3009748840e+02    8.8273300171e+01
    1.3019758606e+02    8.7976501465e+01
    1.3029832458e+02    8.7677398682e+01
    1.3039761353e+02    8.7382102966e+01
    1.3049797058e+02    8.7083000183e+01
    1.3059738159e+02    8.6786300659e+01
    1.3069825745e+02    8.6484703064e+01
    1.3079855347e+02    8.6184204102e+01
    1.3089849854e+02    8.5884300232e+01
    1.3099778748e+02    8.5585899353e+01
    1.3109851074e+02    8.5282600403e+01
    1.3119758606e+02    8.4983802795e+01
    1.3129824829e+02    8.4679702759e+01
    1.3139828491e+02    8.4376998901e+01
    1.3149830627e+02    8.4073799133e+01
    1.3159832764e+02    8.3770202637e+01
    1.3169882202e+02    8.3464599609e+01
    1.3179774475e+02    8.3163299561e+01
    1.3189797974e+02    8.2857498169e+01
    1.3199833679e+02    8.2550903320e+01
    1.3209823608e+02    8.2245201111e+01
    1.3219853210e+02    8.1937698364e+01
    1.3229876709e+02    8.1630004883e+01
    1.3239755249e+02    8.1326301575e+01
    1.3249870300e+02    8.1014801025e+01
    1.3259866333e+02    8.0706497192e+01
    1.3269880676e+02    8.0397201538e+01
    1.3279855347e+02    8.0088600159e+01
    1.3289865112e+02    7.9778503418e+01
    1.3299751282e+02    7.9471801758e+01
    1.3309791565e+02    7.9159805298e+01
    1.3319778442e+02    7.8849105835e+01
    1.3329776001e+02    7.8537506104e+01
    1.3339802551e+02    7.8224601746e+01
    1.3349845886e+02    7.7910797119e+01
    1.3359819031e+02    7.7598701477e+01
    1.3369778442e+02    7.7286499023e+01
    1.3379774475e+02    7.6972900391e+01
    1.3389886475e+02    7.6654998779e+01
    1.3399865723e+02    7.6341003418e+01
    1.3409820557e+02    7.6027297974e+01
    1.3419798279e+02    7.5712402344e+01
    1.3429763794e+02    7.5397598267e+01
    1.3439886475e+02    7.5077301025e+01
    1.3449827576e+02    7.4762405396e+01
    1.3459788513e+02    7.4446395874e+01
    1.3469845581e+02    7.4126998901e+01
    1.3479800415e+02    7.3810401917e+01
    1.3489880371e+02    7.3489395142e+01
    1.3499821472e+02    7.3172401428e+01
    1.3509893799e+02    7.2850898743e+01
    1.3519830322e+02    7.2533302307e+01
    1.3529895020e+02    7.2211196899e+01
    1.3539814758e+02    7.1893402100e+01
    1.3549877930e+02    7.1570602417e+01
    1.3559788513e+02    7.1252197266e+01
    1.3569839478e+02    7.0929000854e+01
    1.3579884338e+02    7.0605606079e+01
    1.3589775085e+02    7.0286804199e+01
    1.3599803162e+02    6.9963302612e+01
    1.3609817505e+02    6.9639801025e+01
    1.3619819641e+02    6.9316299438e+01
    1.3629809570e+02    6.8992797852e+01
    1.3639785767e+02    6.8669403076e+01
    1.3649896240e+02    6.8341300964e+01
    1.3659848022e+02    6.8018096924e+01
    1.3669787598e+02    6.7694801331e+01
    1.3679861450e+02    6.7366897583e+01
    1.3689775085e+02    6.7043800354e+01
    1.3699822998e+02    6.6716003418e+01
    1.3709858704e+02    6.6388305664e+01
    1.3719880676e+02    6.6060600281e+01
    1.3729888916e+02    6.5733100891e+01
    1.3739886475e+02    6.5405601501e+01
    1.3749870300e+02    6.5078201294e+01
    1.3759841919e+02    6.4750900269e+01
    1.3769801331e+02    6.4423706055e+01
    1.3779891968e+02    6.4091796875e+01
    1.3789826965e+02    6.3764801025e+01
    1.3799891663e+02    6.3433101654e+01
    1.3809800720e+02    6.3106300354e+01
    1.3819839478e+02    6.2774902344e+01
    1.3829867554e+02    6.2443599701e+01
    1.3839881897e+02    6.2112400055e+01
    1.3849882507e+02    6.1781299591e+01
    1.3859872437e+02    6.1450401306e+01
    1.3869848633e+02    6.1119602203e+01
    1.3879812622e+02    6.0788902283e+01
    1.3889906311e+02    6.0453601837e+01
    1.3899844360e+02    6.0123199463e+01
    1.3909913635e+02    5.9788200378e+01
    1.3919825745e+02    5.9458099365e+01
    1.3929869080e+02    5.9123401642e+01
    1.3939898682e+02    5.8788799286e+01
    1.3949916077e+02    5.8454399109e+01
    1.3959921265e+02    5.8120201111e+01
    1.3969912720e+02    5.7786102295e+01
    1.3979893494e+02    5.7452201843e+01
    1.3989860535e+02    5.7118499756e+01
    1.3999815369e+02    5.6784900665e+01
    1.4009898376e+02    5.6446701050e+01
    1.4019830322e+02    5.6113498688e+01
    1.4029887390e+02    5.5775699615e+01
    1.4039933777e+02    5.5438098907e+01
    1.4049827576e+02    5.5105400085e+01
    1.4059849548e+02    5.4768100739e+01
    1.4069859314e+02    5.4431098938e+01
    1.4079856873e+02    5.4094200134e+01
    1.4089842224e+02    5.3757499695e+01
    1.4099815369e+02    5.3421001434e+01
    1.4109915161e+02    5.3080001831e+01
    1.4119865417e+02    5.2743900299e+01
    1.4129940796e+02    5.2403301239e+01
    1.4139866638e+02    5.2067600250e+01
    1.4149920654e+02    5.1727401733e+01
    1.4159823608e+02    5.1392002106e+01
    1.4169851685e+02    5.1052200317e+01
    1.4179869080e+02    5.0712600708e+01
    1.4189874268e+02    5.0373199463e+01
    1.4199868774e+02    5.0034000397e+01
    1.4209851074e+02    4.9695098877e+01
    1.4219822693e+02    4.9356300354e+01
    1.4229919434e+02    4.9013099670e+01
    1.4239866638e+02    4.8674800873e+01
    1.4249938965e+02    4.8332099915e+01
    1.4259864807e+02    4.7994201660e+01
    1.4269914246e+02    4.7652000427e+01
    1.4279817200e+02    4.7314598083e+01
    1.4289843750e+02    4.6972801208e+01
    1.4299859619e+02    4.6631202698e+01
    1.4309863281e+02    4.6289901733e+01
    1.4319863892e+02    4.5948600769e+01
    1.4329879761e+02    4.5606597900e+01
    1.4339848328e+02    4.5266098022e+01
    1.4349940491e+02    4.4921199799e+01
    1.4359889221e+02    4.4581100464e+01
    1.4369825745e+02    4.4241302490e+01
    1.4379882812e+02    4.3897201538e+01
    1.4389930725e+02    4.3553398132e+01
    1.4399833679e+02    4.3214401245e+01
    1.4409858704e+02    4.2871101379e+01
    1.4419871521e+02    4.2528099060e+01
    1.4429873657e+02    4.2185401917e+01
    1.4439863586e+02    4.1842903137e+01
    1.4449842834e+02    4.1500801086e+01
    1.4459944153e+02    4.1154300690e+01
    1.4469934082e+02    4.0811599731e+01
    1.4479879761e+02    4.0470397949e+01
    1.4489945984e+02    4.0124900818e+01
    1.4499870300e+02    3.9784202576e+01
    1.4509913635e+02    3.9439300537e+01
    1.4519946289e+02    3.9094699860e+01
    1.4529835510e+02    3.8755001068e+01
    1.4539845276e+02    3.8411102295e+01
    1.4549844360e+02    3.8067398071e+01
    1.4559963989e+02    3.7719600677e+01
    1.4569940186e+02    3.7376701355e+01
    1.4579905701e+02    3.7034099579e+01
    1.4589860535e+02    3.6691802979e+01
    1.4599966431e+02    3.6344200134e+01
    1.4609898376e+02    3.6002601624e+01
    1.4619842529e+02    3.5660499573e+01
    1.4629899597e+02    3.5314498901e+01
    1.4639927673e+02    3.4969497681e+01
    1.4649946594e+02    3.4624801636e+01
    1.4659953308e+02    3.4280399323e+01
    1.4669949341e+02    3.3936401367e+01
    1.4679934692e+02    3.3592800140e+01
    1.4689909363e+02    3.3249500275e+01
    1.4699873352e+02    3.2906600952e+01
    1.4709954834e+02    3.2559600830e+01
    1.4719897461e+02    3.2217399597e+01
    1.4729957581e+02    3.1871101379e+01
    1.4739950562e+02    3.1527200699e+01
    1.4749861145e+02    3.1186100006e+01
    1.4759906006e+02    3.0840400696e+01
    1.4769923401e+02    3.0495601654e+01
    1.4779956055e+02    3.0150400162e+01
    1.4789953613e+02    2.9806400299e+01
    1.4799940491e+02    2.9462799072e+01
    1.4809965515e+02    2.9117900848e+01
    1.4819868469e+02    2.8777309418e+01
    1.4829870605e+02    2.8433250427e+01
    1.4839910889e+02    2.8087959290e+01
    1.4849949646e+02    2.7742780685e+01
    1.4859909058e+02    2.7400371552e+01
    1.4869943237e+02    2.7055389404e+01
    1.4879913330e+02    2.6712730408e+01
    1.4889898682e+02    2.6369600296e+01
    1.4899984741e+02    2.6023099899e+01
    1.4909878540e+02    2.5683231354e+01
    1.4919906616e+02    2.5338859558e+01
    1.4929946899e+02    2.4994091034e+01
    1.4939947510e+02    2.4650779724e+01
    1.4949963379e+02    2.4307029724e+01
    1.4959875488e+02    2.3966979980e+01
    1.4969863892e+02    2.3624340057e+01
    1.4979924011e+02    2.3279390335e+01
    1.4989872742e+02    2.2938350677e+01
    1.4999984741e+02    2.2591760635e+01
    1.5009962463e+02    2.2249940872e+01
    1.5019961548e+02    2.1907470703e+01
    1.5029898071e+02    2.1567260742e+01
    1.5039935303e+02    2.1223751068e+01
    1.5049986267e+02    2.0879810333e+01
    1.5059953308e+02    2.0538940430e+01
    1.5069895935e+02    2.0199060440e+01
    1.5079954529e+02    1.9855335236e+01
    1.5089962769e+02    1.9513399124e+01
    1.5099920654e+02    1.9173416138e+01
    1.5109890747e+02    1.8833070755e+01
    1.5119987488e+02    1.8488649368e+01
    1.5130003357e+02    1.8147073746e+01
    1.5139996338e+02    1.7806461334e+01
    1.5149940491e+02    1.7467630386e+01
    1.5159986877e+02    1.7125539780e+01
    1.5169892883e+02    1.6788370132e+01
    1.5179954529e+02    1.6446121216e+01
    1.5189999390e+02    1.6104579926e+01
    1.5199983215e+02    1.5765260696e+01
    1.5209997559e+02    1.5425149918e+01
    1.5219926453e+02    1.5088060379e+01
    1.5229949951e+02    1.4748010635e+01
    1.5240002441e+02    1.4407180786e+01
    1.5249963379e+02    1.4069641113e+01
    1.5259901428e+02    1.3733060837e+01
    1.5270001221e+02    1.3391241074e+01
    1.5280007935e+02    1.3052750587e+01
    1.5289978027e+02    1.2715750694e+01
    1.5299948120e+02    1.2378950119e+01
    1.5309956360e+02    1.2041080475e+01
    1.5319920349e+02    1.1704940796e+01
    1.5329928589e+02    1.1367480278e+01
    1.5339976501e+02    1.1028960228e+01
    1.5349935913e+02    1.0693710327e+01
    1.5359948730e+02    1.0356850624e+01
    1.5369961548e+02    1.0020250320e+01
    1.5379960632e+02    9.6843700409e+00
    1.5389999390e+02    9.3474102020e+00
    1.5399946594e+02    9.0137901306e+00
    1.5409986877e+02    8.6773004532e+00
    1.5419960022e+02    8.3433008194e+00
    1.5430018616e+02    8.0067005157e+00
    1.5439918518e+02    7.6758003235e+00
    1.5449957275e+02    7.3404006958e+00
    1.5459944153e+02    7.0071001053e+00
    1.5469917297e+02    6.6745004654e+00
    1.5479968262e+02    6.3396005630e+00
    1.5490014648e+02    6.0051002502e+00
    1.5499986267e+02    5.6734008789e+00
    1.5509989929e+02    5.3410005569e+00
    1.5519966125e+02    5.0099000931e+00
    1.5529945374e+02    4.6789007187e+00
    1.5539901733e+02    4.3489007950e+00
    1.5549928284e+02    4.0169000626e+00
    1.5559938049e+02    3.6859006882e+00
    1.5569903564e+02    3.3567008972e+00
    1.5580014038e+02    3.0229005814e+00
    1.5590022278e+02    2.6928005219e+00
    1.5599996948e+02    2.3642997742e+00
    1.5609959412e+02    2.0365009308e+00
    1.5619938660e+02    1.7084007263e+00
    1.5630010986e+02    1.3775997162e+00
    1.5639965820e+02    1.0510997772e+00
    1.5649911499e+02    7.2520065308e-01
    1.5660000610e+02    3.9500045776e-01
    1.5669958496e+02    6.9400787354e-02
    1.5679920959e+02   -2.5589942932e-01
    1.5689961243e+02   -5.8349990845e-01
    1.5699996948e+02   -9.1040039062e-01
    1.5709992981e+02   -1.2357997894e+00
    1.5720004272e+02   -1.5611991882e+00
    1.5729948425e+02   -1.8840999603e+00
    1.5739991760e+02   -2.2097988129e+00
    1.5750010681e+02   -2.5341987610e+00
    1.5760023499e+02   -2.8580989838e+00
    1.5769943237e+02   -3.1786994934e+00
    1.5779988098e+02   -3.5026988983e+00
    1.5790037537e+02   -3.8265991211e+00
    1.5800021362e+02   -4.1478996277e+00
    1.5810011292e+02   -4.4689998627e+00
    1.5820042419e+02   -4.7910003662e+00
    1.5829995728e+02   -5.1100997925e+00
    1.5839976501e+02   -5.4295997620e+00
    1.5849923706e+02   -5.7475986481e+00
    1.5859979248e+02   -6.0685997009e+00
    1.5869943237e+02   -6.3862991333e+00
    1.5880015564e+02   -6.7068996429e+00
    1.5890046692e+02   -7.0257987976e+00
    1.5899957275e+02   -7.3403987885e+00
    1.5909939575e+02   -7.6569004059e+00
    1.5919926453e+02   -7.9729003906e+00
    1.5929998779e+02   -8.2912998199e+00
    1.5939964294e+02   -8.6057987213e+00
    1.5950016785e+02   -8.9224987030e+00
    1.5959960938e+02   -9.2353992462e+00
    1.5970014954e+02   -9.5511989594e+00
    1.5980029297e+02   -9.8652992249e+00
    1.5989950562e+02   -1.0175998688e+01
    1.6000004578e+02   -1.0490299225e+01
    1.6010038757e+02   -1.0803499222e+01
    1.6020033264e+02   -1.1114999771e+01
    1.6029966736e+02   -1.1423999786e+01
    1.6039987183e+02   -1.1735198975e+01
    1.6050004578e+02   -1.2045799255e+01
    1.6059968567e+02   -1.2354299545e+01
    1.6069973755e+02   -1.2663398743e+01
    1.6080050659e+02   -1.2974300385e+01
    1.6090005493e+02   -1.3280899048e+01
    1.6100025940e+02   -1.3589000702e+01
    1.6109977722e+02   -1.3894397736e+01
    1.6120046997e+02   -1.4202800751e+01
    1.6130030823e+02   -1.4508098602e+01
    1.6139976501e+02   -1.4811599731e+01
    1.6150039673e+02   -1.5118198395e+01
    1.6159951782e+02   -1.5419601440e+01
    1.6169967651e+02   -1.5723598480e+01
    1.6180024719e+02   -1.6028198242e+01
    1.6189970398e+02   -1.6328998566e+01
    1.6200024414e+02   -1.6632400513e+01
    1.6210005188e+02   -1.6932998657e+01
    1.6220057678e+02   -1.7235099792e+01
    1.6229991150e+02   -1.7533199310e+01
    1.6239967346e+02   -1.7831897736e+01
    1.6250039673e+02   -1.8132801056e+01
    1.6259970093e+02   -1.8428897858e+01
    1.6270019531e+02   -1.8728000641e+01
    1.6280035400e+02   -1.9025398254e+01
    1.6290052795e+02   -1.9322299957e+01
    1.6299983215e+02   -1.9615898132e+01
    1.6310058594e+02   -1.9913200378e+01
    1.6320060730e+02   -2.0207798004e+01
    1.6330010986e+02   -2.0500198364e+01
    1.6340005493e+02   -2.0793197632e+01
    1.6349986267e+02   -2.1085201263e+01
    1.6360018921e+02   -2.1377998352e+01
    1.6369993591e+02   -2.1668498993e+01
    1.6379995728e+02   -2.1959197998e+01
    1.6390000916e+02   -2.2249198914e+01
    1.6399992371e+02   -2.2538200378e+01
    1.6409968567e+02   -2.2826099396e+01
    1.6419990540e+02   -2.3114700317e+01
    1.6430035400e+02   -2.3403198242e+01
    1.6439979553e+02   -2.3688198090e+01
    1.6450065613e+02   -2.3976497650e+01
    1.6460040283e+02   -2.4260997772e+01
    1.6470036316e+02   -2.4545299530e+01
    1.6480015564e+02   -2.4828498840e+01
    1.6489984131e+02   -2.5110698700e+01
    1.6500065613e+02   -2.5395298004e+01
    1.6510058594e+02   -2.5676799774e+01
    1.6520050049e+02   -2.5957500458e+01
    1.6529995728e+02   -2.6236301422e+01
    1.6539991760e+02   -2.6515598297e+01
    1.6549972534e+02   -2.6793899536e+01
    1.6560055542e+02   -2.7074298859e+01
    1.6569978333e+02   -2.7349399567e+01
    1.6580065918e+02   -2.7628398895e+01
    1.6590089417e+02   -2.7904899597e+01
    1.6600027466e+02   -2.8178199768e+01
    1.6609991455e+02   -2.8451499939e+01
    1.6620002747e+02   -2.8725399017e+01
    1.6630039978e+02   -2.8999198914e+01
    1.6640072632e+02   -2.9272197723e+01
    1.6649978638e+02   -2.9540901184e+01
    1.6660017395e+02   -2.9812500000e+01
    1.6670077515e+02   -3.0083801270e+01
    1.6679992676e+02   -3.0350399017e+01
    1.6690037537e+02   -3.0619800568e+01
    1.6700027466e+02   -3.0886798859e+01
    1.6710006714e+02   -3.1152797699e+01
    1.6719981384e+02   -3.1417999268e+01
    1.6729986572e+02   -3.1682998657e+01
    1.6740098572e+02   -3.1950099945e+01
    1.6750025940e+02   -3.2211601257e+01
    1.6760101318e+02   -3.2476100922e+01
    1.6770086670e+02   -3.2737400055e+01
    1.6780038452e+02   -3.2996997833e+01
    1.6789996338e+02   -3.3255901337e+01
    1.6800041199e+02   -3.3516300201e+01
    1.6810096741e+02   -3.3776100159e+01
    1.6820045471e+02   -3.4032299042e+01
    1.6830076599e+02   -3.4289798737e+01
    1.6840089417e+02   -3.4546001434e+01
    1.6850079346e+02   -3.4800701141e+01
    1.6860050964e+02   -3.5054100037e+01
    1.6870007324e+02   -3.5306301117e+01
    1.6880050659e+02   -3.5559799194e+01
    1.6890025330e+02   -3.5810699463e+01
    1.6900015259e+02   -3.6061100006e+01
    1.6910017395e+02   -3.6310897827e+01
    1.6920092773e+02   -3.6561698914e+01
    1.6929995728e+02   -3.6807300568e+01
    1.6940061951e+02   -3.7056098938e+01
    1.6950090027e+02   -3.7303001404e+01
    1.6960020447e+02   -3.7546699524e+01
    1.6970057678e+02   -3.7791999817e+01
    1.6980064392e+02   -3.8035697937e+01
    1.6990043640e+02   -3.8277797699e+01
    1.7000090027e+02   -3.8520698547e+01
    1.7010041809e+02   -3.8760299683e+01
    1.7020001221e+02   -3.8999198914e+01
    1.7030062866e+02   -3.9239601135e+01
    1.7040010071e+02   -3.9476398468e+01
    1.7050079346e+02   -3.9715099335e+01
    1.7060081482e+02   -3.9951297760e+01
    1.7070085144e+02   -4.0186599731e+01
    1.7080009460e+02   -4.0419097900e+01
    1.7090054321e+02   -4.0653400421e+01
    1.7100094604e+02   -4.0886699677e+01
    1.7110000610e+02   -4.1116001129e+01
    1.7120010376e+02   -4.1346599579e+01
    1.7130003357e+02   -4.1575901031e+01
    1.7140020752e+02   -4.1804798126e+01
    1.7150010681e+02   -4.2032199860e+01
    1.7160017395e+02   -4.2258899689e+01
    1.7170007324e+02   -4.2484199524e+01
    1.7180114746e+02   -4.2711299896e+01
    1.7190104675e+02   -4.2934600830e+01
    1.7200088501e+02   -4.3156898499e+01
    1.7210067749e+02   -4.3377998352e+01
    1.7220042419e+02   -4.3598098755e+01
    1.7230010986e+02   -4.3817001343e+01
    1.7240101624e+02   -4.4037498474e+01
    1.7250059509e+02   -4.4254199982e+01
    1.7260130310e+02   -4.4472297668e+01
    1.7270080566e+02   -4.4686798096e+01
    1.7280024719e+02   -4.4900100708e+01
    1.7290089417e+02   -4.5114997864e+01
    1.7300021362e+02   -4.5325996399e+01
    1.7310072327e+02   -4.5538497925e+01
    1.7320123291e+02   -4.5749900818e+01
    1.7330044556e+02   -4.5957595825e+01
    1.7340086365e+02   -4.6166702271e+01
    1.7350123596e+02   -4.6374702454e+01
    1.7360029602e+02   -4.6579002380e+01
    1.7370059204e+02   -4.6784698486e+01
    1.7380082703e+02   -4.6989196777e+01
    1.7390101624e+02   -4.7192497253e+01
    1.7400117493e+02   -4.7394699097e+01
    1.7410127258e+02   -4.7595703125e+01
    1.7420135498e+02   -4.7795600891e+01
    1.7430137634e+02   -4.7994300842e+01
    1.7440136719e+02   -4.8191802979e+01
    1.7450129700e+02   -4.8388099670e+01
    1.7460119629e+02   -4.8583198547e+01
    1.7470106506e+02   -4.8777198792e+01
    1.7480087280e+02   -4.8970001221e+01
    1.7490066528e+02   -4.9161598206e+01
    1.7500039673e+02   -4.9351997375e+01
    1.7510134888e+02   -4.9543601990e+01
    1.7520100403e+02   -4.9731597900e+01
    1.7530064392e+02   -4.9918395996e+01
    1.7540147400e+02   -5.0106300354e+01
    1.7550100708e+02   -5.0290702820e+01
    1.7560052490e+02   -5.0473899841e+01
    1.7570123291e+02   -5.0658203125e+01
    1.7580065918e+02   -5.0838996887e+01
    1.7590129089e+02   -5.1020797729e+01
    1.7600065613e+02   -5.1199096680e+01
    1.7610121155e+02   -5.1378402710e+01
    1.7620048523e+02   -5.1554298401e+01
    1.7630096436e+02   -5.1731201172e+01
    1.7640141296e+02   -5.1906799316e+01
    1.7650057983e+02   -5.2079002380e+01
    1.7660095215e+02   -5.2252098083e+01
    1.7670127869e+02   -5.2423896790e+01
    1.7680157471e+02   -5.2594497681e+01
    1.7690058899e+02   -5.2761695862e+01
    1.7700082397e+02   -5.2929801941e+01
    1.7710099792e+02   -5.3096595764e+01
    1.7720115662e+02   -5.3262100220e+01
    1.7730126953e+02   -5.3426399231e+01
    1.7740133667e+02   -5.3589202881e+01
    1.7750138855e+02   -5.3750801086e+01
    1.7760139465e+02   -5.3911003113e+01
    1.7770135498e+02   -5.4069900513e+01
    1.7780130005e+02   -5.4227401733e+01
    1.7790119934e+02   -5.4383598328e+01
    1.7800106812e+02   -5.4538398743e+01
    1.7810090637e+02   -5.4691802979e+01
    1.7820069885e+02   -5.4843902588e+01
    1.7830047607e+02   -5.4994499207e+01
    1.7840144348e+02   -5.5145698547e+01
    1.7850114441e+02   -5.5293601990e+01
    1.7860081482e+02   -5.5440200806e+01
    1.7870167542e+02   -5.5587097168e+01
    1.7880128479e+02   -5.5730796814e+01
    1.7890086365e+02   -5.5873199463e+01
    1.7900163269e+02   -5.6015899658e+01
    1.7910116577e+02   -5.6155403137e+01
    1.7920065308e+02   -5.6293502808e+01
    1.7930134583e+02   -5.6431900024e+01
    1.7940078735e+02   -5.6567199707e+01
    1.7950140381e+02   -5.6702697754e+01
    1.7960078430e+02   -5.6835098267e+01
    1.7970135498e+02   -5.6967597961e+01
    1.7980067444e+02   -5.7097099304e+01
    1.7990118408e+02   -5.7226699829e+01
    1.8000167847e+02   -5.7354797363e+01
    1.8010090637e+02   -5.7479896545e+01
    1.8020133972e+02   -5.7604995728e+01
    1.8030174255e+02   -5.7728698730e+01
    1.8040089417e+02   -5.7849296570e+01
    1.8050123596e+02   -5.7970001221e+01
    1.8060156250e+02   -5.8089202881e+01
    1.8070065308e+02   -5.8205398560e+01
    1.8080093384e+02   -5.8321502686e+01
    1.8090118408e+02   -5.8436096191e+01
    1.8100143433e+02   -5.8549201965e+01
    1.8110163879e+02   -5.8660598755e+01
    1.8120182800e+02   -5.8770500183e+01
    1.8130076599e+02   -5.8877502441e+01
    1.8140092468e+02   -5.8984298706e+01
    1.8150105286e+02   -5.9089401245e+01
    1.8160116577e+02   -5.9192901611e+01
    1.8170124817e+02   -5.9294799805e+01
    1.8180133057e+02   -5.9395095825e+01
    1.8190138245e+02   -5.9493698120e+01
    1.8200164795e+02   -5.9590995789e+01
    1.8210166931e+02   -5.9686302185e+01
    1.8220167542e+02   -5.9779998779e+01
    1.8230174255e+02   -5.9872200012e+01
    1.8240170288e+02   -5.9962600708e+01
    1.8250166321e+02   -6.0051399231e+01
    1.8260162354e+02   -6.0138397217e+01
    1.8270193481e+02   -6.0224098206e+01
    1.8280122375e+02   -6.0307197571e+01
    1.8290121460e+02   -6.0389099121e+01
    1.8300111389e+02   -6.0469200134e+01
    1.8310098267e+02   -6.0547500610e+01
    1.8320086670e+02   -6.0623901367e+01
    1.8330194092e+02   -6.0699501038e+01
    1.8340179443e+02   -6.0772201538e+01
    1.8350163269e+02   -6.0843002319e+01
    1.8360145569e+02   -6.0911895752e+01
    1.8370126343e+02   -6.0978996277e+01
    1.8380107117e+02   -6.1044197083e+01
    1.8390086365e+02   -6.1107498169e+01
    1.8400088501e+02   -6.1169097900e+01
    1.8410194397e+02   -6.1229400635e+01
    1.8420170593e+02   -6.1287101746e+01
    1.8430148315e+02   -6.1342903137e+01
    1.8440168762e+02   -6.1397102356e+01
    1.8450105286e+02   -6.1448898315e+01
    1.8460110474e+02   -6.1499198914e+01
    1.8470085144e+02   -6.1547500610e+01
    1.8480181885e+02   -6.1594497681e+01
    1.8490156555e+02   -6.1638999939e+01
    1.8500146484e+02   -6.1681800842e+01
    1.8510122681e+02   -6.1722602844e+01
    1.8520149231e+02   -6.1761802673e+01
    1.8530122375e+02   -6.1798995972e+01
    1.8540182495e+02   -6.1834602356e+01
    1.8550166321e+02   -6.1868202209e+01
    1.8560087585e+02   -6.1899597168e+01
    1.8570208740e+02   -6.1929702759e+01
    1.8580155945e+02   -6.1957496643e+01
    1.8590165710e+02   -6.1983497620e+01
    1.8600148010e+02   -6.2007499695e+01
    1.8610168457e+02   -6.2029800415e+01
    1.8620097351e+02   -6.2049896240e+01
    1.8630105591e+02   -6.2068298340e+01
    1.8640115356e+02   -6.2084899902e+01
    1.8650134277e+02   -6.2099601746e+01
    1.8660101318e+02   -6.2112396240e+01
    1.8670193481e+02   -6.2123397827e+01
    1.8680166626e+02   -6.2132400513e+01
    1.8690179443e+02   -6.2139495850e+01
    1.8700212097e+02   -6.2144599915e+01
    1.8710200500e+02   -6.2147895813e+01
    1.8720094299e+02   -6.2149200439e+01
    1.8730143738e+02   -6.2148498535e+01
    1.8740197754e+02   -6.2145896912e+01
    1.8750132751e+02   -6.2141403198e+01
    1.8760156250e+02   -6.2134902954e+01
    1.8770123291e+02   -6.2126396179e+01
    1.8780117798e+02   -6.2115600586e+01
    1.8790133667e+02   -6.2102302551e+01
    1.8800144958e+02   -6.2086097717e+01
    1.8810147095e+02   -6.2066596985e+01
    1.8820213318e+02   -6.2043098450e+01
    1.8830134583e+02   -6.2015502930e+01
    1.8840184021e+02   -6.1983001709e+01
    1.8850100708e+02   -6.1946197510e+01
    1.8860154724e+02   -6.1903900146e+01
    1.8870207214e+02   -6.1856399536e+01
    1.8880128479e+02   -6.1804199219e+01
    1.8890194702e+02   -6.1745903015e+01
    1.8900143433e+02   -6.1683097839e+01
    1.8910101318e+02   -6.1615600586e+01
    1.8920198059e+02   -6.1542602539e+01
    1.8930172729e+02   -6.1466102600e+01
    1.8940153503e+02   -6.1385597229e+01
    1.8950143433e+02   -6.1301300049e+01
    1.8960142517e+02   -6.1213600159e+01
    1.8970135498e+02   -6.1123100281e+01
    1.8980137634e+02   -6.1030403137e+01
    1.8990225220e+02   -6.0935096741e+01
    1.9000227356e+02   -6.0839500427e+01
    1.9010134888e+02   -6.0743698120e+01
    1.9020135498e+02   -6.0646301270e+01
    1.9030186462e+02   -6.0548202515e+01
    1.9040115356e+02   -6.0451301575e+01
    1.9050183105e+02   -6.0353202820e+01
    1.9060125732e+02   -6.0256401062e+01
    1.9070208740e+02   -6.0157997131e+01
    1.9080165100e+02   -6.0060600281e+01
    1.9090130615e+02   -5.9962402344e+01
    1.9100236511e+02   -5.9861602783e+01
    1.9110218811e+02   -5.9760498047e+01
    1.9120210266e+02   -5.9657600403e+01
    1.9130210876e+02   -5.9552398682e+01
    1.9140171814e+02   -5.9445396423e+01
    1.9150161743e+02   -5.9335601807e+01
    1.9160116577e+02   -5.9223800659e+01
    1.9170211792e+02   -5.9107902527e+01
    1.9180163574e+02   -5.8991500854e+01
    1.9190217590e+02   -5.8871696472e+01
    1.9200128174e+02   -5.8751602173e+01
    1.9210148621e+02   -5.8628295898e+01
    1.9220149231e+02   -5.8503501892e+01
    1.9230131531e+02   -5.8377098083e+01
    1.9240229797e+02   -5.8247497559e+01
    1.9250216675e+02   -5.8117797852e+01
    1.9260211182e+02   -5.7986495972e+01
    1.9270242310e+02   -5.7853096008e+01
    1.9280230713e+02   -5.7718795776e+01
    1.9290144348e+02   -5.7583900452e+01
    1.9300166321e+02   -5.7445999146e+01
    1.9310208130e+02   -5.7306297302e+01
    1.9320140076e+02   -5.7166603088e+01
    1.9330183411e+02   -5.7023902893e+01
    1.9340217590e+02   -5.6879699707e+01
    1.9350247192e+02   -5.6733901978e+01
    1.9360244751e+02   -5.6587097168e+01
    1.9370135498e+02   -5.6440299988e+01
    1.9380192566e+02   -5.6289497375e+01
    1.9390141296e+02   -5.6138801575e+01
    1.9400219727e+02   -5.5984596252e+01
    1.9410153198e+02   -5.5831001282e+01
    1.9420216370e+02   -5.5673896790e+01
    1.9430262756e+02   -5.5515396118e+01
    1.9440240479e+02   -5.5356498718e+01
    1.9450224304e+02   -5.5195999146e+01
    1.9460177612e+02   -5.5034400940e+01
    1.9470225525e+02   -5.4869697571e+01
    1.9480261230e+02   -5.4703598022e+01
    1.9490159607e+02   -5.4538398743e+01
    1.9500172424e+02   -5.4369697571e+01
    1.9510177612e+02   -5.4199600220e+01
    1.9520175171e+02   -5.4028099060e+01
    1.9530163574e+02   -5.3855201721e+01
    1.9540147400e+02   -5.3680999756e+01
    1.9550166321e+02   -5.3504699707e+01
    1.9560243225e+02   -5.3325897217e+01
    1.9570202637e+02   -5.3147697449e+01
    1.9580197144e+02   -5.2967399597e+01
    1.9590199280e+02   -5.2785598755e+01
    1.9600256348e+02   -5.2601303101e+01
    1.9610148621e+02   -5.2418701172e+01
    1.9620225525e+02   -5.2231300354e+01
    1.9630168152e+02   -5.2044998169e+01
    1.9640237427e+02   -5.1854995728e+01
    1.9650270081e+02   -5.1664299011e+01
    1.9660165405e+02   -5.1474998474e+01
    1.9670228577e+02   -5.1281097412e+01
    1.9680271912e+02   -5.1086402893e+01
    1.9690209961e+02   -5.0892402649e+01
    1.9700239563e+02   -5.0695503235e+01
    1.9710151672e+02   -5.0499603271e+01
    1.9720167542e+02   -5.0300399780e+01
    1.9730252075e+02   -5.0098701477e+01
    1.9740185547e+02   -4.9898902893e+01
    1.9750195312e+02   -4.9696197510e+01
    1.9760186768e+02   -4.9492797852e+01
    1.9770283508e+02   -4.9286102295e+01
    1.9780166626e+02   -4.9082496643e+01
    1.9790191650e+02   -4.8874900818e+01
    1.9800247192e+02   -4.8665397644e+01
    1.9810284424e+02   -4.8455101013e+01
    1.9820185852e+02   -4.8246597290e+01
    1.9830177307e+02   -4.8034896851e+01
    1.9840208435e+02   -4.7821197510e+01
    1.9850213623e+02   -4.7606903076e+01
    1.9860212708e+02   -4.7391502380e+01
    1.9870202637e+02   -4.7175102234e+01
    1.9880198669e+02   -4.6957397461e+01
    1.9890255737e+02   -4.6737098694e+01
    1.9900230408e+02   -4.6517402649e+01
    1.9910220337e+02   -4.6296195984e+01
    1.9920222473e+02   -4.6073501587e+01
    1.9930239868e+02   -4.5849098206e+01
    1.9940283203e+02   -4.5623100281e+01
    1.9950224304e+02   -4.5398002625e+01
    1.9960197449e+02   -4.5171096802e+01
    1.9970201111e+02   -4.4942298889e+01
    1.9980232239e+02   -4.4711601257e+01
    1.9990292358e+02   -4.4478900909e+01
endcurve
