Curveplot
LS-DYNA keyword deck by LS-PrePost
Abscissa
Ordinate
XY data
CHOP_EAMX_mo-1 #pts=3000
* Minval=     0.0000000000e+00 at time=         0.0000000000
* Maxval=     7.7072998047e+01 at time=       233.6049346924
    0.0000000000e+00    0.0000000000e+00
    9.9644668400e-02    1.5577500453e-03
    1.9928933680e-01    3.1154900789e-03
    2.9893401265e-01    4.6732397750e-03
    3.9857867360e-01    6.2309801579e-03
    4.9822333455e-01    7.7887200750e-03
    5.9964740276e-01    9.3742897734e-03
    6.9929206371e-01    1.0932000354e-02
    7.9867684841e-01    1.2485697865e-02
    8.9995086193e-01    1.4068893157e-02
    9.9834614992e-01    1.5607088804e-02
    1.0998604298e+00    1.7194090411e-02
    1.1992453337e+00    1.8747795373e-02
    1.2997497320e+00    2.0318994299e-02
    1.3991347551e+00    2.1872686222e-02
    1.4996393919e+00    2.3443883285e-02
    1.5995938778e+00    2.5006396696e-02
    1.6987783909e+00    2.6557020843e-02
    1.7983825207e+00    2.8114130720e-02
    1.8998765945e+00    2.9700765386e-02
    1.9996119738e+00    3.1259678304e-02
    2.0987780094e+00    3.2809708267e-02
    2.1996326447e+00    3.4386254847e-02
    2.2981371880e+00    3.5926397890e-02
    2.3995006084e+00    3.7511844188e-02
    2.4996550083e+00    3.9078831673e-02
    2.5997002125e+00    4.0644068271e-02
    2.6999650002e+00    4.2211998254e-02
    2.7984685898e+00    4.3751329184e-02
    2.8998689651e+00    4.5334368944e-02
    2.9993793964e+00    4.6886943281e-02
    3.0994019508e+00    4.8446834087e-02
    3.1982393265e+00    4.9988456070e-02
    3.2999813557e+00    5.1575966179e-02
    3.3991782665e+00    5.3124941885e-02
    3.4996979237e+00    5.4696314037e-02
    3.5988793373e+00    5.6248612702e-02
    3.6992003918e+00    5.7820901275e-02
    3.7988593578e+00    5.9385146946e-02
    3.8988263607e+00    6.0956399888e-02
    3.9995431900e+00    6.2541805208e-02
    4.0988116264e+00    6.4106188715e-02
    4.1985211372e+00    6.5679267049e-02
    4.2982501984e+00    6.7253783345e-02
    4.3988957405e+00    6.8843744695e-02
    4.4992995262e+00    7.0430450141e-02
    4.5995016098e+00    7.2014316916e-02
    4.6982326508e+00    7.3574915528e-02
    4.7999510765e+00    7.5182273984e-02
    4.8983483315e+00    7.6736524701e-02
    4.9988532066e+00    7.8322857618e-02
    5.0994668007e+00    7.9909376800e-02
    5.1990876198e+00    8.1478349864e-02
    5.2992548943e+00    8.3053857088e-02
    5.3985223770e+00    8.4612943232e-02
    5.4991283417e+00    8.6190409958e-02
    5.5990543365e+00    8.7754391134e-02
    5.6985406876e+00    8.9308604598e-02
    5.7997145653e+00    9.0885825455e-02
    5.8991079330e+00    9.2431932688e-02
    5.9981293678e+00    9.3968763947e-02
    6.0984897614e+00    9.5522753894e-02
    6.1987595558e+00    9.7071409225e-02
    6.2991209030e+00    9.8617412150e-02
    6.3999624252e+00    1.0016705841e-01
    6.4991149902e+00    1.0168602318e-01
    6.5982871056e+00    1.0320071876e-01
    6.6984486580e+00    1.0472670197e-01
    6.7983894348e+00    1.0624437779e-01
    6.8987689018e+00    1.0776440054e-01
    6.9986882210e+00    1.0927312076e-01
    7.0993790627e+00    1.1078976840e-01
    7.1986408234e+00    1.1227858812e-01
    7.2984724045e+00    1.1377243698e-01
    7.3985238075e+00    1.1526460946e-01
    7.4999151230e+00    1.1677239835e-01
    7.5999469757e+00    1.1825602502e-01
    7.6996512413e+00    1.1973083019e-01
    7.7992854118e+00    1.2119948119e-01
    7.8986787796e+00    1.2266092747e-01
    7.9991712570e+00    1.2413362414e-01
    8.0998630524e+00    1.2560419738e-01
    8.1984853745e+00    1.2704019248e-01
    8.2996377945e+00    1.2850788236e-01
    8.3982439041e+00    1.2993533909e-01
    8.4985017776e+00    1.3138215244e-01
    8.5991115570e+00    1.3283121586e-01
    8.6992826462e+00    1.3427071273e-01
    8.7985725403e+00    1.3569435477e-01
    8.8997306824e+00    1.3714140654e-01
    8.9997901917e+00    1.3857057691e-01
    9.0997190475e+00    1.3999330997e-01
    9.1993360519e+00    1.4140765369e-01
    9.2992801666e+00    1.4282339811e-01
    9.3986368179e+00    1.4422573149e-01
    9.4987831116e+00    1.4563453197e-01
    9.5996103287e+00    1.4704997838e-01
    9.6994476318e+00    1.4844606817e-01
    9.7999267578e+00    1.4984849095e-01
    9.8990697861e+00    1.5122903883e-01
    9.9983463287e+00    1.5260867774e-01
    1.0098764420e+01    1.5645995736e-01
    1.0199291229e+01    1.6035504639e-01
    1.0298808098e+01    1.6420912743e-01
    1.0399515152e+01    1.6810742021e-01
    1.0498553276e+01    1.7193919420e-01
    1.0599480629e+01    1.7584292591e-01
    1.0699219704e+01    1.7969822884e-01
    1.0799749374e+01    1.8358340859e-01
    1.0898918152e+01    1.8741437793e-01
    1.0999976158e+01    1.9131582975e-01
    1.1098901749e+01    1.9513314962e-01
    1.1199955940e+01    1.9902978837e-01
    1.1298659325e+01    2.0283329487e-01
    1.1399050713e+01    2.0669829845e-01
    1.1499440193e+01    2.1055991948e-01
    1.1598249435e+01    2.1435722709e-01
    1.1698875427e+01    2.1821995080e-01
    1.1798378944e+01    2.2203712165e-01
    1.1899182320e+01    2.2589829564e-01
    1.1998335838e+01    2.2969385982e-01
    1.2099510193e+01    2.3356056213e-01
    1.2199143410e+01    2.3736578226e-01
    1.2299744606e+01    2.4120421708e-01
    1.2398460388e+01    2.4496711791e-01
    1.2498364449e+01    2.4877208471e-01
    1.2599061012e+01    2.5260433555e-01
    1.2699979782e+01    2.5643938780e-01
    1.2799487114e+01    2.6021674275e-01
    1.2899122238e+01    2.6399239898e-01
    1.2999505997e+01    2.6779219508e-01
    1.3099875450e+01    2.7158701420e-01
    1.3199023247e+01    2.7533331513e-01
    1.3299539566e+01    2.7912899852e-01
    1.3399533272e+01    2.8290408850e-01
    1.3499732971e+01    2.8668761253e-01
    1.3598946571e+01    2.9043361545e-01
    1.3699939728e+01    2.9424899817e-01
    1.3799702644e+01    2.9801869392e-01
    1.3899205208e+01    3.0178108811e-01
    1.3999148369e+01    3.0556228757e-01
    1.4099313736e+01    3.0935350060e-01
    1.4198269844e+01    3.1309971213e-01
    1.4298382759e+01    3.1689000130e-01
    1.4399828911e+01    3.2072988153e-01
    1.4498350143e+01    3.2445800304e-01
    1.4599529266e+01    3.2828369737e-01
    1.4698245049e+01    3.3201330900e-01
    1.4799729347e+01    3.3584371209e-01
    1.4898662567e+01    3.3957430720e-01
    1.4999084473e+01    3.4335720539e-01
    1.5099720001e+01    3.4714239836e-01
    1.5198350906e+01    3.5084718466e-01
    1.5298517227e+01    3.5460352898e-01
    1.5399540901e+01    3.5838568211e-01
    1.5498674393e+01    3.6208960414e-01
    1.5599384308e+01    3.6584469676e-01
    1.5698990822e+01    3.6954969168e-01
    1.5798612595e+01    3.7324619293e-01
    1.5899548531e+01    3.7698081136e-01
    1.5999652863e+01    3.8067430258e-01
    1.6099533081e+01    3.8434720039e-01
    1.6199302673e+01    3.8800460100e-01
    1.6298414230e+01    3.9162641764e-01
    1.6398687363e+01    3.9527699351e-01
    1.6498300552e+01    3.9889147878e-01
    1.6598442078e+01    4.0251198411e-01
    1.6699703217e+01    4.0615940094e-01
    1.6799314499e+01    4.0973550081e-01
    1.6900022507e+01    4.1333770752e-01
    1.6998470306e+01    4.1684600711e-01
    1.7098567963e+01    4.2040017247e-01
    1.7198905945e+01    4.2395010591e-01
    1.7298345566e+01    4.2745560408e-01
    1.7399736404e+01    4.3101650476e-01
    1.7499460220e+01    4.3450540304e-01
    1.7599563599e+01    4.3799430132e-01
    1.7700019836e+01    4.4148319960e-01
    1.7799631119e+01    4.4492849708e-01
    1.7899240494e+01    4.4836100936e-01
    1.7998786926e+01    4.5177620649e-01
    1.8098701477e+01    4.5518910885e-01
    1.8198375702e+01    4.5857837796e-01
    1.8298400879e+01    4.6196430922e-01
    1.8398958206e+01    4.6535399556e-01
    1.8499059677e+01    4.6871370077e-01
    1.8599334717e+01    4.7206676006e-01
    1.8699607849e+01    4.7540578246e-01
    1.8798980713e+01    4.7870299220e-01
    1.8899435043e+01    4.8202389479e-01
    1.9000022888e+01    4.8533630371e-01
    1.9100019455e+01    4.8861667514e-01
    1.9199048996e+01    4.9185329676e-01
    1.9298425674e+01    4.9508869648e-01
    1.9398422241e+01    4.9833127856e-01
    1.9498443604e+01    5.0156199932e-01
    1.9599842072e+01    5.0482469797e-01
    1.9698564529e+01    5.0799000263e-01
    1.9799581528e+01    5.1121670008e-01
    1.9899705887e+01    5.1440578699e-01
    1.9999288559e+01    5.1756763458e-01
    2.0098697662e+01    5.2337312698e-01
    2.0198348999e+01    5.2920436859e-01
    2.0299779892e+01    5.3513354063e-01
    2.0399959564e+01    5.4098385572e-01
    2.0498212814e+01    5.4671627283e-01
    2.0598485947e+01    5.5256181955e-01
    2.0699329376e+01    5.5843341351e-01
    2.0798984528e+01    5.6423097849e-01
    2.0898744583e+01    5.7002741098e-01
    2.0998222351e+01    5.7580178976e-01
    2.1099475861e+01    5.8167099953e-01
    2.1198196411e+01    5.8738625050e-01
    2.1299110413e+01    5.9321874380e-01
    2.1399915695e+01    5.9903579950e-01
    2.1499967575e+01    6.0480064154e-01
    2.1599319458e+01    6.1051458120e-01
    2.1699476242e+01    6.1626470089e-01
    2.1799100876e+01    6.2197506428e-01
    2.1898920059e+01    6.2768518925e-01
    2.1998298645e+01    6.3336038589e-01
    2.2099454880e+01    6.3912630081e-01
    2.2198722839e+01    6.4477330446e-01
    2.2298189163e+01    6.5042209625e-01
    2.2399984360e+01    6.5619313717e-01
    2.2498773575e+01    6.6178339720e-01
    2.2598884583e+01    6.6743773222e-01
    2.2698997498e+01    6.7308115959e-01
    2.2799680710e+01    6.7874360085e-01
    2.2899301529e+01    6.8433332443e-01
    2.2998918533e+01    6.8991088867e-01
    2.3099033356e+01    6.9550609589e-01
    2.3199619293e+01    7.0111721754e-01
    2.3299268723e+01    7.0666813850e-01
    2.3398923874e+01    7.1221321821e-01
    2.3498786926e+01    7.1776318550e-01
    2.3598436356e+01    7.2329759598e-01
    2.3699888229e+01    7.2892922163e-01
    2.3799098969e+01    7.3443418741e-01
    2.3898399353e+01    7.3994135857e-01
    2.3998563766e+01    7.4549531937e-01
    2.4098733902e+01    7.5104719400e-01
    2.4198814392e+01    7.5659227371e-01
    2.4298492432e+01    7.6211035252e-01
    2.4399940491e+01    7.6772087812e-01
    2.4500019073e+01    7.7324980497e-01
    2.4599746704e+01    7.7875280380e-01
    2.4699777603e+01    7.8426271677e-01
    2.4799495697e+01    7.8974747658e-01
    2.4898862839e+01    7.9520267248e-01
    2.4998836517e+01    8.0068069696e-01
    2.5098476410e+01    8.0612957478e-01
    2.5199890137e+01    8.1166303158e-01
    2.5299737930e+01    8.1709903479e-01
    2.5399740219e+01    8.2253098488e-01
    2.5499414444e+01    8.2793003321e-01
    2.5599195480e+01    8.3332204819e-01
    2.5698812485e+01    8.3868998289e-01
    2.5798421860e+01    8.4404200315e-01
    2.5898353577e+01    8.4939402342e-01
    2.5999998093e+01    8.5481798649e-01
    2.6099861145e+01    8.6012703180e-01
    2.6198402405e+01    8.6534601450e-01
    2.6298484802e+01    8.7062597275e-01
    2.6399028778e+01    8.7591004372e-01
    2.6498607635e+01    8.8112103939e-01
    2.6598625183e+01    8.8633596897e-01
    2.6700000763e+01    8.9159095287e-01
    2.6799594879e+01    8.9674299955e-01
    2.6899187088e+01    9.0187495947e-01
    2.6999986649e+01    9.0704602003e-01
    2.7099403381e+01    9.1211807728e-01
    2.7200050354e+01    9.1723799706e-01
    2.7298809052e+01    9.2223799229e-01
    2.7399587631e+01    9.2731100321e-01
    2.7499704361e+01    9.3233299255e-01
    2.7599781036e+01    9.3733197451e-01
    2.7698648453e+01    9.4224894047e-01
    2.7798448563e+01    9.4718408585e-01
    2.7899450302e+01    9.5215296745e-01
    2.7998519897e+01    9.5699900389e-01
    2.8099842072e+01    9.6193701029e-01
    2.8198944092e+01    9.6672803164e-01
    2.8298927307e+01    9.7153496742e-01
    2.8398981094e+01    9.7632300854e-01
    2.8499391556e+01    9.8109698296e-01
    2.8598966599e+01    9.8581194878e-01
    2.8699089050e+01    9.9052107334e-01
    2.8798662186e+01    9.9517595768e-01
    2.8899751663e+01    9.9988394976e-01
    2.8998718262e+01    1.0044739246e+00
    2.9098787308e+01    1.0090750456e+00
    2.9198768616e+01    1.0136650801e+00
    2.9299558640e+01    1.0182529688e+00
    2.9399633408e+01    1.0227919817e+00
    2.9499403000e+01    1.0272940397e+00
    2.9598318100e+01    1.0317320824e+00
    2.9698682785e+01    1.0362160206e+00
    2.9800003052e+01    1.0407160521e+00
    2.9899883270e+01    1.0451389551e+00
    2.9999998093e+01    1.0495499372e+00
    3.0098602295e+01    1.0597789288e+00
    3.0200019836e+01    1.0702890158e+00
    3.0299659729e+01    1.0805970430e+00
    3.0399171829e+01    1.0908859968e+00
    3.0499309540e+01    1.1012200117e+00
    3.0599008560e+01    1.1115030050e+00
    3.0698991776e+01    1.1218090057e+00
    3.0798641205e+01    1.1320630312e+00
    3.0898929596e+01    1.1423699856e+00
    3.0999063492e+01    1.1526600122e+00
    3.1099655151e+01    1.1629760265e+00
    3.1198608398e+01    1.1731179953e+00
    3.1299425125e+01    1.1834310293e+00
    3.1398771286e+01    1.1935739517e+00
    3.1499235153e+01    1.2038239241e+00
    3.1599344254e+01    1.2140159607e+00
    3.1699052811e+01    1.2241530418e+00
    3.1798660278e+01    1.2342660427e+00
    3.1898815155e+01    1.2444180250e+00
    3.1999830246e+01    1.2546409369e+00
    3.2099437714e+01    1.2646939754e+00
    3.2199039459e+01    1.2747410536e+00
    3.2299148560e+01    1.2848190069e+00
    3.2398601532e+01    1.2948210239e+00
    3.2498691559e+01    1.3048709631e+00
    3.2598789215e+01    1.3149039745e+00
    3.2698886871e+01    1.3249170780e+00
    3.2799327850e+01    1.3349490166e+00
    3.2898925781e+01    1.3448630571e+00
    3.2998516083e+01    1.3547658920e+00
    3.3099620819e+01    1.3647990227e+00
    3.3199100494e+01    1.3746531010e+00
    3.3298751831e+01    1.3845100403e+00
    3.3398422241e+01    1.3943669796e+00
    3.3499736786e+01    1.4043700695e+00
    3.3599079132e+01    1.4141850471e+00
    3.3699657440e+01    1.4241110086e+00
    3.3799346924e+01    1.4339509010e+00
    3.3898883820e+01    1.4437739849e+00
    3.3999065399e+01    1.4536570311e+00
    3.4099254608e+01    1.4635379314e+00
    3.4199443817e+01    1.4734139442e+00
    3.4299869537e+01    1.4833080769e+00
    3.4399551392e+01    1.4931240082e+00
    3.4498828888e+01    1.5028920174e+00
    3.4599037170e+01    1.5127310753e+00
    3.4698753357e+01    1.5225089788e+00
    3.4798881531e+01    1.5323200226e+00
    3.4898456573e+01    1.5420500040e+00
    3.4998504639e+01    1.5518060923e+00
    3.5099002838e+01    1.5615969896e+00
    3.5198608398e+01    1.5712639093e+00
    3.5299983978e+01    1.5810940266e+00
    3.5399642944e+01    1.5907230377e+00
    3.5499847412e+01    1.6003810167e+00
    3.5599723816e+01    1.6099929810e+00
    3.5698516846e+01    1.6194620132e+00
    3.5799869537e+01    1.6291530132e+00
    3.5898952484e+01    1.6385949850e+00
    3.5999000549e+01    1.6481050253e+00
    3.6099060059e+01    1.6575708389e+00
    3.6199333191e+01    1.6670269966e+00
    3.6299373627e+01    1.6764349937e+00
    3.6399482727e+01    1.6858050823e+00
    3.6499809265e+01    1.6951611042e+00
    3.6599678040e+01    1.7044358253e+00
    3.6699234009e+01    1.7136449814e+00
    3.6798789978e+01    1.7228200436e+00
    3.6898342133e+01    1.7319600582e+00
    3.6999279022e+01    1.7411940098e+00
    3.7099315643e+01    1.7503049374e+00
    3.7198692322e+01    1.7593239546e+00
    3.7298439026e+01    1.7683429718e+00
    3.7398315430e+01    1.7773299217e+00
    3.7498409271e+01    1.7863010168e+00
    3.7598438263e+01    1.7952258587e+00
    3.7699916840e+01    1.8042460680e+00
    3.7799449921e+01    1.8130490780e+00
    3.7899845123e+01    1.8218750954e+00
    3.7999843597e+01    1.8306299448e+00
    3.8099109650e+01    1.8392779827e+00
    3.8198932648e+01    1.8479149342e+00
    3.8298389435e+01    1.8564810753e+00
    3.8399608612e+01    1.8651461601e+00
    3.8499282837e+01    1.8736408949e+00
    3.8599353790e+01    1.8821251392e+00
    3.8698871613e+01    1.8905100822e+00
    3.8798389435e+01    1.8988639116e+00
    3.8898651123e+01    1.9072350264e+00
    3.8998657227e+01    1.9155439138e+00
    3.9098667145e+01    1.9238120317e+00
    3.9199176788e+01    1.9320740700e+00
    3.9299110413e+01    1.9402489662e+00
    3.9399120331e+01    1.9483870268e+00
    3.9498504639e+01    1.9564321041e+00
    3.9599822998e+01    1.9645948410e+00
    3.9699127197e+01    1.9725428820e+00
    3.9799213409e+01    1.9805270433e+00
    3.9899280548e+01    1.9884779453e+00
    3.9998928070e+01    1.9963569641e+00
    4.0099857330e+01    2.0120961666e+00
    4.0199478149e+01    2.0276739597e+00
    4.0299098969e+01    2.0432381630e+00
    4.0398353577e+01    2.0587310791e+00
    4.0498481750e+01    2.0743310452e+00
    4.0598518372e+01    2.0898959637e+00
    4.0698715210e+01    2.1054761410e+00
    4.0798355103e+01    2.1209459305e+00
    4.0899299622e+01    2.1366009712e+00
    4.0999423981e+01    2.1521079540e+00
    4.1099540710e+01    2.1675939560e+00
    4.1199337006e+01    2.1830041409e+00
    4.1299434662e+01    2.1984441280e+00
    4.1399658203e+01    2.2138710022e+00
    4.1499214172e+01    2.2291760445e+00
    4.1599300385e+01    2.2445259094e+00
    4.1699085236e+01    2.2598040104e+00
    4.1798656464e+01    2.2750248909e+00
    4.1898746490e+01    2.2902898788e+00
    4.1998840332e+01    2.3055367470e+00
    4.2098407745e+01    2.3206748962e+00
    4.2198299408e+01    2.3358278275e+00
    4.2299823761e+01    2.3512082100e+00
    4.2398780823e+01    2.3661730289e+00
    4.2498844147e+01    2.3812849522e+00
    4.2598911285e+01    2.3963699341e+00
    4.2698986053e+01    2.4114260674e+00
    4.2799537659e+01    2.4265241623e+00
    4.2899108887e+01    2.4414448738e+00
    4.2999004364e+01    2.4563770294e+00
    4.3099079132e+01    2.4713129997e+00
    4.3199871063e+01    2.4863359928e+00
    4.3299522400e+01    2.5011739731e+00
    4.3399192810e+01    2.5159869194e+00
    4.3499748230e+01    2.5309281349e+00
    4.3599456787e+01    2.5457389355e+00
    4.3699169159e+01    2.5605459213e+00
    4.3798877716e+01    2.5753390789e+00
    4.3899314880e+01    2.5902500153e+00
    4.3999515533e+01    2.6051208973e+00
    4.4099723816e+01    2.6199789047e+00
    4.4198036194e+01    2.6345582008e+00
    4.4298381805e+01    2.6494328976e+00
    4.4399837494e+01    2.6644601822e+00
    4.4499328613e+01    2.6791720390e+00
    4.4599395752e+01    2.6939508915e+00
    4.4699516296e+01    2.7087140083e+00
    4.4799629211e+01    2.7234508991e+00
    4.4899730682e+01    2.7381510735e+00
    4.4998546600e+01    2.7526469231e+00
    4.5098140717e+01    2.7672150135e+00
    4.5199497223e+01    2.7820060253e+00
    4.5298046112e+01    2.7963600159e+00
    4.5398090363e+01    2.8108999729e+00
    4.5498126984e+01    2.8253929615e+00
    4.5599277496e+01    2.8400089741e+00
    4.5698810577e+01    2.8543519974e+00
    4.5798332214e+01    2.8686518669e+00
    4.5898017883e+01    2.8829259872e+00
    4.5998008728e+01    2.8971920013e+00
    4.6097988129e+01    2.9114170074e+00
    4.6199428558e+01    2.9257869720e+00
    4.6299407959e+01    2.9398961067e+00
    4.6398120880e+01    2.9537711143e+00
    4.6499397278e+01    2.9679548740e+00
    4.6598899841e+01    2.9818291664e+00
    4.6698402405e+01    2.9956600666e+00
    4.6799678802e+01    3.0096678734e+00
    4.6899173737e+01    3.0233919621e+00
    4.6999542236e+01    3.0371739864e+00
    4.7098857880e+01    3.0507550240e+00
    4.7199291229e+01    3.0644459724e+00
    4.7299266815e+01    3.0780129433e+00
    4.7398078918e+01    3.0913667679e+00
    4.7498756409e+01    3.1049242020e+00
    4.7598289490e+01    3.1182641983e+00
    4.7699813843e+01    3.1318109035e+00
    4.7799278259e+01    3.1450140476e+00
    4.7898590088e+01    3.1581430435e+00
    4.7998500824e+01    3.1712682247e+00
    4.8099559784e+01    3.1844851971e+00
    4.8198963165e+01    3.1974022388e+00
    4.8298854828e+01    3.2103099823e+00
    4.8398754120e+01    3.2231502533e+00
    4.8498462677e+01    3.2359001637e+00
    4.8599662781e+01    3.2487597466e+00
    4.8699085236e+01    3.2613298893e+00
    4.8798507690e+01    3.2738299370e+00
    4.8899772644e+01    3.2864999771e+00
    4.8999694824e+01    3.2989401817e+00
    4.9099620819e+01    3.3113098145e+00
    4.9198139191e+01    3.3234400749e+00
    4.9298316956e+01    3.3357100487e+00
    4.9398250580e+01    3.3478901386e+00
    4.9499446869e+01    3.3601601124e+00
    4.9598911285e+01    3.3721401691e+00
    4.9698387146e+01    3.3840799332e+00
    4.9799617767e+01    3.3961598873e+00
    4.9899623871e+01    3.4080500603e+00
    4.9999660492e+01    3.4198799133e+00
    5.0098098755e+01    3.4409098625e+00
    5.0199462891e+01    3.4625499249e+00
    5.0299053192e+01    3.4837801456e+00
    5.0399291992e+01    3.5051202774e+00
    5.0499393463e+01    3.5264000893e+00
    5.0598949432e+01    3.5475296974e+00
    5.0699668884e+01    3.5688800812e+00
    5.0799289703e+01    3.5899701118e+00
    5.0898181915e+01    3.6108801365e+00
    5.0998275757e+01    3.6320099831e+00
    5.1098358154e+01    3.6531000137e+00
    5.1199668884e+01    3.6744198799e+00
    5.1299720764e+01    3.6954298019e+00
    5.1399772644e+01    3.7164001465e+00
    5.1498275757e+01    3.7370100021e+00
    5.1599540710e+01    3.7581598759e+00
    5.1698398590e+01    3.7787597179e+00
    5.1799694061e+01    3.7998301983e+00
    5.1898193359e+01    3.8202700615e+00
    5.1998561859e+01    3.8410601616e+00
    5.2098068237e+01    3.8616201878e+00
    5.2198875427e+01    3.8824200630e+00
    5.2298877716e+01    3.9030199051e+00
    5.2399234772e+01    3.9236598015e+00
    5.2499244690e+01    3.9441900253e+00
    5.2599269867e+01    3.9646902084e+00
    5.2699302673e+01    3.9851398468e+00
    5.2798126221e+01    4.0053000450e+00
    5.2899436951e+01    4.0259299278e+00
    5.2998062134e+01    4.0459699631e+00
    5.3098098755e+01    4.0662598610e+00
    5.3198863983e+01    4.0866703987e+00
    5.3298503876e+01    4.1068201065e+00
    5.3398166656e+01    4.1269502640e+00
    5.3498939514e+01    4.1472997665e+00
    5.3598873138e+01    4.1674699783e+00
    5.3698589325e+01    4.1875801086e+00
    5.3798301697e+01    4.2076897621e+00
    5.3897865295e+01    4.2277598381e+00
    5.3998069763e+01    4.2479701042e+00
    5.4098285675e+01    4.2681698799e+00
    5.4198505402e+01    4.2883596420e+00
    5.4299053192e+01    4.3086099625e+00
    5.4398735046e+01    4.3286600113e+00
    5.4498657227e+01    4.3487401009e+00
    5.4598705292e+01    4.3688302040e+00
    5.4699481964e+01    4.3890295029e+00
    5.4799552917e+01    4.4090404510e+00
    5.4899612427e+01    4.4290199280e+00
    5.4999595642e+01    4.4489297867e+00
    5.5099143982e+01    4.4687204361e+00
    5.5198669434e+01    4.4884500504e+00
    5.5298175812e+01    4.5081300735e+00
    5.5398063660e+01    4.5278396606e+00
    5.5498039246e+01    4.5475201607e+00
    5.5598033905e+01    4.5671401024e+00
    5.5699287415e+01    4.5869703293e+00
    5.5798744202e+01    4.6063699722e+00
    5.5898166656e+01    4.6257100105e+00
    5.5998081207e+01    4.6450800896e+00
    5.6097984314e+01    4.6643800735e+00
    5.6199676514e+01    4.6839399338e+00
    5.6299579620e+01    4.7031002045e+00
    5.6398529053e+01    4.7219896317e+00
    5.6497966766e+01    4.7409100533e+00
    5.6599174500e+01    4.7600898743e+00
    5.6698612213e+01    4.7788500786e+00
    5.6798046112e+01    4.7975497246e+00
    5.6899253845e+01    4.8165102005e+00
    5.6998672485e+01    4.8350596428e+00
    5.7097915649e+01    4.8535099030e+00
    5.7197814941e+01    4.8720002174e+00
    5.7299598694e+01    4.8907799721e+00
    5.7399082184e+01    4.9090600014e+00
    5.7499126434e+01    4.9273600578e+00
    5.7599010468e+01    4.9455499649e+00
    5.7698562622e+01    4.9636001587e+00
    5.7797931671e+01    4.9815201759e+00
    5.7898361206e+01    4.9995498657e+00
    5.7998157501e+01    5.0173697472e+00
    5.8098327637e+01    5.0351500511e+00
    5.8199378967e+01    5.0529804230e+00
    5.8298610687e+01    5.0703997612e+00
    5.8398380280e+01    5.0878100395e+00
    5.8499187469e+01    5.1052799225e+00
    5.8598491669e+01    5.1224098206e+00
    5.8699565887e+01    5.1397399902e+00
    5.8798862457e+01    5.1566801071e+00
    5.8898887634e+01    5.1736402512e+00
    5.8998683929e+01    5.1904697418e+00
    5.9098491669e+01    5.2072200775e+00
    5.9198341370e+01    5.2238798141e+00
    5.9298294067e+01    5.2404699326e+00
    5.9398117065e+01    5.2569499016e+00
    5.9497962952e+01    5.2733302116e+00
    5.9599109650e+01    5.2898397446e+00
    5.9698490143e+01    5.3059802055e+00
    5.9799648285e+01    5.3223199844e+00
    5.9899570465e+01    5.3383898735e+00
    5.9999534607e+01    5.3544001579e+00
    6.0098567963e+01    5.3812599182e+00
    6.0198093414e+01    5.4082603455e+00
    6.0299407959e+01    5.4356899261e+00
    6.0398609161e+01    5.4625000954e+00
    6.0498657227e+01    5.4895000458e+00
    6.0599182129e+01    5.5165901184e+00
    6.0698760986e+01    5.5433897972e+00
    6.0797878265e+01    5.5700201988e+00
    6.0898948669e+01    5.5971498489e+00
    6.0998996735e+01    5.6239500046e+00
    6.1099029541e+01    5.6507101059e+00
    6.1199272156e+01    5.6774797440e+00
    6.1299041748e+01    5.7040500641e+00
    6.1399021149e+01    5.7306394577e+00
    6.1498992920e+01    5.7571697235e+00
    6.1598953247e+01    5.7836303711e+00
    6.1697956085e+01    5.8097801208e+00
    6.1799171448e+01    5.8364701271e+00
    6.1898597717e+01    5.8626098633e+00
    6.1998027802e+01    5.8887100220e+00
    6.2099235535e+01    5.9152297974e+00
    6.2198211670e+01    5.9411001205e+00
    6.2298141479e+01    5.9671707153e+00
    6.2398086548e+01    5.9932103157e+00
    6.2498031616e+01    6.0191898346e+00
    6.2597999573e+01    6.0451402664e+00
    6.2697975159e+01    6.0710401535e+00
    6.2797863007e+01    6.0968599319e+00
    6.2899108887e+01    6.1229801178e+00
    6.2998905182e+01    6.1486701965e+00
    6.3098896027e+01    6.1743597984e+00
    6.3198524475e+01    6.1999292374e+00
    6.3298133850e+01    6.2254600525e+00
    6.3399559021e+01    6.2514200211e+00
    6.3498779297e+01    6.2768096924e+00
    6.3598480225e+01    6.3023004532e+00
    6.3698188782e+01    6.3277902603e+00
    6.3797893524e+01    6.3532905579e+00
    6.3898326874e+01    6.3789596558e+00
    6.3998527527e+01    6.4045801163e+00
    6.4098731995e+01    6.4301800728e+00
    6.4198936462e+01    6.4557805061e+00
    6.4298355103e+01    6.4811792374e+00
    6.4398010254e+01    6.5066099167e+00
    6.4498008728e+01    6.5320901871e+00
    6.4598266602e+01    6.5576095581e+00
    6.4699348450e+01    6.5832996368e+00
    6.4799369812e+01    6.6086702347e+00
    6.4899368286e+01    6.6340003014e+00
    6.4998397827e+01    6.6590194702e+00
    6.5097877502e+01    6.6840996742e+00
    6.5199111938e+01    6.7095599174e+00
    6.5298538208e+01    6.7345099449e+00
    6.5399162292e+01    6.7596902847e+00
    6.5499061584e+01    6.7846403122e+00
    6.5599525452e+01    6.8096599579e+00
    6.5698921204e+01    6.8343496323e+00
    6.5798294067e+01    6.8589501381e+00
    6.5897834778e+01    6.8835096359e+00
    6.5999557495e+01    6.9085798264e+00
    6.6098937988e+01    6.9329600334e+00
    6.6199455261e+01    6.9574699402e+00
    6.6299278259e+01    6.9818000793e+00
    6.6399482727e+01    7.0060701370e+00
    6.6498840332e+01    7.0300998688e+00
    6.6598190308e+01    7.0540299416e+00
    6.6699317932e+01    7.0782694817e+00
    6.6798683167e+01    7.1020298004e+00
    6.6898033142e+01    7.1256008148e+00
    6.6999145508e+01    7.1495800018e+00
    6.7099243164e+01    7.1732397079e+00
    6.7198074341e+01    7.1965503693e+00
    6.7298454285e+01    7.2201004028e+00
    6.7399185181e+01    7.2435798645e+00
    6.7497909546e+01    7.2665395737e+00
    6.7597702026e+01    7.2897105217e+00
    6.7699356079e+01    7.3131303787e+00
    6.7798828125e+01    7.3360400200e+00
    6.7897789001e+01    7.3586201668e+00
    6.7999328613e+01    7.3817100525e+00
    6.8098121643e+01    7.4039697647e+00
    6.8199020386e+01    7.4266104698e+00
    6.8297653198e+01    7.4486398697e+00
    6.8399147034e+01    7.4711904526e+00
    6.8498237610e+01    7.4929695129e+00
    6.8599159241e+01    7.5150699615e+00
    6.8698303223e+01    7.5366802216e+00
    6.8799217224e+01    7.5586299896e+00
    6.8899200439e+01    7.5801396370e+00
    6.8998847961e+01    7.6015005112e+00
    6.9098510742e+01    7.6227302551e+00
    6.9197891235e+01    7.6438093185e+00
    6.9299468994e+01    7.6652202606e+00
    6.9399154663e+01    7.6860899925e+00
    6.9497993469e+01    7.7067303658e+00
    6.9599014282e+01    7.7275996208e+00
    6.9698280334e+01    7.7481203079e+00
    6.9798995972e+01    7.7687406540e+00
    6.9898811340e+01    7.7891502380e+00
    6.9998680115e+01    7.8094601631e+00
    7.0097732544e+01    7.8403701782e+00
    7.0198951721e+01    7.8720407486e+00
    7.0298408508e+01    7.9030294418e+00
    7.0398422241e+01    7.9342303276e+00
    7.0498405457e+01    7.9653000832e+00
    7.0597740173e+01    7.9961500168e+00
    7.0699028015e+01    8.0275297165e+00
    7.0797859192e+01    8.0581893921e+00
    7.0897842407e+01    8.0890598297e+00
    7.0997810364e+01    8.1198701859e+00
    7.1097755432e+01    8.1506395340e+00
    7.1197677612e+01    8.1813402176e+00
    7.1299461365e+01    8.2125797272e+00
    7.1399353027e+01    8.2431497574e+00
    7.1499229431e+01    8.2736606598e+00
    7.1598777771e+01    8.3039598465e+00
    7.1698143005e+01    8.3341398239e+00
    7.1799255371e+01    8.3648490906e+00
    7.1898574829e+01    8.3948001862e+00
    7.1997894287e+01    8.4247703552e+00
    7.2098999023e+01    8.4552898407e+00
    7.2199409485e+01    8.4853897095e+00
    7.2299255371e+01    8.5153598785e+00
    7.2399116516e+01    8.5452795029e+00
    7.2498985291e+01    8.5750398636e+00
    7.2598876953e+01    8.6048498154e+00
    7.2698783875e+01    8.6345901489e+00
    7.2797836304e+01    8.6640605927e+00
    7.2899009705e+01    8.6939897537e+00
    7.2998962402e+01    8.7236499786e+00
    7.3098884583e+01    8.7531499863e+00
    7.3198463440e+01    8.7824897766e+00
    7.3298019409e+01    8.8118095398e+00
    7.3397613525e+01    8.8410902023e+00
    7.3499336243e+01    8.8710603714e+00
    7.3598999023e+01    8.9002895355e+00
    7.3698661804e+01    8.9296207428e+00
    7.3798332214e+01    8.9589395523e+00
    7.3898399353e+01    8.9883804321e+00
    7.3998565674e+01    9.0177993774e+00
    7.4098731995e+01    9.0472202301e+00
    7.4198890686e+01    9.0767402649e+00
    7.4299026489e+01    9.1061506271e+00
    7.4397735596e+01    9.1351699829e+00
    7.4497787476e+01    9.1644401550e+00
    7.4598960876e+01    9.1941204071e+00
    7.4698753357e+01    9.2232799530e+00
    7.4798683167e+01    9.2524490356e+00
    7.4898597717e+01    9.2815704346e+00
    7.4999420166e+01    9.3109111786e+00
    7.5098808289e+01    9.3397197723e+00
    7.5198173523e+01    9.3685798645e+00
    7.5299278259e+01    9.3977603912e+00
    7.5398597717e+01    9.4263801575e+00
    7.5498970032e+01    9.4552001953e+00
    7.5599334717e+01    9.4839401245e+00
    7.5698646545e+01    9.5123500824e+00
    7.5798484802e+01    9.5408706665e+00
    7.5898513794e+01    9.5693502426e+00
    7.5998268127e+01    9.5976095200e+00
    7.6098014832e+01    9.6257896423e+00
    7.6197547913e+01    9.6538200378e+00
    7.6299171448e+01    9.6823501587e+00
    7.6398399353e+01    9.7100505829e+00
    7.6497673035e+01    9.7377510071e+00
    7.6598724365e+01    9.7658195496e+00
    7.6697998047e+01    9.7933197021e+00
    7.6799057007e+01    9.8211803436e+00
    7.6898330688e+01    9.8483896255e+00
    7.6999366760e+01    9.8760700226e+00
    7.7098609924e+01    9.9032096863e+00
    7.7198585510e+01    9.9303703308e+00
    7.7297973633e+01    9.9572801590e+00
    7.7398368835e+01    9.9844398499e+00
    7.7498069763e+01    1.0011259079e+01
    7.7597747803e+01    1.0037889481e+01
    7.7699287415e+01    1.0065010071e+01
    7.7798950195e+01    1.0091500282e+01
    7.7897987366e+01    1.0117600441e+01
    7.7999374390e+01    1.0144260406e+01
    7.8099342346e+01    1.0170319557e+01
    7.8198303223e+01    1.0196001053e+01
    7.8298873901e+01    1.0221989632e+01
    7.8398307800e+01    1.0247430801e+01
    7.8497680664e+01    1.0272729874e+01
    7.8598411560e+01    1.0298198700e+01
    7.8699142456e+01    1.0323619843e+01
    7.8798110962e+01    1.0348381042e+01
    7.8898254395e+01    1.0373279572e+01
    7.8998191833e+01    1.0397980690e+01
    7.9097694397e+01    1.0422469139e+01
    7.9198348999e+01    1.0447100639e+01
    7.9298652649e+01    1.0471479416e+01
    7.9398185730e+01    1.0495539665e+01
    7.9497749329e+01    1.0519460678e+01
    7.9597496033e+01    1.0543289185e+01
    7.9698616028e+01    1.0567399979e+01
    7.9798095703e+01    1.0590848923e+01
    7.9897773743e+01    1.0614340782e+01
    7.9997497559e+01    1.0637700081e+01
    8.0097618103e+01    1.0672559738e+01
    8.0198715210e+01    1.0707941055e+01
    8.0298057556e+01    1.0742670059e+01
    8.0399185181e+01    1.0777898788e+01
    8.0498634338e+01    1.0812459946e+01
    8.0598983765e+01    1.0847400665e+01
    8.0698387146e+01    1.0881859779e+01
    8.0797767639e+01    1.0916270256e+01
    8.0897644043e+01    1.0950780869e+01
    8.0997505188e+01    1.0985239029e+01
    8.1099220276e+01    1.1020271301e+01
    8.1199020386e+01    1.1054609299e+01
    8.1298789978e+01    1.1088769913e+01
    8.1398551941e+01    1.1122961044e+01
    8.1498306274e+01    1.1156959534e+01
    8.1598045349e+01    1.1190891266e+01
    8.1697723389e+01    1.1224750519e+01
    8.1798698425e+01    1.1259029388e+01
    8.1897895813e+01    1.1292469978e+01
    8.1998870850e+01    1.1326599121e+01
    8.2098083496e+01    1.1359899521e+01
    8.2199073792e+01    1.1393878937e+01
    8.2298812866e+01    1.1427280426e+01
    8.2398567200e+01    1.1460731506e+01
    8.2498344421e+01    1.1494009972e+01
    8.2598152161e+01    1.1527330399e+01
    8.2697975159e+01    1.1560590744e+01
    8.2798156738e+01    1.1593879700e+01
    8.2899246216e+01    1.1627420425e+01
    8.2999229431e+01    1.1660560608e+01
    8.3099082947e+01    1.1693580627e+01
    8.3198158264e+01    1.1726310730e+01
    8.3297653198e+01    1.1759079933e+01
    8.3398971558e+01    1.1792559624e+01
    8.3498863220e+01    1.1825469971e+01
    8.3598464966e+01    1.1858370781e+01
    8.3698081970e+01    1.1891180992e+01
    8.3797691345e+01    1.1924089432e+01
    8.3898269653e+01    1.1957210541e+01
    8.3998374939e+01    1.1990299225e+01
    8.4098472595e+01    1.2023399353e+01
    8.4198562622e+01    1.2056399345e+01
    8.4298629761e+01    1.2089509964e+01
    8.4398223877e+01    1.2122339249e+01
    8.4498199463e+01    1.2155328751e+01
    8.4598838806e+01    1.2188479424e+01
    8.4697959900e+01    1.2221059799e+01
    8.4797782898e+01    1.2253870010e+01
    8.4897583008e+01    1.2286621094e+01
    8.4998168945e+01    1.2319459915e+01
    8.5099212646e+01    1.2352490425e+01
    8.5198448181e+01    1.2384820938e+01
    8.5297653198e+01    1.2417089462e+01
    8.5398628235e+01    1.2449840546e+01
    8.5497817993e+01    1.2481969833e+01
    8.5597671509e+01    1.2514230728e+01
    8.5697830200e+01    1.2546510696e+01
    8.5798851013e+01    1.2579030037e+01
    8.5898101807e+01    1.2610850334e+01
    8.5997756958e+01    1.2642640114e+01
    8.6097404480e+01    1.2674448967e+01
    8.6198921204e+01    1.2706749916e+01
    8.6298568726e+01    1.2738359451e+01
    8.6397811890e+01    1.2769710541e+01
    8.6498756409e+01    1.2801488876e+01
    8.6598701477e+01    1.2832799911e+01
    8.6697883606e+01    1.2863859177e+01
    8.6798843384e+01    1.2895339012e+01
    8.6898025513e+01    1.2926209450e+01
    8.6998954773e+01    1.2957509041e+01
    8.7098098755e+01    1.2988109589e+01
    8.7198715210e+01    1.3019120216e+01
    8.7298324585e+01    1.3049778938e+01
    8.7397842407e+01    1.3080259323e+01
    8.7499237061e+01    1.3111200333e+01
    8.7598785400e+01    1.3141450882e+01
    8.7698303223e+01    1.3171580315e+01
    8.7798484802e+01    1.3201759338e+01
    8.7899139404e+01    1.3231919289e+01
    8.7998481750e+01    1.3261580467e+01
    8.8097717285e+01    1.3291000366e+01
    8.8198265076e+01    1.3320600510e+01
    8.8298553467e+01    1.3350010872e+01
    8.8399017334e+01    1.3379279137e+01
    8.8498985291e+01    1.3408240318e+01
    8.8597755432e+01    1.3436660767e+01
    8.8698303223e+01    1.3465379715e+01
    8.8798858643e+01    1.3494029999e+01
    8.8897850037e+01    1.3521979332e+01
    8.8998176575e+01    1.3550299644e+01
    8.9097503662e+01    1.3578020096e+01
    8.9199203491e+01    1.3606319427e+01
    8.9299118042e+01    1.3633910179e+01
    8.9398475647e+01    1.3661251068e+01
    8.9497886658e+01    1.3688530922e+01
    8.9599197388e+01    1.3716049194e+01
    8.9698600769e+01    1.3742930412e+01
    8.9797599792e+01    1.3769630432e+01
    8.9899002075e+01    1.3796810150e+01
    8.9998573303e+01    1.3823350906e+01
    9.0098762512e+01    1.3864359856e+01
    9.0197937012e+01    1.3904960632e+01
    9.0298896790e+01    1.3946290970e+01
    9.0398101807e+01    1.3986819267e+01
    9.0499107361e+01    1.4028090477e+01
    9.0597793579e+01    1.4068280220e+01
    9.0698822021e+01    1.4109320641e+01
    9.0797828674e+01    1.4149559021e+01
    9.0897560120e+01    1.4189970016e+01
    9.0999145508e+01    1.4231090546e+01
    9.1098815918e+01    1.4271370888e+01
    9.1198455811e+01    1.4311500549e+01
    9.1298057556e+01    1.4351500511e+01
    9.1397651672e+01    1.4391499519e+01
    9.1499107361e+01    1.4432100296e+01
    9.1598678589e+01    1.4471899986e+01
    9.1699058533e+01    1.4512000084e+01
    9.1798103333e+01    1.4551300049e+01
    9.1898902893e+01    1.4591300964e+01
    9.1997955322e+01    1.4630499840e+01
    9.2098793030e+01    1.4670398712e+01
    9.2197875977e+01    1.4709400177e+01
    9.2297485352e+01    1.4748600006e+01
    9.2399002075e+01    1.4788599968e+01
    9.2498672485e+01    1.4827699661e+01
    9.2598381042e+01    1.4866800308e+01
    9.2698112488e+01    1.4906000137e+01
    9.2797966003e+01    1.4944999695e+01
    9.2898956299e+01    1.4984499931e+01
    9.2998619080e+01    1.5023401260e+01
    9.3098381042e+01    1.5062199593e+01
    9.3198036194e+01    1.5101100922e+01
    9.3297462463e+01    1.5139799118e+01
    9.3398727417e+01    1.5179199219e+01
    9.3498016357e+01    1.5217801094e+01
    9.3597572327e+01    1.5256499290e+01
    9.3698913574e+01    1.5296000481e+01
    9.3798469543e+01    1.5334800720e+01
    9.3898223877e+01    1.5373800278e+01
    9.3998268127e+01    1.5412799835e+01
    9.4098312378e+01    1.5451899529e+01
    9.4198333740e+01    1.5491100311e+01
    9.4298332214e+01    1.5530098915e+01
    9.4397636414e+01    1.5569000244e+01
    9.4497520447e+01    1.5608000755e+01
    9.4597846985e+01    1.5647100449e+01
    9.4698738098e+01    1.5686499596e+01
    9.4798446655e+01    1.5725399971e+01
    9.4898117065e+01    1.5764099121e+01
    9.4999114990e+01    1.5803299904e+01
    9.5098251343e+01    1.5841799736e+01
    9.5199104309e+01    1.5880799294e+01
    9.5298164368e+01    1.5919099808e+01
    9.5398979187e+01    1.5957999229e+01
    9.5498023987e+01    1.5996100426e+01
    9.5598831177e+01    1.6034700394e+01
    9.5698951721e+01    1.6073200226e+01
    9.5798278809e+01    1.6111202240e+01
    9.5898300171e+01    1.6149299622e+01
    9.5997817993e+01    1.6187198639e+01
    9.6097335815e+01    1.6225000381e+01
    9.6198722839e+01    1.6263500214e+01
    9.6298248291e+01    1.6300998688e+01
    9.6397819519e+01    1.6338500977e+01
    9.6497848511e+01    1.6376098633e+01
    9.6598602295e+01    1.6413898468e+01
    9.6697647095e+01    1.6450901031e+01
    9.6798469543e+01    1.6488498688e+01
    9.6897514343e+01    1.6525199890e+01
    9.6998298645e+01    1.6562599182e+01
    9.7099067688e+01    1.6599800110e+01
    9.7197769165e+01    1.6636301041e+01
    9.7297233582e+01    1.6672798157e+01
    9.7398735046e+01    1.6709999084e+01
    9.7498657227e+01    1.6746498108e+01
    9.7598045349e+01    1.6782699585e+01
    9.7697395325e+01    1.6818698883e+01
    9.7798263550e+01    1.6855199814e+01
    9.7898178101e+01    1.6891099930e+01
    9.7997314453e+01    1.6926601410e+01
    9.8098434448e+01    1.6962600708e+01
    9.8197769165e+01    1.6997699738e+01
    9.8298843384e+01    1.7033300400e+01
    9.8397392273e+01    1.7067800522e+01
    9.8497711182e+01    1.7102798462e+01
    9.8598037720e+01    1.7137500763e+01
    9.8698379517e+01    1.7172000885e+01
    9.8798736572e+01    1.7206401825e+01
    9.8897354126e+01    1.7239898682e+01
    9.8998611450e+01    1.7274200439e+01
    9.9097320557e+01    1.7307601929e+01
    9.9197753906e+01    1.7341197968e+01
    9.9298713684e+01    1.7374900818e+01
    9.9397895813e+01    1.7407798767e+01
    9.9499000549e+01    1.7441200256e+01
    9.9598274231e+01    1.7473899841e+01
    9.9698577881e+01    1.7506700516e+01
    9.9798080444e+01    1.7539100647e+01
    9.9898994446e+01    1.7571800232e+01
    9.9998397827e+01    1.7603801727e+01
    1.0009864044e+02    1.7653499603e+01
    1.0019763947e+02    1.7702600479e+01
    1.0029843903e+02    1.7752599716e+01
    1.0039749146e+02    1.7801601410e+01
    1.0049832153e+02    1.7851299286e+01
    1.0059783936e+02    1.7900402069e+01
    1.0069870758e+02    1.7950099945e+01
    1.0079844666e+02    1.7999101639e+01
    1.0089800262e+02    1.8048000336e+01
    1.0099752808e+02    1.8096801758e+01
    1.0109889984e+02    1.8146400452e+01
    1.0119834137e+02    1.8194898605e+01
    1.0129775238e+02    1.8243400574e+01
    1.0139901733e+02    1.8292600632e+01
    1.0149839783e+02    1.8340801239e+01
    1.0159777069e+02    1.8388799667e+01
    1.0169760895e+02    1.8437099457e+01
    1.0179821014e+02    1.8485500336e+01
    1.0189880371e+02    1.8533901215e+01
    1.0199764252e+02    1.8581298828e+01
    1.0209828186e+02    1.8629600525e+01
    1.0219893646e+02    1.8677700043e+01
    1.0229785156e+02    1.8724899292e+01
    1.0239732361e+02    1.8772296906e+01
    1.0249871826e+02    1.8820699692e+01
    1.0259828186e+02    1.8868001938e+01
    1.0269788361e+02    1.8915298462e+01
    1.0279750824e+02    1.8962600708e+01
    1.0289836884e+02    1.9010498047e+01
    1.0299790192e+02    1.9057601929e+01
    1.0309754944e+02    1.9104701996e+01
    1.0319786835e+02    1.9152198792e+01
    1.0329721832e+02    1.9199199677e+01
    1.0339840698e+02    1.9246999741e+01
    1.0349829102e+02    1.9294198990e+01
    1.0359779358e+02    1.9341300964e+01
    1.0369728851e+02    1.9388399124e+01
    1.0379856873e+02    1.9436397552e+01
    1.0389771271e+02    1.9483499527e+01
    1.0399770355e+02    1.9530900955e+01
    1.0409767914e+02    1.9578399658e+01
    1.0419764709e+02    1.9626001358e+01
    1.0429756927e+02    1.9673400879e+01
    1.0439813232e+02    1.9721302032e+01
    1.0449791718e+02    1.9768802643e+01
    1.0459780121e+02    1.9816200256e+01
    1.0469799805e+02    1.9863899231e+01
    1.0479757690e+02    1.9911102295e+01
    1.0489711761e+02    1.9958299637e+01
    1.0499809265e+02    2.0006000519e+01
    1.0509884644e+02    2.0053600311e+01
    1.0519777679e+02    2.0100299835e+01
    1.0529844666e+02    2.0147600174e+01
    1.0539733887e+02    2.0194099426e+01
    1.0549799347e+02    2.0241300583e+01
    1.0559864807e+02    2.0288499832e+01
    1.0569843292e+02    2.0335199356e+01
    1.0579721069e+02    2.0381299973e+01
    1.0589787292e+02    2.0428100586e+01
    1.0599835205e+02    2.0474798203e+01
    1.0609770203e+02    2.0520900726e+01
    1.0619892883e+02    2.0567701340e+01
    1.0629830933e+02    2.0613700867e+01
    1.0639795685e+02    2.0659502029e+01
    1.0649761963e+02    2.0705198288e+01
    1.0659877777e+02    2.0751598358e+01
    1.0669853973e+02    2.0797201157e+01
    1.0679743195e+02    2.0842102051e+01
    1.0689806366e+02    2.0887901306e+01
    1.0699865723e+02    2.0933498383e+01
    1.0709877014e+02    2.0978700638e+01
    1.0719803619e+02    2.1023399353e+01
    1.0729885864e+02    2.1068799973e+01
    1.0739763641e+02    2.1113098145e+01
    1.0749868774e+02    2.1158201218e+01
    1.0759786987e+02    2.1202400208e+01
    1.0769888306e+02    2.1247198105e+01
    1.0779788971e+02    2.1290901184e+01
    1.0789813995e+02    2.1335100174e+01
    1.0799890137e+02    2.1379199982e+01
    1.0809844971e+02    2.1422601700e+01
    1.0819841003e+02    2.1465799332e+01
    1.0829833221e+02    2.1508998871e+01
    1.0839839172e+02    2.1551898956e+01
    1.0849845886e+02    2.1594501495e+01
    1.0859854126e+02    2.1636999130e+01
    1.0869864655e+02    2.1679199219e+01
    1.0879878235e+02    2.1721199036e+01
    1.0889717865e+02    2.1762199402e+01
    1.0899812317e+02    2.1804201126e+01
    1.0909706879e+02    2.1845100403e+01
    1.0919764709e+02    2.1886501312e+01
    1.0929842377e+02    2.1927701950e+01
    1.0939742279e+02    2.1968099594e+01
    1.0949835205e+02    2.2009000778e+01
    1.0959744263e+02    2.2048997879e+01
    1.0969844818e+02    2.2089599609e+01
    1.0979708099e+02    2.2129001617e+01
    1.0989814758e+02    2.2169198990e+01
    1.0999739838e+02    2.2208498001e+01
    1.1009716034e+02    2.2268800735e+01
    1.1019777679e+02    2.2329900742e+01
    1.1029842377e+02    2.2391000748e+01
    1.1039732361e+02    2.2450899124e+01
    1.1049800110e+02    2.2511697769e+01
    1.1059857178e+02    2.2572498322e+01
    1.1069751740e+02    2.2632099152e+01
    1.1079823303e+02    2.2692699432e+01
    1.1089785767e+02    2.2752601624e+01
    1.1099720764e+02    2.2812099457e+01
    1.1109838867e+02    2.2872701645e+01
    1.1119763947e+02    2.2931999207e+01
    1.1129871368e+02    2.2992300034e+01
    1.1139790344e+02    2.3051298141e+01
    1.1149706268e+02    2.3110200882e+01
    1.1159808350e+02    2.3170001984e+01
    1.1169725037e+02    2.3228599548e+01
    1.1179760742e+02    2.3287698746e+01
    1.1189797211e+02    2.3346801758e+01
    1.1199835968e+02    2.3405601501e+01
    1.1209877777e+02    2.3464399338e+01
    1.1219747925e+02    2.3522199631e+01
    1.1229828644e+02    2.3581100464e+01
    1.1239727020e+02    2.3638801575e+01
    1.1249848175e+02    2.3697700500e+01
    1.1259789276e+02    2.3755500793e+01
    1.1269734192e+02    2.3813301086e+01
    1.1279747009e+02    2.3871297836e+01
    1.1289817810e+02    2.3929700851e+01
    1.1299735260e+02    2.3987100601e+01
    1.1309873962e+02    2.4045701981e+01
    1.1319740295e+02    2.4102800369e+01
    1.1329843140e+02    2.4161100388e+01
    1.1339840698e+02    2.4218898773e+01
    1.1349875641e+02    2.4276798248e+01
    1.1359818268e+02    2.4334199905e+01
    1.1369760132e+02    2.4391700745e+01
    1.1379879761e+02    2.4450302124e+01
    1.1389765167e+02    2.4507499695e+01
    1.1399756622e+02    2.4565399170e+01
    1.1409748840e+02    2.4623399734e+01
    1.1419740295e+02    2.4681299210e+01
    1.1429724884e+02    2.4739297867e+01
    1.1439794922e+02    2.4797798157e+01
    1.1449765015e+02    2.4855499268e+01
    1.1459732056e+02    2.4913400650e+01
    1.1469751740e+02    2.4971397400e+01
    1.1479696655e+02    2.5029001236e+01
    1.1489826202e+02    2.5087499619e+01
    1.1499743652e+02    2.5144699097e+01
    1.1509806061e+02    2.5202697754e+01
    1.1519860840e+02    2.5260499954e+01
    1.1529736328e+02    2.5317098618e+01
    1.1539785004e+02    2.5374700546e+01
    1.1549835205e+02    2.5432197571e+01
    1.1559709167e+02    2.5488700867e+01
    1.1569792938e+02    2.5546100616e+01
    1.1579743958e+02    2.5602798462e+01
    1.1589797211e+02    2.5659799576e+01
    1.1599764252e+02    2.5716197968e+01
    1.1609871674e+02    2.5773401260e+01
    1.1619792175e+02    2.5829401016e+01
    1.1629714966e+02    2.5885198593e+01
    1.1639720154e+02    2.5941200256e+01
    1.1649771118e+02    2.5997398376e+01
    1.1659803772e+02    2.6053401947e+01
    1.1669721222e+02    2.6108600616e+01
    1.1679769135e+02    2.6164299011e+01
    1.1689814758e+02    2.6219900131e+01
    1.1699855804e+02    2.6275398254e+01
    1.1709792328e+02    2.6329999924e+01
    1.1719700623e+02    2.6384399414e+01
    1.1729862976e+02    2.6440000534e+01
    1.1739720154e+02    2.6493698120e+01
    1.1749748993e+02    2.6548097610e+01
    1.1759831238e+02    2.6602701187e+01
    1.1769722748e+02    2.6656101227e+01
    1.1779850769e+02    2.6710498810e+01
    1.1789849854e+02    2.6764001846e+01
    1.1799736786e+02    2.6816499710e+01
    1.1809806061e+02    2.6869798660e+01
    1.1819817352e+02    2.6922500610e+01
    1.1829778290e+02    2.6974498749e+01
    1.1839755249e+02    2.7026500702e+01
    1.1849733734e+02    2.7078100204e+01
    1.1859790039e+02    2.7129800797e+01
    1.1869867706e+02    2.7181400299e+01
    1.1879856873e+02    2.7232200623e+01
    1.1889846802e+02    2.7282798767e+01
    1.1899741364e+02    2.7332700729e+01
    1.1909802246e+02    2.7383100510e+01
    1.1919860077e+02    2.7433200836e+01
    1.1929830933e+02    2.7482599258e+01
    1.1939713287e+02    2.7531297684e+01
    1.1949787903e+02    2.7580801010e+01
    1.1959867096e+02    2.7630098343e+01
    1.1969764709e+02    2.7678300858e+01
    1.1979853821e+02    2.7726997375e+01
    1.1989759827e+02    2.7774797440e+01
    1.1999858093e+02    2.7823299408e+01
    1.2009774780e+02    2.7893798828e+01
    1.2019822693e+02    2.7965299606e+01
    1.2029696655e+02    2.8035497665e+01
    1.2039749908e+02    2.8106800079e+01
    1.2049803925e+02    2.8178001404e+01
    1.2059767914e+02    2.8248399734e+01
    1.2069825745e+02    2.8319299698e+01
    1.2079708099e+02    2.8388898849e+01
    1.2089868927e+02    2.8460399628e+01
    1.2099788666e+02    2.8530000687e+01
    1.2109703827e+02    2.8599401474e+01
    1.2119799042e+02    2.8669900894e+01
    1.2129701996e+02    2.8738897324e+01
    1.2139788818e+02    2.8809000015e+01
    1.2149687195e+02    2.8877700806e+01
    1.2159770203e+02    2.8947299957e+01
    1.2169763947e+02    2.9016300201e+01
    1.2179779816e+02    2.9085199356e+01
    1.2189794159e+02    2.9153900146e+01
    1.2199812317e+02    2.9222499847e+01
    1.2209832764e+02    2.9290901184e+01
    1.2219859314e+02    2.9359298706e+01
    1.2229724121e+02    2.9426399231e+01
    1.2239695740e+02    2.9494199753e+01
    1.2249800110e+02    2.9562797546e+01
    1.2259725952e+02    2.9629999161e+01
    1.2269843292e+02    2.9698299408e+01
    1.2279862976e+02    2.9766000748e+01
    1.2289742279e+02    2.9832500458e+01
    1.2299830627e+02    2.9900501251e+01
    1.2309768677e+02    2.9967300415e+01
    1.2319831848e+02    3.0034898758e+01
    1.2329746246e+02    3.0101501465e+01
    1.2339721680e+02    3.0168399811e+01
    1.2349736023e+02    3.0235599518e+01
    1.2359844208e+02    3.0303398132e+01
    1.2369776917e+02    3.0369998932e+01
    1.2379708862e+02    3.0436698914e+01
    1.2389762115e+02    3.0504201889e+01
    1.2399745178e+02    3.0571199417e+01
    1.2409728241e+02    3.0638301849e+01
    1.2419709778e+02    3.0705400467e+01
    1.2429685974e+02    3.0772399902e+01
    1.2439842224e+02    3.0840600967e+01
    1.2449800873e+02    3.0907398224e+01
    1.2459799957e+02    3.0974498749e+01
    1.2469785309e+02    3.1041301727e+01
    1.2479717255e+02    3.1107698441e+01
    1.2489830780e+02    3.1175201416e+01
    1.2499832916e+02    3.1241802216e+01
    1.2509703064e+02    3.1307500839e+01
    1.2519743347e+02    3.1374101639e+01
    1.2529778290e+02    3.1440601349e+01
    1.2539810944e+02    3.1506900787e+01
    1.2549844360e+02    3.1573101044e+01
    1.2559703064e+02    3.1637998581e+01
    1.2569779968e+02    3.1704097748e+01
    1.2579826355e+02    3.1770000458e+01
    1.2589691162e+02    3.1834497452e+01
    1.2599778748e+02    3.1900199890e+01
    1.2609689331e+02    3.1964698792e+01
    1.2619783783e+02    3.2030197144e+01
    1.2629695892e+02    3.2094299316e+01
    1.2639733887e+02    3.2158996582e+01
    1.2649861145e+02    3.2224098206e+01
    1.2659728241e+02    3.2287399292e+01
    1.2669764709e+02    3.2351501465e+01
    1.2679801178e+02    3.2415397644e+01
    1.2689832306e+02    3.2479103088e+01
    1.2699857330e+02    3.2542495728e+01
    1.2709752655e+02    3.2604900360e+01
    1.2719831085e+02    3.2668296814e+01
    1.2729701996e+02    3.2730201721e+01
    1.2739717102e+02    3.2792602539e+01
    1.2749725342e+02    3.2854801178e+01
    1.2759764862e+02    3.2916999817e+01
    1.2769821930e+02    3.2978900909e+01
    1.2779827118e+02    3.3040401459e+01
    1.2789801788e+02    3.3101200104e+01
    1.2799717712e+02    3.3161399841e+01
    1.2809693909e+02    3.3221504211e+01
    1.2819686890e+02    3.3281501770e+01
    1.2829693604e+02    3.3341102600e+01
    1.2839826965e+02    3.3401199341e+01
    1.2849775696e+02    3.3459701538e+01
    1.2859786987e+02    3.3518196106e+01
    1.2869781494e+02    3.3576202393e+01
    1.2879742432e+02    3.3633903503e+01
    1.2889707947e+02    3.3691101074e+01
    1.2899763489e+02    3.3748504639e+01
    1.2909800720e+02    3.3805503845e+01
    1.2919848633e+02    3.3862197876e+01
    1.2929832458e+02    3.3918197632e+01
    1.2939695740e+02    3.3973304749e+01
    1.2949751282e+02    3.4029003143e+01
    1.2959812927e+02    3.4084598541e+01
    1.2969694519e+02    3.4138801575e+01
    1.2979766846e+02    3.4193798065e+01
    1.2989843750e+02    3.4248500824e+01
    1.2999740601e+02    3.4302001953e+01
    1.3009817505e+02    3.4381504059e+01
    1.3019850159e+02    3.4460899353e+01
    1.3029710388e+02    3.4538898468e+01
    1.3039749146e+02    3.4618099213e+01
    1.3049801636e+02    3.4697200775e+01
    1.3059796143e+02    3.4775703430e+01
    1.3069842529e+02    3.4854404449e+01
    1.3079713440e+02    3.4931499481e+01
    1.3089851379e+02    3.5010604858e+01
    1.3099760437e+02    3.5087600708e+01
    1.3109846497e+02    3.5165996552e+01
    1.3119740295e+02    3.5242496490e+01
    1.3129817200e+02    3.5320304871e+01
    1.3139703369e+02    3.5396297455e+01
    1.3149830627e+02    3.5474102020e+01
    1.3159712219e+02    3.5549701691e+01
    1.3169775391e+02    3.5626502991e+01
    1.3179774475e+02    3.5702503204e+01
    1.3189770508e+02    3.5778297424e+01
    1.3199769592e+02    3.5853897095e+01
    1.3209773254e+02    3.5929397583e+01
    1.3219781494e+02    3.6004695892e+01
    1.3229798889e+02    3.6079902649e+01
    1.3239823914e+02    3.6155002594e+01
    1.3249871826e+02    3.6230102539e+01
    1.3259785461e+02    3.6304199219e+01
    1.3269705200e+02    3.6378204346e+01
    1.3279879761e+02    3.6453804016e+01
    1.3289747620e+02    3.6527099609e+01
    1.3299813843e+02    3.6601596832e+01
    1.3309741211e+02    3.6675102234e+01
    1.3319816589e+02    3.6749599457e+01
    1.3329722595e+02    3.6822696686e+01
    1.3339811707e+02    3.6897098541e+01
    1.3349728394e+02    3.6970294952e+01
    1.3359828186e+02    3.7044597626e+01
    1.3369750977e+02    3.7117801666e+01
    1.3379850769e+02    3.7192096710e+01
    1.3389860535e+02    3.7265903473e+01
    1.3399833679e+02    3.7339401245e+01
    1.3409806824e+02    3.7412696838e+01
    1.3419776917e+02    3.7486103058e+01
    1.3429739380e+02    3.7559497833e+01
    1.3439883423e+02    3.7633903503e+01
    1.3449829102e+02    3.7706897736e+01
    1.3459724426e+02    3.7779502869e+01
    1.3469793701e+02    3.7853202820e+01
    1.3479895020e+02    3.7927001953e+01
    1.3489804077e+02    3.7999202728e+01
    1.3499896240e+02    3.8072498322e+01
    1.3509747314e+02    3.8143901825e+01
    1.3519767761e+02    3.8216400146e+01
    1.3529783630e+02    3.8288700104e+01
    1.3539797974e+02    3.8360797882e+01
    1.3549812317e+02    3.8432704926e+01
    1.3559829712e+02    3.8504402161e+01
    1.3569813538e+02    3.8575698853e+01
    1.3579899597e+02    3.8647499084e+01
    1.3589840698e+02    3.8718101501e+01
    1.3599873352e+02    3.8789096832e+01
    1.3609773254e+02    3.8858898163e+01
    1.3619859314e+02    3.8929801941e+01
    1.3629760742e+02    3.8999198914e+01
    1.3639851379e+02    3.9069702148e+01
    1.3649754333e+02    3.9138603210e+01
    1.3659800720e+02    3.9208305359e+01
    1.3669827271e+02    3.9277500153e+01
    1.3679852295e+02    3.9346595764e+01
    1.3689869690e+02    3.9415203094e+01
    1.3699880981e+02    3.9483600616e+01
    1.3709881592e+02    3.9551601410e+01
    1.3719758606e+02    3.9618598938e+01
    1.3729801941e+02    3.9686298370e+01
    1.3739801025e+02    3.9753501892e+01
    1.3749792480e+02    3.9820301056e+01
    1.3759912109e+02    3.9887702942e+01
    1.3769761658e+02    3.9952899933e+01
    1.3779887390e+02    4.0019496918e+01
    1.3789840698e+02    4.0084598541e+01
    1.3799853516e+02    4.0149696350e+01
    1.3809828186e+02    4.0214099884e+01
    1.3819859314e+02    4.0278396606e+01
    1.3829838562e+02    4.0341999054e+01
    1.3839779663e+02    4.0404800415e+01
    1.3849752808e+02    4.0467399597e+01
    1.3859921265e+02    4.0530799866e+01
    1.3869911194e+02    4.0592597961e+01
    1.3879913330e+02    4.0653999329e+01
    1.3889854431e+02    4.0714702606e+01
    1.3899821472e+02    4.0775199890e+01
    1.3909834290e+02    4.0835395813e+01
    1.3919839478e+02    4.0895198822e+01
    1.3929879761e+02    4.0954898834e+01
    1.3939909363e+02    4.1014095306e+01
    1.3949763489e+02    4.1071903229e+01
    1.3959808350e+02    4.1130294800e+01
    1.3969857788e+02    4.1188495636e+01
    1.3979913330e+02    4.1246299744e+01
    1.3989787292e+02    4.1302799225e+01
    1.3999853516e+02    4.1360000610e+01
    1.4009861755e+02    4.1441295624e+01
    1.4019877625e+02    4.1522598267e+01
    1.4029896545e+02    4.1603694916e+01
    1.4039918518e+02    4.1684497833e+01
    1.4049832153e+02    4.1764396667e+01
    1.4059921265e+02    4.1845302582e+01
    1.4069888306e+02    4.1925003052e+01
    1.4079922485e+02    4.2005100250e+01
    1.4089775085e+02    4.2083301544e+01
    1.4099778748e+02    4.2162696838e+01
    1.4109849548e+02    4.2242298126e+01
    1.4119914246e+02    4.2321697235e+01
    1.4129789734e+02    4.2399204254e+01
    1.4139903259e+02    4.2478397369e+01
    1.4149909973e+02    4.2556499481e+01
    1.4159773254e+02    4.2632999420e+01
    1.4169917297e+02    4.2711601257e+01
    1.4179899597e+02    4.2788700104e+01
    1.4189880371e+02    4.2865497589e+01
    1.4199864197e+02    4.2942096710e+01
    1.4209851074e+02    4.3018402100e+01
    1.4219812012e+02    4.3094402313e+01
    1.4229815674e+02    4.3170497894e+01
    1.4239828491e+02    4.3246498108e+01
    1.4249856567e+02    4.3322296143e+01
    1.4259762573e+02    4.3397098541e+01
    1.4269860840e+02    4.3473201752e+01
    1.4279852295e+02    4.3548397064e+01
    1.4289889526e+02    4.3623603821e+01
    1.4299926758e+02    4.3698799133e+01
    1.4309835815e+02    4.3772800446e+01
    1.4319772339e+02    4.3846900940e+01
    1.4329808044e+02    4.3921695709e+01
    1.4339888000e+02    4.3996700287e+01
    1.4349797058e+02    4.4070503235e+01
    1.4359884644e+02    4.4145401001e+01
    1.4369793701e+02    4.4219001770e+01
    1.4379882812e+02    4.4293796539e+01
    1.4389926147e+02    4.4368301392e+01
    1.4399810791e+02    4.4441501617e+01
    1.4409898376e+02    4.4516197205e+01
    1.4419931030e+02    4.4590503693e+01
    1.4429876709e+02    4.4664096832e+01
    1.4439811707e+02    4.4737297058e+01
    1.4449926758e+02    4.4811904907e+01
    1.4459864807e+02    4.4885002136e+01
    1.4469822693e+02    4.4958003998e+01
    1.4479902649e+02    4.5031898499e+01
    1.4489924622e+02    4.5104999542e+01
    1.4499938965e+02    4.5177799225e+01
    1.4509942627e+02    4.5250404358e+01
    1.4519940186e+02    4.5322696686e+01
    1.4529933167e+02    4.5394702911e+01
    1.4539923096e+02    4.5466499329e+01
    1.4549914551e+02    4.5538002014e+01
    1.4559930420e+02    4.5609603882e+01
    1.4569804382e+02    4.5679801941e+01
    1.4579873657e+02    4.5751102448e+01
    1.4589961243e+02    4.5822299957e+01
    1.4599937439e+02    4.5892498016e+01
    1.4609823608e+02    4.5961795807e+01
    1.4619866943e+02    4.6031898499e+01
    1.4629942322e+02    4.6101898193e+01
    1.4639831543e+02    4.6170303345e+01
    1.4649908447e+02    4.6239700317e+01
    1.4659799194e+02    4.6307598114e+01
    1.4669879150e+02    4.6376396179e+01
    1.4679888916e+02    4.6444496155e+01
    1.4689892578e+02    4.6512100220e+01
    1.4699888611e+02    4.6579395294e+01
    1.4709938049e+02    4.6646797180e+01
    1.4719799805e+02    4.6712600708e+01
    1.4729849243e+02    4.6779102325e+01
    1.4739833069e+02    4.6845001221e+01
    1.4749807739e+02    4.6910499573e+01
    1.4759974670e+02    4.6976799011e+01
    1.4769804382e+02    4.7040496826e+01
    1.4779809570e+02    4.7104801178e+01
    1.4789846802e+02    4.7168895721e+01
    1.4799937439e+02    4.7233001709e+01
    1.4809841919e+02    4.7295303345e+01
    1.4819914246e+02    4.7358203888e+01
    1.4829933167e+02    4.7420104980e+01
    1.4839822388e+02    4.7480899811e+01
    1.4849896240e+02    4.7542098999e+01
    1.4859852600e+02    4.7602199554e+01
    1.4869816589e+02    4.7661899567e+01
    1.4879815674e+02    4.7721401215e+01
    1.4889909363e+02    4.7780204773e+01
    1.4899835205e+02    4.7838695526e+01
    1.4909945679e+02    4.7897296906e+01
    1.4919885254e+02    4.7953601837e+01
    1.4929849243e+02    4.8010303497e+01
    1.4939863586e+02    4.8067703247e+01
    1.4949887085e+02    4.8123596191e+01
    1.4959916687e+02    4.8178997040e+01
    1.4969812012e+02    4.8233798981e+01
    1.4979849243e+02    4.8289302826e+01
    1.4989892578e+02    4.8343303680e+01
    1.4999938965e+02    4.8397903442e+01
    1.5009829712e+02    4.8474300385e+01
    1.5019825745e+02    4.8551895142e+01
    1.5029826355e+02    4.8629199982e+01
    1.5039828491e+02    4.8705104828e+01
    1.5049995422e+02    4.8783397675e+01
    1.5059878540e+02    4.8858501434e+01
    1.5069909668e+02    4.8935195923e+01
    1.5079925537e+02    4.9010799408e+01
    1.5089932251e+02    4.9086296082e+01
    1.5099818420e+02    4.9160202026e+01
    1.5109866333e+02    4.9235496521e+01
    1.5119909668e+02    4.9309700012e+01
    1.5129951477e+02    4.9384601593e+01
    1.5139901733e+02    4.9458400726e+01
    1.5149876404e+02    4.9531604767e+01
    1.5159959412e+02    4.9605998993e+01
    1.5169984436e+02    4.9679000854e+01
    1.5179989624e+02    4.9751895905e+01
    1.5189952087e+02    4.9824100494e+01
    1.5199917603e+02    4.9896099091e+01
    1.5209884644e+02    4.9967800140e+01
    1.5219923401e+02    5.0039196014e+01
    1.5229946899e+02    5.0111701965e+01
    1.5239949036e+02    5.0182197571e+01
    1.5249957275e+02    5.0253501892e+01
    1.5259854126e+02    5.0324195862e+01
    1.5269943237e+02    5.0395999908e+01
    1.5279969788e+02    5.0466503143e+01
    1.5289997864e+02    5.0536800385e+01
    1.5299851990e+02    5.0606494904e+01
    1.5309872437e+02    5.0676601410e+01
    1.5319984436e+02    5.0747303009e+01
    1.5329920959e+02    5.0817398071e+01
    1.5339912415e+02    5.0886600494e+01
    1.5349986267e+02    5.0957595825e+01
    1.5359881592e+02    5.1026100159e+01
    1.5369955444e+02    5.1096897125e+01
    1.5379852295e+02    5.1165302277e+01
    1.5389857483e+02    5.1234996796e+01
    1.5399871826e+02    5.1304500580e+01
    1.5409942627e+02    5.1374095917e+01
    1.5420002747e+02    5.1443798065e+01
    1.5429870605e+02    5.1512195587e+01
    1.5439967346e+02    5.1582099915e+01
    1.5449868774e+02    5.1650802612e+01
    1.5459942627e+02    5.1719699860e+01
    1.5470001221e+02    5.1788700104e+01
    1.5479862976e+02    5.1856300354e+01
    1.5490007019e+02    5.1925601959e+01
    1.5499981689e+02    5.1993095398e+01
    1.5509953308e+02    5.2060501099e+01
    1.5519917297e+02    5.2127597809e+01
    1.5529881287e+02    5.2194602966e+01
    1.5540017700e+02    5.2262603760e+01
    1.5549978638e+02    5.2328998566e+01
    1.5559854126e+02    5.2394397736e+01
    1.5569886780e+02    5.2461101532e+01
    1.5579928589e+02    5.2526401520e+01
    1.5589926147e+02    5.2592098236e+01
    1.5600015259e+02    5.2658100128e+01
    1.5609878540e+02    5.2721199036e+01
    1.5619888306e+02    5.2785701752e+01
    1.5629942322e+02    5.2850296021e+01
    1.5639901733e+02    5.2913902283e+01
    1.5649957275e+02    5.2977695465e+01
    1.5660012817e+02    5.3041198730e+01
    1.5669960022e+02    5.3103996277e+01
    1.5679946899e+02    5.3165802002e+01
    1.5689927673e+02    5.3228401184e+01
    1.5699975586e+02    5.3289596558e+01
    1.5710000610e+02    5.3351699829e+01
    1.5720022583e+02    5.3412399292e+01
    1.5729936218e+02    5.3472503662e+01
    1.5739894104e+02    5.3532501221e+01
    1.5750016785e+02    5.3592498779e+01
    1.5759985352e+02    5.3651397705e+01
    1.5769972229e+02    5.3710601807e+01
    1.5779946899e+02    5.3768493652e+01
    1.5789932251e+02    5.3825698853e+01
    1.5799990845e+02    5.3884201050e+01
    1.5810038757e+02    5.3940399170e+01
    1.5819903564e+02    5.3995895386e+01
    1.5829937744e+02    5.4052200317e+01
    1.5839970398e+02    5.4106903076e+01
    1.5849948120e+02    5.4161003113e+01
    1.5859875488e+02    5.4215301514e+01
    1.5869999695e+02    5.4268898010e+01
    1.5879963684e+02    5.4321502686e+01
    1.5890040588e+02    5.4373794556e+01
    1.5899949646e+02    5.4425300598e+01
    1.5910040283e+02    5.4477294922e+01
    1.5919964600e+02    5.4527503967e+01
    1.5930041504e+02    5.4578704834e+01
    1.5940042114e+02    5.4627700806e+01
    1.5950050354e+02    5.4677200317e+01
    1.5959878540e+02    5.4725097656e+01
    1.5969964600e+02    5.4774406433e+01
    1.5979895020e+02    5.4821800232e+01
    1.5989915466e+02    5.4870399475e+01
    1.5999942017e+02    5.4917396545e+01
    1.6009928894e+02    5.4985801697e+01
    1.6019903564e+02    5.5054000854e+01
    1.6030056763e+02    5.5122802734e+01
    1.6040034485e+02    5.5191398621e+01
    1.6050015259e+02    5.5258499146e+01
    1.6059918213e+02    5.5324798584e+01
    1.6069966125e+02    5.5392204285e+01
    1.6079919434e+02    5.5458999634e+01
    1.6089901733e+02    5.5525001526e+01
    1.6100047302e+02    5.5591995239e+01
    1.6110044861e+02    5.5658203125e+01
    1.6120060730e+02    5.5723899841e+01
    1.6129887390e+02    5.5787498474e+01
    1.6139964294e+02    5.5853500366e+01
    1.6149909973e+02    5.5917503357e+01
    1.6159985352e+02    5.5983001709e+01
    1.6169979858e+02    5.6046600342e+01
    1.6180056763e+02    5.6111503601e+01
    1.6189993286e+02    5.6174598694e+01
    1.6199935913e+02    5.6237403870e+01
    1.6209970093e+02    5.6301300049e+01
    1.6219989014e+02    5.6364295959e+01
    1.6230046082e+02    5.6427490234e+01
    1.6240029907e+02    5.6489692688e+01
    1.6250030518e+02    5.6552497864e+01
    1.6259913635e+02    5.6614097595e+01
    1.6269990540e+02    5.6676300049e+01
    1.6279925537e+02    5.6737808228e+01
    1.6289939880e+02    5.6799797058e+01
    1.6299954224e+02    5.6861602783e+01
    1.6309906006e+02    5.6923500061e+01
    1.6319999695e+02    5.6985694885e+01
    1.6329914856e+02    5.7045997620e+01
    1.6340025330e+02    5.7108810425e+01
    1.6349900818e+02    5.7168701172e+01
    1.6359950256e+02    5.7230499268e+01
    1.6370002747e+02    5.7292098999e+01
    1.6380053711e+02    5.7353698730e+01
    1.6389897156e+02    5.7414001465e+01
    1.6400007629e+02    5.7475494385e+01
    1.6410052490e+02    5.7536994934e+01
    1.6419906616e+02    5.7596801758e+01
    1.6430018616e+02    5.7658996582e+01
    1.6440080261e+02    5.7719894409e+01
    1.6449943542e+02    5.7779205322e+01
    1.6459977722e+02    5.7840408325e+01
    1.6469995117e+02    5.7900596619e+01
    1.6480000305e+02    5.7960800171e+01
    1.6490023804e+02    5.8020492554e+01
    1.6499957275e+02    5.8079498291e+01
    1.6510061646e+02    5.8139205933e+01
    1.6519987488e+02    5.8197799683e+01
    1.6529913330e+02    5.8256103516e+01
    1.6540014648e+02    5.8314895630e+01
    1.6549943542e+02    5.8372604370e+01
    1.6560046387e+02    5.8430793762e+01
    1.6570045471e+02    5.8488601685e+01
    1.6580056763e+02    5.8545791626e+01
    1.6590055847e+02    5.8601890564e+01
    1.6600018311e+02    5.8658294678e+01
    1.6609979248e+02    5.8714408875e+01
    1.6619947815e+02    5.8770103455e+01
    1.6629971313e+02    5.8825294495e+01
    1.6640066528e+02    5.8881004333e+01
    1.6649949646e+02    5.8935104370e+01
    1.6659971619e+02    5.8989196777e+01
    1.6669927979e+02    5.9043197632e+01
    1.6680053711e+02    5.9096702576e+01
    1.6689997864e+02    5.9150199890e+01
    1.6700096130e+02    5.9203308105e+01
    1.6710086060e+02    5.9255104065e+01
    1.6720069885e+02    5.9306503296e+01
    1.6729995728e+02    5.9357597351e+01
    1.6740086365e+02    5.9409202576e+01
    1.6749993896e+02    5.9459693909e+01
    1.6759956360e+02    5.9508804321e+01
    1.6770085144e+02    5.9559097290e+01
    1.6780020142e+02    5.9607704163e+01
    1.6790029907e+02    5.9656295776e+01
    1.6800050354e+02    5.9704208374e+01
    1.6810055542e+02    5.9751800537e+01
    1.6820056152e+02    5.9798904419e+01
    1.6830052185e+02    5.9844505310e+01
    1.6840049744e+02    5.9890594482e+01
    1.6850025940e+02    5.9935493469e+01
    1.6860107422e+02    5.9980697632e+01
    1.6870018005e+02    6.0023796082e+01
    1.6879945374e+02    6.0066909790e+01
    1.6890010071e+02    6.0110900879e+01
    1.6900076294e+02    6.0153297424e+01
    1.6909976196e+02    6.0194396973e+01
    1.6920056152e+02    6.0236602783e+01
    1.6930029297e+02    6.0277305603e+01
    1.6940011597e+02    6.0317504883e+01
    1.6950004578e+02    6.0357002258e+01
    1.6960002136e+02    6.0396903992e+01
    1.6970097351e+02    6.0436500549e+01
    1.6980061340e+02    6.0475395203e+01
    1.6990060425e+02    6.0514205933e+01
    1.7000045776e+02    6.0551902771e+01
    1.7009994507e+02    6.0610008240e+01
    1.7019947815e+02    6.0666702271e+01
    1.7030076599e+02    6.0725593567e+01
    1.7040032959e+02    6.0782699585e+01
    1.7049989319e+02    6.0839508057e+01
    1.7059947205e+02    6.0895996094e+01
    1.7069978333e+02    6.0951904297e+01
    1.7079995728e+02    6.1008705139e+01
    1.7090005493e+02    6.1064498901e+01
    1.7099966431e+02    6.1120109558e+01
    1.7110067749e+02    6.1176589966e+01
    1.7119995117e+02    6.1231407166e+01
    1.7129974365e+02    6.1285995483e+01
    1.7140124512e+02    6.1341804504e+01
    1.7150038147e+02    6.1396301270e+01
    1.7159974670e+02    6.1449996948e+01
    1.7170123291e+02    6.1505302429e+01
    1.7180087280e+02    6.1559104919e+01
    1.7190095520e+02    6.1613792419e+01
    1.7200013733e+02    6.1667205811e+01
    1.7210115051e+02    6.1720603943e+01
    1.7220080566e+02    6.1773704529e+01
    1.7230050659e+02    6.1827598572e+01
    1.7240040588e+02    6.1879905701e+01
    1.7250071716e+02    6.1933303833e+01
    1.7260116577e+02    6.1986297607e+01
    1.7269982910e+02    6.2038902283e+01
    1.7279960632e+02    6.2091102600e+01
    1.7290127563e+02    6.2145401001e+01
    1.7300115967e+02    6.2197189331e+01
    1.7310110474e+02    6.2249900818e+01
    1.7319952393e+02    6.2301704407e+01
    1.7330021667e+02    6.2354797363e+01
    1.7340095520e+02    6.2407707214e+01
    1.7350119019e+02    6.2460594177e+01
    1.7360131836e+02    6.2512802124e+01
    1.7369970703e+02    6.2564399719e+01
    1.7379986572e+02    6.2616394043e+01
    1.7390002441e+02    6.2669403076e+01
    1.7399998474e+02    6.2721694946e+01
    1.7409965515e+02    6.2773498535e+01
    1.7420127869e+02    6.2826293945e+01
    1.7429974365e+02    6.2877502441e+01
    1.7439985657e+02    6.2929100037e+01
    1.7449986267e+02    6.2980895996e+01
    1.7459970093e+02    6.3032791138e+01
    1.7470120239e+02    6.3085098267e+01
    1.7480075073e+02    6.3136207581e+01
    1.7489990234e+02    6.3186904907e+01
    1.7500047302e+02    6.3237503052e+01
    1.7510101318e+02    6.3288696289e+01
    1.7519984436e+02    6.3338302612e+01
    1.7530043030e+02    6.3387809753e+01
    1.7540037537e+02    6.3437400818e+01
    1.7550103760e+02    6.3487197876e+01
    1.7560104370e+02    6.3535903931e+01
    1.7570066833e+02    6.3584197998e+01
    1.7580038452e+02    6.3631797791e+01
    1.7590130615e+02    6.3679595947e+01
    1.7600056458e+02    6.3727600098e+01
    1.7609980774e+02    6.3774192810e+01
    1.7620022583e+02    6.3820999146e+01
    1.7630006409e+02    6.3865997314e+01
    1.7640046692e+02    6.3912002563e+01
    1.7650146484e+02    6.3959007263e+01
    1.7660067749e+02    6.4004005432e+01
    1.7670153809e+02    6.4047996521e+01
    1.7680061340e+02    6.4091995239e+01
    1.7690138245e+02    6.4137001038e+01
    1.7700041199e+02    6.4178993225e+01
    1.7709988403e+02    6.4222000122e+01
    1.7720109558e+02    6.4264999390e+01
    1.7730038452e+02    6.4305992126e+01
    1.7739999390e+02    6.4347000122e+01
    1.7750027466e+02    6.4388999939e+01
    1.7760046387e+02    6.4430000305e+01
    1.7770028687e+02    6.4468994141e+01
    1.7780094910e+02    6.4509002686e+01
    1.7790057373e+02    6.4548004150e+01
    1.7800030518e+02    6.4585990906e+01
    1.7810163879e+02    6.4625000000e+01
    1.7820162964e+02    6.4662002563e+01
    1.7830009460e+02    6.4698997498e+01
    1.7840043640e+02    6.4735000610e+01
    1.7850085449e+02    6.4771003723e+01
    1.7860139465e+02    6.4806007385e+01
    1.7870027161e+02    6.4839996338e+01
    1.7880114746e+02    6.4874992371e+01
    1.7890049744e+02    6.4907989502e+01
    1.7900099182e+02    6.4940994263e+01
    1.7910156250e+02    6.4974006653e+01
    1.7920046997e+02    6.5005996704e+01
    1.7930047607e+02    6.5038002014e+01
    1.7940008545e+02    6.5068992615e+01
    1.7950166321e+02    6.5101005554e+01
    1.7960142517e+02    6.5131996155e+01
    1.7970120239e+02    6.5162002563e+01
    1.7980097961e+02    6.5192008972e+01
    1.7990074158e+02    6.5222000122e+01
    1.8000025940e+02    6.5252006531e+01
    1.8010125732e+02    6.5299003601e+01
    1.8020056152e+02    6.5345001221e+01
    1.8030163574e+02    6.5392005920e+01
    1.8040095520e+02    6.5437004089e+01
    1.8050030518e+02    6.5483001709e+01
    1.8060136414e+02    6.5529006958e+01
    1.8070065308e+02    6.5575004578e+01
    1.8080049133e+02    6.5620002747e+01
    1.8090025330e+02    6.5665992737e+01
    1.8100134277e+02    6.5710990906e+01
    1.8110032654e+02    6.5756004333e+01
    1.8120129395e+02    6.5802001953e+01
    1.8130076599e+02    6.5846008301e+01
    1.8140022278e+02    6.5890991211e+01
    1.8150044250e+02    6.5935997009e+01
    1.8160144043e+02    6.5980995178e+01
    1.8170085144e+02    6.6024993896e+01
    1.8180026245e+02    6.6069000244e+01
    1.8190159607e+02    6.6114006042e+01
    1.8200042725e+02    6.6157989502e+01
    1.8210125732e+02    6.6202995300e+01
    1.8220042419e+02    6.6246002197e+01
    1.8230140686e+02    6.6290000916e+01
    1.8240168762e+02    6.6334007263e+01
    1.8250169373e+02    6.6379005432e+01
    1.8260180664e+02    6.6423004150e+01
    1.8270013428e+02    6.6464996338e+01
    1.8280165100e+02    6.6509994507e+01
    1.8290122986e+02    6.6553993225e+01
    1.8300079346e+02    6.6598007202e+01
    1.8310035706e+02    6.6641006470e+01
    1.8320144653e+02    6.6685005188e+01
    1.8330163574e+02    6.6729003906e+01
    1.8340187073e+02    6.6772994995e+01
    1.8350024414e+02    6.6816001892e+01
    1.8360084534e+02    6.6860000610e+01
    1.8370045471e+02    6.6904006958e+01
    1.8380180359e+02    6.6948997498e+01
    1.8390139771e+02    6.6991996765e+01
    1.8400177002e+02    6.7035995483e+01
    1.8410136414e+02    6.7078994751e+01
    1.8420060730e+02    6.7122009277e+01
    1.8430139160e+02    6.7166007996e+01
    1.8440098572e+02    6.7209007263e+01
    1.8450032043e+02    6.7251991272e+01
    1.8460136414e+02    6.7294990540e+01
    1.8470042419e+02    6.7338005066e+01
    1.8480119324e+02    6.7381004333e+01
    1.8490170288e+02    6.7422996521e+01
    1.8500169373e+02    6.7465003967e+01
    1.8510174561e+02    6.7507003784e+01
    1.8520181274e+02    6.7547004700e+01
    1.8530197144e+02    6.7588005066e+01
    1.8540046692e+02    6.7627998352e+01
    1.8550074768e+02    6.7669006348e+01
    1.8560037231e+02    6.7707992554e+01
    1.8570144653e+02    6.7746994019e+01
    1.8580078125e+02    6.7785995483e+01
    1.8590202332e+02    6.7825004578e+01
    1.8600151062e+02    6.7863006592e+01
    1.8610208130e+02    6.7900993347e+01
    1.8620091248e+02    6.7938003540e+01
    1.8630067444e+02    6.7974990845e+01
    1.8640193176e+02    6.8012001038e+01
    1.8650190735e+02    6.8046997070e+01
    1.8660069275e+02    6.8082000732e+01
    1.8670115662e+02    6.8118003845e+01
    1.8680154419e+02    6.8152999878e+01
    1.8690187073e+02    6.8186996460e+01
    1.8700091553e+02    6.8219993591e+01
    1.8710177612e+02    6.8253997803e+01
    1.8720072937e+02    6.8285995483e+01
    1.8730137634e+02    6.8318008423e+01
    1.8740162659e+02    6.8350997925e+01
    1.8750138855e+02    6.8381004333e+01
    1.8760107422e+02    6.8412994385e+01
    1.8770191956e+02    6.8443992615e+01
    1.8780213928e+02    6.8473999023e+01
    1.8790101624e+02    6.8501998901e+01
    1.8800210571e+02    6.8532005310e+01
    1.8810139465e+02    6.8559997559e+01
    1.8820152283e+02    6.8588005066e+01
    1.8830158997e+02    6.8614990234e+01
    1.8840174866e+02    6.8641998291e+01
    1.8850202942e+02    6.8669998169e+01
    1.8860061646e+02    6.8695007324e+01
    1.8870117188e+02    6.8720993042e+01
    1.8880192566e+02    6.8745986938e+01
    1.8890098572e+02    6.8769989014e+01
    1.8900144958e+02    6.8794998169e+01
    1.8910189819e+02    6.8819000244e+01
    1.8920065308e+02    6.8843002319e+01
    1.8930183411e+02    6.8867004395e+01
    1.8940127563e+02    6.8889007568e+01
    1.8950077820e+02    6.8912994385e+01
    1.8960217285e+02    6.8936004639e+01
    1.8970173645e+02    6.8958007812e+01
    1.8980128479e+02    6.8980010986e+01
    1.8990081787e+02    6.9001998901e+01
    1.9000222778e+02    6.9024993896e+01
    1.9010121155e+02    6.9060989380e+01
    1.9020132446e+02    6.9098999023e+01
    1.9030212402e+02    6.9135009766e+01
    1.9040119934e+02    6.9171997070e+01
    1.9050201416e+02    6.9208007812e+01
    1.9060107422e+02    6.9244995117e+01
    1.9070179749e+02    6.9281005859e+01
    1.9080131531e+02    6.9317001343e+01
    1.9090075684e+02    6.9352996826e+01
    1.9100195312e+02    6.9390991211e+01
    1.9110087585e+02    6.9427001953e+01
    1.9120201111e+02    6.9462997437e+01
    1.9130122375e+02    6.9500000000e+01
    1.9140228271e+02    6.9536010742e+01
    1.9150099182e+02    6.9572006226e+01
    1.9160234070e+02    6.9609008789e+01
    1.9170156860e+02    6.9645004272e+01
    1.9180082703e+02    6.9681991577e+01
    1.9190197754e+02    6.9718994141e+01
    1.9200137329e+02    6.9754989624e+01
    1.9210078430e+02    6.9791992188e+01
    1.9220150757e+02    6.9828002930e+01
    1.9230224609e+02    6.9864990234e+01
    1.9240168762e+02    6.9901992798e+01
    1.9250134277e+02    6.9938003540e+01
    1.9260107422e+02    6.9973999023e+01
    1.9270085144e+02    7.0010009766e+01
    1.9280160522e+02    7.0048004150e+01
    1.9290248108e+02    7.0083999634e+01
    1.9300160217e+02    7.0120010376e+01
    1.9310244751e+02    7.0158004761e+01
    1.9320152283e+02    7.0193008423e+01
    1.9330120850e+02    7.0229003906e+01
    1.9340083313e+02    7.0265991211e+01
    1.9350227356e+02    7.0303009033e+01
    1.9360185242e+02    7.0338989258e+01
    1.9370146179e+02    7.0375991821e+01
    1.9380213928e+02    7.0412002563e+01
    1.9390101624e+02    7.0446990967e+01
    1.9400152588e+02    7.0483001709e+01
    1.9410192871e+02    7.0519012451e+01
    1.9420217896e+02    7.0555007935e+01
    1.9430226135e+02    7.0591003418e+01
    1.9440225220e+02    7.0626007080e+01
[...]
    2.5130453491e+02    7.5665008545e+01
    2.5140461731e+02    7.5641998291e+01
    2.5150466919e+02    7.5618988037e+01
    2.5160473633e+02    7.5595001221e+01
    2.5170486450e+02    7.5571014404e+01
    2.5180505371e+02    7.5546997070e+01
    2.5190525818e+02    7.5520996094e+01
    2.5200488281e+02    7.5497009277e+01
    2.5210456848e+02    7.5471984863e+01
    2.5220599365e+02    7.5445983887e+01
    2.5230575562e+02    7.5419982910e+01
    2.5240556335e+02    7.5394012451e+01
    2.5250544739e+02    7.5369018555e+01
    2.5260491943e+02    7.5342987061e+01
    2.5270553589e+02    7.5317016602e+01
    2.5280612183e+02    7.5289978027e+01
    2.5290603638e+02    7.5263977051e+01
    2.5300527954e+02    7.5238006592e+01
    2.5310557556e+02    7.5212005615e+01
    2.5320582581e+02    7.5185974121e+01
    2.5330604553e+02    7.5158996582e+01
    2.5340449524e+02    7.5134002686e+01
    2.5350483704e+02    7.5108001709e+01
    2.5360528564e+02    7.5082000732e+01
    2.5370582581e+02    7.5057006836e+01
    2.5380462646e+02    7.5030975342e+01
    2.5390539551e+02    7.5005004883e+01
    2.5400549316e+02    7.4980010986e+01
    2.5410453796e+02    7.4955017090e+01
    2.5420501709e+02    7.4928985596e+01
    2.5430531311e+02    7.4902984619e+01
    2.5440557861e+02    7.4877990723e+01
    2.5450579834e+02    7.4852020264e+01
    2.5460580444e+02    7.4826995850e+01
    2.5470477295e+02    7.4802978516e+01
    2.5480552673e+02    7.4777008057e+01
    2.5490625000e+02    7.4750976562e+01
    2.5500515747e+02    7.4725982666e+01
    2.5510589600e+02    7.4701995850e+01
    2.5520585632e+02    7.4675994873e+01
    2.5530604553e+02    7.4651000977e+01
    2.5540628052e+02    7.4626007080e+01
    2.5550482178e+02    7.4601013184e+01
    2.5560508728e+02    7.4575988770e+01
    2.5570535278e+02    7.4552001953e+01
    2.5580560303e+02    7.4526000977e+01
    2.5590580750e+02    7.4502014160e+01
    2.5600595093e+02    7.4476989746e+01
    2.5610491943e+02    7.4453002930e+01
    2.5620568848e+02    7.4427001953e+01
    2.5630639648e+02    7.4402008057e+01
    2.5640518188e+02    7.4378021240e+01
    2.5650570679e+02    7.4354003906e+01
    2.5660617065e+02    7.4328002930e+01
    2.5670474243e+02    7.4304016113e+01
    2.5680508423e+02    7.4278015137e+01
    2.5690628052e+02    7.4253021240e+01
    2.5700588989e+02    7.4226989746e+01
    2.5710546875e+02    7.4201995850e+01
    2.5720501709e+02    7.4175018311e+01
    2.5730502319e+02    7.4149017334e+01
    2.5740597534e+02    7.4122009277e+01
    2.5750619507e+02    7.4095001221e+01
    2.5760641479e+02    7.4067016602e+01
    2.5770480347e+02    7.4040008545e+01
    2.5780502319e+02    7.4011993408e+01
    2.5790524292e+02    7.3983001709e+01
    2.5800497437e+02    7.3954010010e+01
    2.5810614014e+02    7.3924011230e+01
    2.5820553589e+02    7.3894012451e+01
    2.5830490112e+02    7.3864013672e+01
    2.5840502930e+02    7.3833007812e+01
    2.5850512695e+02    7.3800994873e+01
    2.5860565186e+02    7.3768981934e+01
    2.5870520020e+02    7.3736999512e+01
    2.5880648804e+02    7.3703002930e+01
    2.5890609741e+02    7.3670989990e+01
    2.5900576782e+02    7.3636993408e+01
    2.5910607910e+02    7.3601989746e+01
    2.5920639038e+02    7.3567993164e+01
    2.5930554199e+02    7.3533020020e+01
    2.5940512085e+02    7.3498992920e+01
    2.5950634766e+02    7.3463012695e+01
    2.5960574341e+02    7.3427001953e+01
    2.5970495605e+02    7.3390991211e+01
    2.5980484009e+02    7.3354003906e+01
    2.5990649414e+02    7.3316009521e+01
    2.6000628662e+02    7.3279998779e+01
    2.6010604858e+02    7.3242004395e+01
    2.6020584106e+02    7.3204986572e+01
    2.6030569458e+02    7.3166992188e+01
    2.6040557861e+02    7.3128997803e+01
    2.6050598145e+02    7.3091003418e+01
    2.6060537720e+02    7.3052001953e+01
    2.6070657349e+02    7.3011993408e+01
    2.6080551147e+02    7.2973022461e+01
    2.6090588379e+02    7.2932983398e+01
    2.6100634766e+02    7.2893005371e+01
    2.6110510254e+02    7.2853973389e+01
    2.6120571899e+02    7.2812011719e+01
    2.6130633545e+02    7.2770996094e+01
    2.6140515137e+02    7.2730010986e+01
    2.6150573730e+02    7.2688995361e+01
    2.6160629272e+02    7.2647003174e+01
    2.6170501709e+02    7.2607025146e+01
    2.6180566406e+02    7.2563995361e+01
    2.6190567017e+02    7.2522003174e+01
    2.6200570679e+02    7.2480010986e+01
    2.6210574341e+02    7.2438018799e+01
    2.6220581055e+02    7.2397003174e+01
    2.6230587769e+02    7.2355010986e+01
    2.6240600586e+02    7.2313018799e+01
    2.6250616455e+02    7.2270996094e+01
    2.6260632324e+02    7.2229003906e+01
    2.6270526123e+02    7.2187988281e+01
    2.6280612183e+02    7.2145996094e+01
    2.6290509033e+02    7.2105010986e+01
    2.6300585938e+02    7.2062988281e+01
    2.6310653687e+02    7.2021972656e+01
    2.6320538330e+02    7.1981994629e+01
    2.6330627441e+02    7.1940002441e+01
    2.6340625000e+02    7.1899993896e+01
    2.6350634766e+02    7.1860015869e+01
    2.6360534668e+02    7.1820007324e+01
    2.6370623779e+02    7.1778015137e+01
    2.6380627441e+02    7.1738006592e+01
    2.6390661621e+02    7.1697998047e+01
    2.6400524902e+02    7.1658996582e+01
    2.6410562134e+02    7.1618011475e+01
    2.6420599365e+02    7.1576995850e+01
    2.6430639648e+02    7.1537017822e+01
    2.6440676880e+02    7.1496978760e+01
    2.6450540161e+02    7.1458007812e+01
    2.6460571289e+02    7.1416992188e+01
    2.6470593262e+02    7.1377990723e+01
    2.6480529785e+02    7.1337005615e+01
    2.6490603638e+02    7.1296997070e+01
    2.6500671387e+02    7.1256988525e+01
    2.6510687256e+02    7.1216003418e+01
    2.6520681763e+02    7.1175994873e+01
    2.6530679321e+02    7.1136016846e+01
    2.6540676880e+02    7.1095001221e+01
    2.6550677490e+02    7.1055023193e+01
    2.6560678101e+02    7.1014007568e+01
    2.6570678711e+02    7.0973999023e+01
    2.6580679321e+02    7.0933990479e+01
    2.6590609741e+02    7.0893005371e+01
    2.6600677490e+02    7.0852020264e+01
    2.6610559082e+02    7.0811004639e+01
    2.6620623779e+02    7.0769989014e+01
    2.6630685425e+02    7.0727996826e+01
    2.6640554810e+02    7.0686981201e+01
    2.6650604248e+02    7.0645019531e+01
    2.6660641479e+02    7.0602996826e+01
    2.6670672607e+02    7.0559997559e+01
    2.6680630493e+02    7.0518005371e+01
    2.6690579224e+02    7.0474975586e+01
    2.6700692749e+02    7.0432006836e+01
    2.6710635376e+02    7.0388000488e+01
    2.6720574951e+02    7.0343994141e+01
    2.6730618286e+02    7.0298980713e+01
    2.6740628052e+02    7.0253997803e+01
    2.6750637817e+02    7.0208007812e+01
    2.6760653687e+02    7.0162017822e+01
    2.6770669556e+02    7.0115997314e+01
    2.6780688477e+02    7.0069000244e+01
    2.6790707397e+02    7.0020996094e+01
    2.6800653076e+02    6.9973999023e+01
    2.6810601807e+02    6.9924987793e+01
    2.6820550537e+02    6.9877014160e+01
    2.6830664062e+02    6.9826995850e+01
    2.6840603638e+02    6.9777008057e+01
    2.6850714111e+02    6.9726013184e+01
    2.6860656738e+02    6.9675994873e+01
    2.6870605469e+02    6.9625976562e+01
    2.6880673218e+02    6.9574005127e+01
    2.6890701294e+02    6.9522003174e+01
    2.6900552368e+02    6.9470977783e+01
    2.6910589600e+02    6.9417999268e+01
    2.6920632935e+02    6.9365020752e+01
    2.6930676270e+02    6.9312011719e+01
    2.6940600586e+02    6.9258972168e+01
    2.6950564575e+02    6.9205993652e+01
    2.6960693359e+02    6.9151977539e+01
    2.6970574951e+02    6.9097991943e+01
    2.6980587769e+02    6.9044006348e+01
    2.6990600586e+02    6.8989013672e+01
    2.7000613403e+02    6.8934997559e+01
    2.7010629272e+02    6.8878021240e+01
    2.7020645142e+02    6.8821014404e+01
    2.7030670166e+02    6.8764007568e+01
    2.7040707397e+02    6.8707000732e+01
    2.7050616455e+02    6.8649993896e+01
    2.7060604858e+02    6.8592010498e+01
    2.7070608521e+02    6.8533996582e+01
    2.7080615234e+02    6.8475982666e+01
    2.7090606689e+02    6.8419006348e+01
    2.7100701904e+02    6.8359985352e+01
    2.7110614014e+02    6.8303009033e+01
    2.7120684814e+02    6.8244018555e+01
    2.7130718994e+02    6.8184997559e+01
    2.7140576172e+02    6.8127990723e+01
    2.7150604248e+02    6.8069000244e+01
    2.7160601807e+02    6.8010986328e+01
    2.7170697021e+02    6.7953002930e+01
    2.7180609131e+02    6.7895019531e+01
    2.7190722656e+02    6.7835998535e+01
    2.7200582886e+02    6.7778991699e+01
    2.7210617065e+02    6.7720977783e+01
    2.7220654297e+02    6.7662994385e+01
    2.7230691528e+02    6.7604980469e+01
    2.7240734863e+02    6.7548004150e+01
    2.7250607300e+02    6.7490997314e+01
    2.7260650635e+02    6.7434997559e+01
    2.7270654297e+02    6.7377990723e+01
    2.7280587769e+02    6.7320983887e+01
    2.7290704346e+02    6.7263977051e+01
    2.7300637817e+02    6.7208007812e+01
    2.7310574341e+02    6.7152008057e+01
    2.7320712280e+02    6.7096008301e+01
    2.7330581665e+02    6.7040985107e+01
    2.7340621948e+02    6.6984985352e+01
    2.7350662231e+02    6.6928985596e+01
    2.7360577393e+02    6.6872985840e+01
    2.7370690918e+02    6.6816986084e+01
    2.7380621338e+02    6.6760986328e+01
    2.7390698242e+02    6.6705993652e+01
    2.7400738525e+02    6.6649993896e+01
    2.7410604858e+02    6.6595001221e+01
    2.7420706177e+02    6.6539001465e+01
    2.7430737305e+02    6.6483001709e+01
    2.7440600586e+02    6.6427001953e+01
    2.7450631714e+02    6.6371002197e+01
    2.7460659790e+02    6.6315002441e+01
    2.7470675659e+02    6.6259002686e+01
    2.7480682373e+02    6.6201995850e+01
    2.7490676880e+02    6.6145996094e+01
    2.7500711060e+02    6.6089996338e+01
    2.7510574341e+02    6.6033020020e+01
    2.7520620728e+02    6.5976989746e+01
    2.7530667114e+02    6.5918975830e+01
    2.7540640259e+02    6.5861999512e+01
    2.7550604248e+02    6.5804992676e+01
    2.7560595703e+02    6.5747985840e+01
    2.7570596313e+02    6.5691009521e+01
    2.7580593872e+02    6.5631988525e+01
    2.7590698242e+02    6.5573974609e+01
    2.7600585938e+02    6.5516021729e+01
    2.7610653687e+02    6.5457000732e+01
    2.7620718384e+02    6.5398010254e+01
    2.7630593872e+02    6.5339996338e+01
    2.7640689087e+02    6.5279998779e+01
    2.7650665283e+02    6.5221008301e+01
    2.7660629272e+02    6.5161010742e+01
    2.7670739746e+02    6.5100006104e+01
    2.7680761719e+02    6.5039001465e+01
    2.7690759277e+02    6.4977996826e+01
    2.7700701904e+02    6.4916992188e+01
    2.7710647583e+02    6.4855010986e+01
    2.7720660400e+02    6.4791992188e+01
    2.7730676270e+02    6.4730010986e+01
    2.7740695190e+02    6.4666015625e+01
    2.7750717163e+02    6.4601989746e+01
    2.7760742188e+02    6.4537994385e+01
    2.7770767212e+02    6.4472991943e+01
    2.7780645752e+02    6.4408996582e+01
    2.7790612793e+02    6.4343994141e+01
    2.7800744629e+02    6.4277008057e+01
    2.7810702515e+02    6.4210998535e+01
    2.7820663452e+02    6.4144989014e+01
    2.7830621338e+02    6.4078002930e+01
    2.7840750122e+02    6.4010009766e+01
    2.7850708008e+02    6.3941986084e+01
    2.7860644531e+02    6.3875000000e+01
    2.7870681763e+02    6.3807006836e+01
    2.7880728149e+02    6.3738006592e+01
    2.7890606689e+02    6.3670989990e+01
    2.7900683594e+02    6.3601013184e+01
    2.7910769653e+02    6.3531982422e+01
    2.7920675659e+02    6.3462982178e+01
    2.7930731201e+02    6.3393005371e+01
    2.7940750122e+02    6.3324005127e+01
    2.7950765991e+02    6.3253997803e+01
    2.7960772705e+02    6.3184997559e+01
    2.7970751953e+02    6.3115020752e+01
    2.7980642700e+02    6.3045989990e+01
    2.7990716553e+02    6.2975006104e+01
    2.8000610352e+02    6.2906005859e+01
    2.8010690308e+02    6.2830993652e+01
    2.8020776367e+02    6.2757995605e+01
    2.8030718994e+02    6.2683990479e+01
    2.8040750122e+02    6.2609008789e+01
    2.8050616455e+02    6.2536010742e+01
    2.8060665894e+02    6.2462005615e+01
    2.8070718384e+02    6.2388000488e+01
    2.8080776978e+02    6.2312988281e+01
    2.8090667725e+02    6.2239990234e+01
    2.8100686646e+02    6.2166015625e+01
    2.8110641479e+02    6.2092987061e+01
    2.8120782471e+02    6.2018005371e+01
    2.8130776978e+02    6.1944000244e+01
    2.8140676880e+02    6.1871002197e+01
    2.8150747681e+02    6.1796997070e+01
    2.8160784912e+02    6.1723999023e+01
    2.8170745850e+02    6.1651000977e+01
    2.8180706787e+02    6.1578002930e+01
    2.8190707397e+02    6.1505004883e+01
    2.8200790405e+02    6.1432006836e+01
    2.8210702515e+02    6.1359985352e+01
    2.8220788574e+02    6.1287017822e+01
    2.8230627441e+02    6.1216003418e+01
    2.8240789795e+02    6.1144012451e+01
    2.8250769043e+02    6.1070983887e+01
    2.8260708618e+02    6.1000000000e+01
    2.8270745850e+02    6.0928985596e+01
    2.8280725098e+02    6.0858001709e+01
    2.8290704346e+02    6.0786987305e+01
    2.8300683594e+02    6.0716003418e+01
    2.8310787964e+02    6.0644989014e+01
    2.8320700073e+02    6.0574005127e+01
    2.8330773926e+02    6.0503021240e+01
    2.8340667725e+02    6.0433990479e+01
    2.8350729370e+02    6.0361999512e+01
    2.8360696411e+02    6.0290985107e+01
    2.8370635986e+02    6.0221008301e+01
    2.8380755615e+02    6.0149993896e+01
    2.8390692139e+02    6.0079010010e+01
    2.8400735474e+02    6.0007995605e+01
    2.8410729980e+02    5.9936981201e+01
    2.8420654297e+02    5.9865997314e+01
    2.8430712891e+02    5.9795013428e+01
    2.8440747070e+02    5.9723022461e+01
    2.8450778198e+02    5.9650970459e+01
    2.8460803223e+02    5.9579986572e+01
    2.8470648193e+02    5.9508972168e+01
    2.8480715942e+02    5.9436004639e+01
    2.8490789795e+02    5.9363006592e+01
    2.8500674438e+02    5.9291015625e+01
    2.8510739136e+02    5.9217987061e+01
    2.8520806885e+02    5.9145019531e+01
    2.8530694580e+02    5.9072998047e+01
    2.8540771484e+02    5.8998992920e+01
    2.8550656128e+02    5.8925994873e+01
    2.8560675049e+02    5.8851989746e+01
    2.8570700073e+02    5.8777008057e+01
    2.8580722046e+02    5.8703002930e+01
    2.8590744019e+02    5.8628021240e+01
    2.8600765991e+02    5.8553009033e+01
    2.8610757446e+02    5.8477996826e+01
    2.8620657349e+02    5.8403991699e+01
    2.8630734253e+02    5.8326995850e+01
    2.8640774536e+02    5.8251007080e+01
    2.8650765991e+02    5.8175018311e+01
    2.8660647583e+02    5.8098999023e+01
    2.8670693970e+02    5.8021026611e+01
    2.8680740356e+02    5.7944000244e+01
    2.8690783691e+02    5.7865997314e+01
    2.8700677490e+02    5.7789001465e+01
    2.8710824585e+02    5.7709014893e+01
    2.8720800781e+02    5.7630004883e+01
    2.8730780029e+02    5.7551025391e+01
    2.8740765381e+02    5.7471984863e+01
    2.8750753784e+02    5.7390991211e+01
    2.8760812378e+02    5.7311004639e+01
    2.8770687866e+02    5.7230987549e+01
    2.8780749512e+02    5.7148986816e+01
    2.8790814209e+02    5.7067993164e+01
    2.8800698853e+02    5.6986999512e+01
    2.8810769653e+02    5.6904998779e+01
    2.8820663452e+02    5.6822998047e+01
    2.8830789185e+02    5.6739959717e+01
    2.8840805054e+02    5.6656982422e+01
    2.8850830078e+02    5.6573974609e+01
    2.8860687256e+02    5.6492980957e+01
    2.8870834351e+02    5.6408020020e+01
    2.8880773926e+02    5.6325012207e+01
    2.8890725708e+02    5.6242004395e+01
    2.8900692749e+02    5.6158996582e+01
    2.8910668945e+02    5.6074981689e+01
    2.8920834351e+02    5.5990997314e+01
    2.8930728149e+02    5.5907958984e+01
    2.8940820312e+02    5.5823974609e+01
    2.8950726318e+02    5.5742004395e+01
    2.8960803223e+02    5.5656982422e+01
    2.8970700073e+02    5.5574005127e+01
    2.8980712891e+02    5.5491027832e+01
    2.8990670776e+02    5.5408020020e+01
    2.9000814819e+02    5.5321990967e+01
    2.9010781860e+02    5.5234008789e+01
    2.9020797729e+02    5.5146026611e+01
    2.9030715942e+02    5.5057983398e+01
    2.9040814209e+02    5.4968963623e+01
    2.9050741577e+02    5.4880981445e+01
    2.9060845947e+02    5.4790985107e+01
    2.9070785522e+02    5.4703979492e+01
    2.9080725098e+02    5.4615997314e+01
    2.9090744019e+02    5.4527984619e+01
    2.9100753784e+02    5.4440979004e+01
    2.9110769653e+02    5.4352996826e+01
    2.9120794678e+02    5.4264984131e+01
    2.9130761719e+02    5.4178039551e+01
    2.9140734863e+02    5.4089996338e+01
    2.9150714111e+02    5.4002960205e+01
    2.9160708618e+02    5.3915985107e+01
    2.9170748901e+02    5.3829040527e+01
    2.9180792236e+02    5.3742004395e+01
    2.9190850830e+02    5.3654968262e+01
    2.9200836182e+02    5.3569000244e+01
    2.9210818481e+02    5.3481994629e+01
    2.9220797729e+02    5.3397003174e+01
    2.9230795288e+02    5.3311035156e+01
    2.9240832520e+02    5.3225006104e+01
    2.9250793457e+02    5.3139984131e+01
    2.9260763550e+02    5.3054016113e+01
    2.9270733643e+02    5.2970001221e+01
    2.9280700684e+02    5.2884979248e+01
    2.9290838623e+02    5.2799987793e+01
    2.9300793457e+02    5.2714996338e+01
    2.9310742188e+02    5.2630004883e+01
    2.9320852661e+02    5.2544982910e+01
    2.9330776978e+02    5.2460998535e+01
    2.9340740967e+02    5.2375976562e+01
    2.9350711060e+02    5.2291992188e+01
    2.9360861206e+02    5.2206024170e+01
    2.9370828247e+02    5.2121002197e+01
    2.9380792236e+02    5.2036987305e+01
    2.9390765381e+02    5.1951995850e+01
    2.9400839233e+02    5.1864990234e+01
    2.9410739136e+02    5.1781005859e+01
    2.9420809937e+02    5.1695037842e+01
    2.9430706787e+02    5.1609985352e+01
    2.9440774536e+02    5.1524017334e+01
    2.9450839233e+02    5.1436981201e+01
    2.9460769653e+02    5.1350982666e+01
    2.9470712280e+02    5.1265960693e+01
    2.9480834961e+02    5.1177032471e+01
    2.9490768433e+02    5.1091033936e+01
    2.9500698853e+02    5.1003967285e+01
    2.9510812378e+02    5.0915039062e+01
    2.9520742798e+02    5.0827972412e+01
    2.9530810547e+02    5.0739990234e+01
    2.9540863037e+02    5.0651031494e+01
    2.9550741577e+02    5.0563018799e+01
    2.9560794067e+02    5.0473999023e+01
    2.9570849609e+02    5.0385009766e+01
    2.9580728149e+02    5.0296997070e+01
    2.9590780640e+02    5.0207031250e+01
    2.9600772095e+02    5.0116973877e+01
    2.9610708618e+02    5.0027984619e+01
    2.9620828247e+02    4.9935974121e+01
    2.9630758667e+02    4.9845977783e+01
    2.9640869141e+02    4.9753967285e+01
    2.9650790405e+02    4.9664001465e+01
    2.9660705566e+02    4.9574005127e+01
    2.9670800781e+02    4.9481018066e+01
    2.9680822754e+02    4.9389007568e+01
    2.9690847778e+02    4.9295989990e+01
    2.9700872803e+02    4.9203002930e+01
    2.9710726929e+02    4.9111999512e+01
    2.9720758057e+02    4.9016998291e+01
    2.9730795288e+02    4.8924041748e+01
    2.9740774536e+02    4.8829010010e+01
    2.9750711060e+02    4.8735992432e+01
    2.9760836792e+02    4.8639984131e+01
    2.9770785522e+02    4.8546020508e+01
    2.9780743408e+02    4.8451019287e+01
    2.9790890503e+02    4.8353973389e+01
    2.9800860596e+02    4.8259033203e+01
    2.9810836792e+02    4.8163970947e+01
    2.9820816040e+02    4.8067016602e+01
    2.9830767822e+02    4.7972015381e+01
    2.9840878296e+02    4.7875000000e+01
    2.9850820923e+02    4.7779022217e+01
    2.9860769653e+02    4.7682983398e+01
    2.9870898438e+02    4.7586029053e+01
    2.9880780029e+02    4.7490020752e+01
    2.9890808105e+02    4.7393005371e+01
    2.9900845337e+02    4.7296997070e+01
    2.9910885620e+02    4.7200012207e+01
    2.9920745850e+02    4.7103973389e+01
    2.9930780029e+02    4.7008026123e+01
    2.9940859985e+02    4.6911010742e+01
    2.9950894165e+02    4.6814025879e+01
    2.9960821533e+02    4.6719024658e+01
    2.9970794678e+02    4.6623992920e+01
    2.9980770874e+02    4.6526977539e+01
    2.9990747070e+02    4.6432006836e+01
endcurve
