Curveplot
LS-DYNA keyword deck by LS-PrePost
Abscissa
Ordinate
XY data
CHOP_NASZ_mo-1 #pts=3000
* Minval=    -1.1386199951e+02 at time=       231.7035675049
* Maxval=     3.0089700886e-05 at time=         4.8983483315
    0.0000000000e+00    0.0000000000e+00
    9.9644668400e-02    2.4284502387e-41
    1.9928933680e-01    4.4814201329e-33
    2.9893401265e-01    3.3506901616e-27
    3.9857867360e-01    2.0319100543e-22
    4.9822333455e-01    1.6996200246e-19
    5.9964740276e-01    1.4235799518e-16
    6.9929206371e-01    1.1802399336e-10
    7.9867684841e-01    3.2788701532e-08
    8.9995086193e-01    1.6409700265e-07
    9.9834614992e-01    2.7937801406e-07
    1.0998604298e+00    3.3356400309e-07
    1.1992453337e+00    3.7780000639e-07
    1.2997497320e+00    4.5063998755e-07
    1.3991347551e+00    5.2938599993e-07
    1.4996393919e+00    5.6754498701e-07
    1.5995938778e+00    6.3693897800e-07
    1.6987783909e+00    7.7058200532e-07
    1.7983825207e+00    8.8377197471e-07
    1.8998765945e+00    9.6289397788e-07
    1.9996119738e+00    1.0190100284e-06
    2.0987780094e+00    1.0285499457e-06
    2.1996326447e+00    1.0617100088e-06
    2.2981371880e+00    1.2792299913e-06
    2.3995006084e+00    1.8243799786e-06
    2.4996550083e+00    2.5971899049e-06
    2.5997002125e+00    3.3247999909e-06
    2.6999650002e+00    3.6108999666e-06
    2.7984685898e+00    3.0400899504e-06
    2.8998689651e+00    1.4631300473e-06
    2.9993793964e+00   -8.6276202182e-07
    3.0994019508e+00   -3.5233199469e-06
    3.1982393265e+00   -5.9203998717e-06
    3.2999813557e+00   -7.7985096141e-06
    3.3991782665e+00   -8.9574696176e-06
    3.4996979237e+00   -9.5168497865e-06
    3.5988793373e+00   -9.4699598776e-06
    3.6992003918e+00   -8.6916297732e-06
    3.7988593578e+00   -6.9923298724e-06
    3.8988263607e+00   -4.2503597797e-06
    3.9995431900e+00   -4.6002500653e-07
    4.0988116264e+00    3.9953802116e-06
    4.1985211372e+00    8.8662000053e-06
    4.2982501984e+00    1.3707600374e-05
    4.3988957405e+00    1.8155600628e-05
    4.4992995262e+00    2.2035399525e-05
    4.5995016098e+00    2.5325300157e-05
    4.6982326508e+00    2.7915299142e-05
    4.7999510765e+00    2.9676100894e-05
    4.8983483315e+00    3.0089700886e-05
    4.9988532066e+00    2.8707599995e-05
    5.0994668007e+00    2.5011899197e-05
    5.1990876198e+00    1.8871600332e-05
    5.2992548943e+00    1.0208899766e-05
    5.3985223770e+00   -8.7093798129e-07
    5.4991283417e+00   -1.4750499759e-05
    5.5990543365e+00   -3.1474301068e-05
    5.6985406876e+00   -5.1322298532e-05
    5.7997145653e+00   -7.5132302300e-05
    5.8991079330e+00   -1.0230499902e-04
    5.9981293678e+00   -1.3313899399e-04
    6.0984897614e+00   -1.6815699928e-04
    6.1987595558e+00   -2.0705799398e-04
    6.2991209030e+00   -2.5011200341e-04
    6.3999624252e+00   -2.9770800029e-04
    6.4991149902e+00   -3.4904500353e-04
    6.5982871056e+00   -4.0516100125e-04
    6.6984486580e+00   -4.6678000945e-04
    6.7983894348e+00   -5.3304398898e-04
    6.8987689018e+00   -6.0428702272e-04
    6.9986882210e+00   -6.7988602677e-04
    7.0993790627e+00   -7.6098000864e-04
    7.1986408234e+00   -8.4593298379e-04
    7.2984724045e+00   -9.3651900534e-04
    7.3985238075e+00   -1.0325099574e-03
    7.4999151230e+00   -1.1350000277e-03
    7.5999469757e+00   -1.2411000207e-03
    7.6996512413e+00   -1.3516800245e-03
    7.7992854118e+00   -1.4670200180e-03
    7.8986787796e+00   -1.5870699426e-03
    7.9991712570e+00   -1.7136899987e-03
    8.0998630524e+00   -1.8460300053e-03
    8.1984853745e+00   -1.9810199738e-03
    8.2996377945e+00   -2.1248399280e-03
    8.3982439041e+00   -2.2699800320e-03
    8.4985017776e+00   -2.4222000502e-03
    8.5991115570e+00   -2.5794000831e-03
    8.6992826462e+00   -2.7400900144e-03
    8.7985725403e+00   -2.9033899773e-03
    8.8997306824e+00   -3.0740099028e-03
    8.9997901917e+00   -3.2472899184e-03
    9.0997190475e+00   -3.4250300378e-03
    9.1993360519e+00   -3.6070500501e-03
    9.2992801666e+00   -3.7945900112e-03
    9.3986368179e+00   -3.9858901873e-03
    9.4987831116e+00   -4.1835699230e-03
    9.5996103287e+00   -4.3874201365e-03
    9.6994476318e+00   -4.5939800330e-03
    9.7999267578e+00   -4.8064398579e-03
    9.8990697861e+00   -5.0202300772e-03
    9.9983463287e+00   -5.2380198613e-03
    1.0098764420e+01   -5.4618599825e-03
    1.0199291229e+01   -5.6893499568e-03
    1.0298808098e+01   -5.9178299271e-03
    1.0399515152e+01   -6.1524300836e-03
    1.0498553276e+01   -6.3865599222e-03
    1.0599480629e+01   -6.6285901703e-03
    1.0699219704e+01   -6.8710600026e-03
    1.0799749374e+01   -7.1187298745e-03
    1.0898918152e+01   -7.3662600480e-03
    1.0999976158e+01   -7.6219202019e-03
    1.1098901749e+01   -7.8756902367e-03
    1.1199955940e+01   -8.1387795508e-03
    1.1298659325e+01   -8.3996895701e-03
    1.1399050713e+01   -8.6691603065e-03
    1.1499440193e+01   -8.9428899810e-03
    1.1598249435e+01   -9.2164902017e-03
    1.1698875427e+01   -9.4996104017e-03
    1.1798378944e+01   -9.7842300311e-03
    1.1899182320e+01   -1.0077400133e-02
    1.1998335838e+01   -1.0370600037e-02
    1.2099510193e+01   -1.0674499907e-02
    1.2199143410e+01   -1.0978300124e-02
    1.2299744606e+01   -1.1289199814e-02
    1.2398460388e+01   -1.1598099954e-02
    1.2498364449e+01   -1.1914799921e-02
    1.2599061012e+01   -1.2238699943e-02
    1.2699979782e+01   -1.2568400241e-02
    1.2799487114e+01   -1.2899200432e-02
    1.2899122238e+01   -1.3236099854e-02
    1.2999505997e+01   -1.3580899686e-02
    1.3099875450e+01   -1.3930300251e-02
    1.3199023247e+01   -1.4279000461e-02
    1.3299539566e+01   -1.4635600150e-02
    1.3399533272e+01   -1.4993400313e-02
    1.3499732971e+01   -1.5355000272e-02
    1.3598946571e+01   -1.5715800226e-02
    1.3699939728e+01   -1.6085699201e-02
    1.3799702644e+01   -1.6453100368e-02
    1.3899205208e+01   -1.6821200028e-02
    1.3999148369e+01   -1.7192700878e-02
    1.4099313736e+01   -1.7567100003e-02
    1.4198269844e+01   -1.7939800397e-02
    1.4298382759e+01   -1.8320599571e-02
    1.4399828911e+01   -1.8711099401e-02
    1.4498350143e+01   -1.9095199183e-02
    1.4599529266e+01   -1.9494999200e-02
    1.4698245049e+01   -1.9890500233e-02
    1.4799729347e+01   -2.0303100348e-02
    1.4898662567e+01   -2.0711800084e-02
    1.4999084473e+01   -2.1134000272e-02
    1.5099720001e+01   -2.1565200761e-02
    1.5198350906e+01   -2.1995900199e-02
    1.5298517227e+01   -2.2441599518e-02
    1.5399540901e+01   -2.2899700329e-02
    1.5498674393e+01   -2.3358199745e-02
    1.5599384308e+01   -2.3833999410e-02
    1.5698990822e+01   -2.4315200746e-02
    1.5798612595e+01   -2.4808000773e-02
    1.5899548531e+01   -2.5319799781e-02
    1.5999652863e+01   -2.5839999318e-02
    1.6099533081e+01   -2.6371899992e-02
    1.6199302673e+01   -2.6916200295e-02
    1.6298414230e+01   -2.7470100671e-02
    1.6398687363e+01   -2.8044199571e-02
    1.6498300552e+01   -2.8628800064e-02
    1.6598442078e+01   -2.9231300578e-02
    1.6699703217e+01   -2.9855899513e-02
    1.6799314499e+01   -3.0485199764e-02
    1.6900022507e+01   -3.1136099249e-02
    1.6998470306e+01   -3.1786900014e-02
    1.7098567963e+01   -3.2463401556e-02
    1.7198905945e+01   -3.3156901598e-02
    1.7298345566e+01   -3.3859498799e-02
    1.7399736404e+01   -3.4591801465e-02
    1.7499460220e+01   -3.5327799618e-02
    1.7599563599e+01   -3.6082200706e-02
    1.7700019836e+01   -3.6855101585e-02
    1.7799631119e+01   -3.7637300789e-02
    1.7899240494e+01   -3.8435701281e-02
    1.7998786926e+01   -3.9250198752e-02
    1.8098701477e+01   -4.0084999055e-02
    1.8198375702e+01   -4.0934998542e-02
    1.8298400879e+01   -4.1805200279e-02
    1.8398958206e+01   -4.2697001249e-02
    1.8499059677e+01   -4.3601300567e-02
    1.8599334717e+01   -4.4523198158e-02
    1.8699607849e+01   -4.5460700989e-02
    1.8798980713e+01   -4.6404898167e-02
    1.8899435043e+01   -4.7374598682e-02
    1.9000022888e+01   -4.8361100256e-02
    1.9100019455e+01   -4.9357499927e-02
    1.9199048996e+01   -5.0359498709e-02
    1.9298425674e+01   -5.1380101591e-02
    1.9398422241e+01   -5.2422299981e-02
    1.9498443604e+01   -5.3479701281e-02
    1.9599842072e+01   -5.4566800594e-02
    1.9698564529e+01   -5.5639699101e-02
    1.9799581528e+01   -5.6751798838e-02
    1.9899705887e+01   -5.7867899537e-02
    1.9999288559e+01   -5.8990601450e-02
    2.0098697662e+01   -6.0123000294e-02
    2.0198348999e+01   -6.1269398779e-02
    2.0299779892e+01   -6.2447398901e-02
    2.0399959564e+01   -6.3621699810e-02
    2.0498212814e+01   -6.4784198999e-02
    2.0598485947e+01   -6.5981402993e-02
    2.0699329376e+01   -6.7196503282e-02
    2.0798984528e+01   -6.8407997489e-02
    2.0898744583e+01   -6.9631502032e-02
    2.0998222351e+01   -7.0862397552e-02
    2.1099475861e+01   -7.2126902640e-02
    2.1198196411e+01   -7.3371499777e-02
    2.1299110413e+01   -7.4656397104e-02
    2.1399915695e+01   -7.5952701271e-02
    2.1499967575e+01   -7.7252097428e-02
    2.1599319458e+01   -7.8554801643e-02
    2.1699476242e+01   -7.9880699515e-02
    2.1799100876e+01   -8.1212200224e-02
    2.1898920059e+01   -8.2559302449e-02
    2.1998298645e+01   -8.3913601935e-02
    2.2099454880e+01   -8.5305601358e-02
    2.2198722839e+01   -8.6684696376e-02
    2.2298189163e+01   -8.8079102337e-02
    2.2399984360e+01   -8.9518703520e-02
    2.2498773575e+01   -9.0928100049e-02
    2.2598884583e+01   -9.2369303107e-02
    2.2698997498e+01   -9.3824297190e-02
    2.2799680710e+01   -9.5302499831e-02
    2.2899301529e+01   -9.6780002117e-02
    2.2998918533e+01   -9.8271697760e-02
    2.3099033356e+01   -9.9784202874e-02
    2.3199619293e+01   -1.0131599754e-01
    2.3299268723e+01   -1.0284399986e-01
    2.3398923874e+01   -1.0438299924e-01
    2.3498786926e+01   -1.0593699664e-01
    2.3598436356e+01   -1.0749699920e-01
    2.3699888229e+01   -1.0909599811e-01
    2.3799098969e+01   -1.1066900194e-01
    2.3898399353e+01   -1.1225199699e-01
    2.3998563766e+01   -1.1385600269e-01
    2.4098733902e+01   -1.1546999961e-01
    2.4198814392e+01   -1.1709199846e-01
    2.4298492432e+01   -1.1871899664e-01
    2.4399940491e+01   -1.2038599700e-01
    2.4500019073e+01   -1.2204500288e-01
    2.4599746704e+01   -1.2371099740e-01
    2.4699777603e+01   -1.2539499998e-01
    2.4799495697e+01   -1.2708799541e-01
    2.4898862839e+01   -1.2879000604e-01
    2.4998836517e+01   -1.3051800430e-01
    2.5098476410e+01   -1.3225799799e-01
    2.5199890137e+01   -1.3404700160e-01
    2.5299737930e+01   -1.3582499325e-01
    2.5399740219e+01   -1.3762399554e-01
    2.5499414444e+01   -1.3943399489e-01
    2.5599195480e+01   -1.4126600325e-01
    2.5698812485e+01   -1.4311300218e-01
    2.5798421860e+01   -1.4498199522e-01
    2.5898353577e+01   -1.4688000083e-01
    2.5999998093e+01   -1.4883300662e-01
    2.6099861145e+01   -1.5077599883e-01
    2.6198402405e+01   -1.5271599591e-01
    2.6298484802e+01   -1.5471099317e-01
    2.6399028778e+01   -1.5673899651e-01
    2.6498607635e+01   -1.5877300501e-01
    2.6598625183e+01   -1.6084200144e-01
    2.6700000763e+01   -1.6296599805e-01
    2.6799594879e+01   -1.6507799923e-01
    2.6899187088e+01   -1.6721700132e-01
    2.6999986649e+01   -1.6940699518e-01
    2.7099403381e+01   -1.7159299552e-01
    2.7200050354e+01   -1.7383199930e-01
    2.7298809052e+01   -1.7605699599e-01
    2.7399587631e+01   -1.7835499346e-01
    2.7499704361e+01   -1.8066699803e-01
    2.7599781036e+01   -1.8300700188e-01
    2.7698648453e+01   -1.8534700572e-01
    2.7798448563e+01   -1.8773800135e-01
    2.7899450302e+01   -1.9018800557e-01
    2.7998519897e+01   -1.9262099266e-01
    2.8099842072e+01   -1.9514100254e-01
    2.8198944092e+01   -1.9763800502e-01
    2.8298927307e+01   -2.0018899441e-01
    2.8398981094e+01   -2.0277300477e-01
    2.8499391556e+01   -2.0539699495e-01
    2.8598966599e+01   -2.0802900195e-01
    2.8699089050e+01   -2.1070599556e-01
    2.8798662186e+01   -2.1339599788e-01
    2.8899751663e+01   -2.1615700424e-01
    2.8998718262e+01   -2.1888999641e-01
    2.9098787308e+01   -2.2168099880e-01
    2.9198768616e+01   -2.2449900210e-01
    2.9299558640e+01   -2.2736899555e-01
    2.9399633408e+01   -2.3024700582e-01
    2.9499403000e+01   -2.3314400017e-01
    2.9598318100e+01   -2.3604300618e-01
    2.9698682785e+01   -2.3901200294e-01
    2.9800003052e+01   -2.4203699827e-01
    2.9899883270e+01   -2.4504399300e-01
    2.9999998093e+01   -2.4808199704e-01
    3.0098602295e+01   -2.5109601021e-01
    3.0200019836e+01   -2.5421801209e-01
    3.0299659729e+01   -2.5730499625e-01
    3.0399171829e+01   -2.6040899754e-01
    3.0499309540e+01   -2.6355201006e-01
    3.0599008560e+01   -2.6670101285e-01
    3.0698991776e+01   -2.6987800002e-01
    3.0798641205e+01   -2.7306398749e-01
    3.0898929596e+01   -2.7628800273e-01
    3.0999063492e+01   -2.7952700853e-01
    3.1099655151e+01   -2.8280100226e-01
    3.1198608398e+01   -2.8604200482e-01
    3.1299425125e+01   -2.8936499357e-01
    3.1398771286e+01   -2.9265999794e-01
    3.1499235153e+01   -2.9601499438e-01
    3.1599344254e+01   -2.9937899113e-01
    3.1699052811e+01   -3.0274999142e-01
    3.1798660278e+01   -3.0614000559e-01
    3.1898815155e+01   -3.0956900120e-01
    3.1999830246e+01   -3.1305000186e-01
    3.2099437714e+01   -3.1650400162e-01
    3.2199039459e+01   -3.1997799873e-01
    3.2299148560e+01   -3.2349100709e-01
    3.2398601532e+01   -3.2699900866e-01
    3.2498691559e+01   -3.3054998517e-01
    3.2598789215e+01   -3.3412298560e-01
    3.2698886871e+01   -3.3771800995e-01
    3.2799327850e+01   -3.4135100245e-01
    3.2898925781e+01   -3.4497800469e-01
    3.2998516083e+01   -3.4862899780e-01
    3.3099620819e+01   -3.5235700011e-01
    3.3199100494e+01   -3.5604399443e-01
    3.3298751831e+01   -3.5975500941e-01
    3.3398422241e+01   -3.6348199844e-01
    3.3499736786e+01   -3.6728700995e-01
    3.3599079132e+01   -3.7103500962e-01
    3.3699657440e+01   -3.7484499812e-01
    3.3799346924e+01   -3.7863600254e-01
    3.3898883820e+01   -3.8243299723e-01
    3.3999065399e+01   -3.8626798987e-01
    3.4099254608e+01   -3.9011800289e-01
    3.4199443817e+01   -3.9398398995e-01
    3.4299869537e+01   -3.9787700772e-01
    3.4399551392e+01   -4.0176200867e-01
    3.4498828888e+01   -4.0565198660e-01
    3.4599037170e+01   -4.0960100293e-01
    3.4698753357e+01   -4.1355401278e-01
    3.4798881531e+01   -4.1754600406e-01
    3.4898456573e+01   -4.2154198885e-01
    3.4998504639e+01   -4.2558500171e-01
    3.5099002838e+01   -4.2967700958e-01
    3.5198608398e+01   -4.3376201391e-01
    3.5299983978e+01   -4.3795201182e-01
    3.5399642944e+01   -4.4210100174e-01
    3.5499847412e+01   -4.4630399346e-01
    3.5599723816e+01   -4.5052599907e-01
    3.5698516846e+01   -4.5473501086e-01
    3.5799869537e+01   -4.5908999443e-01
    3.5898952484e+01   -4.6338599920e-01
    3.5999000549e+01   -4.6776100993e-01
    3.6099060059e+01   -4.7217598557e-01
    3.6199333191e+01   -4.7664099932e-01
    3.6299373627e+01   -4.8113599420e-01
    3.6399482727e+01   -4.8567500710e-01
    3.6499809265e+01   -4.9026799202e-01
    3.6599678040e+01   -4.9488401413e-01
    3.6699234009e+01   -4.9952900410e-01
    3.6798789978e+01   -5.0421899557e-01
    3.6898342133e+01   -5.0894999504e-01
    3.6999279022e+01   -5.1379197836e-01
    3.7099315643e+01   -5.1863300800e-01
    3.7198692322e+01   -5.2348798513e-01
    3.7298439026e+01   -5.2840501070e-01
    3.7398315430e+01   -5.3337597847e-01
    3.7498409271e+01   -5.3840601444e-01
    3.7598438263e+01   -5.4347997904e-01
    3.7699916840e+01   -5.4867702723e-01
    3.7799449921e+01   -5.5382299423e-01
    3.7899845123e+01   -5.5906498432e-01
    3.7999843597e+01   -5.6433802843e-01
    3.8099109650e+01   -5.6962502003e-01
    3.8198932648e+01   -5.7499498129e-01
    3.8298389435e+01   -5.8039999008e-01
    3.8399608612e+01   -5.8595299721e-01
    3.8499282837e+01   -5.9147399664e-01
    3.8599353790e+01   -5.9706699848e-01
    3.8698871613e+01   -6.0267901421e-01
    3.8798389435e+01   -6.0833799839e-01
    3.8898651123e+01   -6.1408901215e-01
    3.8998657227e+01   -6.1987602711e-01
    3.9098667145e+01   -6.2571197748e-01
    3.9199176788e+01   -6.3162797689e-01
    3.9299110413e+01   -6.3755899668e-01
    3.9399120331e+01   -6.4354401827e-01
    3.9498504639e+01   -6.4953899384e-01
    3.9599822998e+01   -6.5570002794e-01
    3.9699127197e+01   -6.6178399324e-01
    3.9799213409e+01   -6.6796201468e-01
    3.9899280548e+01   -6.7418098450e-01
    3.9998928070e+01   -6.8041402102e-01
    4.0099857330e+01   -6.8676698208e-01
    4.0199478149e+01   -6.9307297468e-01
    4.0299098969e+01   -6.9941300154e-01
    4.0398353577e+01   -7.0576399565e-01
    4.0498481750e+01   -7.1220499277e-01
    4.0598518372e+01   -7.1867299080e-01
    4.0698715210e+01   -7.2518301010e-01
    4.0798355103e+01   -7.3168802261e-01
    4.0899299622e+01   -7.3831099272e-01
    4.0999423981e+01   -7.4491101503e-01
    4.1099540710e+01   -7.5154399872e-01
    4.1199337006e+01   -7.5818902254e-01
    4.1299434662e+01   -7.6488900185e-01
    4.1399658203e+01   -7.7163302898e-01
    4.1499214172e+01   -7.7836698294e-01
    4.1599300385e+01   -7.8517198563e-01
    4.1699085236e+01   -7.9199099541e-01
    4.1798656464e+01   -7.9883199930e-01
    4.1898746490e+01   -8.0574297905e-01
    4.1998840332e+01   -8.1268900633e-01
    4.2098407745e+01   -8.1963300705e-01
    4.2198299408e+01   -8.2663202286e-01
    4.2299823761e+01   -8.3377897739e-01
    4.2398780823e+01   -8.4077602625e-01
    4.2498844147e+01   -8.4788101912e-01
    4.2598911285e+01   -8.5501998663e-01
    4.2698986053e+01   -8.6219501495e-01
    4.2799537659e+01   -8.6944001913e-01
    4.2899108887e+01   -8.7665200233e-01
    4.2999004364e+01   -8.8392299414e-01
    4.3099079132e+01   -8.9124000072e-01
    4.3199871063e+01   -8.9863801003e-01
    4.3299522400e+01   -9.0597897768e-01
    4.3399192810e+01   -9.1334700584e-01
    4.3499748230e+01   -9.2080497742e-01
    4.3599456787e+01   -9.2822498083e-01
    4.3699169159e+01   -9.3566900492e-01
    4.3798877716e+01   -9.4313299656e-01
    4.3899314880e+01   -9.5067197084e-01
    4.3999515533e+01   -9.5821297169e-01
    4.4099723816e+01   -9.6577602625e-01
    4.4198036194e+01   -9.7321897745e-01
    4.4298381805e+01   -9.8084402084e-01
    4.4399837494e+01   -9.8858398199e-01
    4.4499328613e+01   -9.9620699883e-01
    4.4599395752e+01   -1.0039099455e+00
    4.4699516296e+01   -1.0116499662e+00
    4.4799629211e+01   -1.0194300413e+00
    4.4899730682e+01   -1.0272400379e+00
    4.4998546600e+01   -1.0349999666e+00
    4.5098140717e+01   -1.0428600311e+00
    4.5199497223e+01   -1.0509099960e+00
    4.5298046112e+01   -1.0587799549e+00
    4.5398090363e+01   -1.0668100119e+00
    4.5498126984e+01   -1.0748900175e+00
    4.5599277496e+01   -1.0831099749e+00
    4.5698810577e+01   -1.0912499428e+00
    4.5798332214e+01   -1.0994399786e+00
    4.5898017883e+01   -1.1076999903e+00
    4.5998008728e+01   -1.1160500050e+00
    4.6097988129e+01   -1.1244499683e+00
    4.6199428558e+01   -1.1330399513e+00
    4.6299407959e+01   -1.1415699720e+00
    4.6398120880e+01   -1.1500500441e+00
    4.6499397278e+01   -1.1588200331e+00
    4.6598899841e+01   -1.1674900055e+00
    4.6698402405e+01   -1.1762399673e+00
    4.6799678802e+01   -1.1851999760e+00
    4.6899173737e+01   -1.1940699816e+00
    4.6999542236e+01   -1.2030899525e+00
    4.7098857880e+01   -1.2120699883e+00
    4.7199291229e+01   -1.2212200165e+00
    4.7299266815e+01   -1.2303999662e+00
    4.7398078918e+01   -1.2395299673e+00
    4.7498756409e+01   -1.2489099503e+00
    4.7598289490e+01   -1.2582600117e+00
    4.7699813843e+01   -1.2678600550e+00
    4.7799278259e+01   -1.2773499489e+00
    4.7898590088e+01   -1.2868900299e+00
    4.7998500824e+01   -1.2965699434e+00
    4.8099559784e+01   -1.3064399958e+00
    4.8198963165e+01   -1.3162300587e+00
    4.8298854828e+01   -1.3261499405e+00
    4.8398754120e+01   -1.3361599445e+00
    4.8498462677e+01   -1.3462200165e+00
    4.8599662781e+01   -1.3565100431e+00
    4.8699085236e+01   -1.3666900396e+00
    4.8798507690e+01   -1.3769500256e+00
    4.8899772644e+01   -1.3874800205e+00
    4.8999694824e+01   -1.3979400396e+00
    4.9099620819e+01   -1.4084700346e+00
    4.9198139191e+01   -1.4189300537e+00
    4.9298316956e+01   -1.4296400547e+00
    4.9398250580e+01   -1.4404000044e+00
    4.9499446869e+01   -1.4513700008e+00
    4.9598911285e+01   -1.4622100592e+00
    4.9698387146e+01   -1.4731299877e+00
    4.9799617767e+01   -1.4843100309e+00
    4.9899623871e+01   -1.4954299927e+00
    4.9999660492e+01   -1.5066000223e+00
    5.0098098755e+01   -1.5176500082e+00
    5.0199462891e+01   -1.5290900469e+00
    5.0299053192e+01   -1.5403699875e+00
    5.0399291992e+01   -1.5517799854e+00
    5.0499393463e+01   -1.5632300377e+00
    5.0598949432e+01   -1.5746599436e+00
    5.0699668884e+01   -1.5862699747e+00
    5.0799289703e+01   -1.5978000164e+00
    5.0898181915e+01   -1.6093000174e+00
    5.0998275757e+01   -1.6209700108e+00
    5.1098358154e+01   -1.6326999664e+00
    5.1199668884e+01   -1.6446199417e+00
    5.1299720764e+01   -1.6564500332e+00
    5.1399772644e+01   -1.6683199406e+00
    5.1498275757e+01   -1.6800600290e+00
    5.1599540710e+01   -1.6921900511e+00
    5.1698398590e+01   -1.7040699720e+00
    5.1799694061e+01   -1.7163000107e+00
    5.1898193359e+01   -1.7282400131e+00
    5.1998561859e+01   -1.7404600382e+00
    5.2098068237e+01   -1.7526099682e+00
    5.2198875427e+01   -1.7649799585e+00
    5.2298877716e+01   -1.7772899866e+00
    5.2399234772e+01   -1.7896900177e+00
    5.2499244690e+01   -1.8020900488e+00
    5.2599269867e+01   -1.8145400286e+00
    5.2699302673e+01   -1.8270299435e+00
    5.2798126221e+01   -1.8394199610e+00
    5.2899436951e+01   -1.8521800041e+00
    5.2998062134e+01   -1.8646500111e+00
    5.3098098755e+01   -1.8773299456e+00
    5.3198863983e+01   -1.8901499510e+00
    5.3298503876e+01   -1.9028600454e+00
    5.3398166656e+01   -1.9156099558e+00
    5.3498939514e+01   -1.9285299778e+00
    5.3598873138e+01   -1.9413800240e+00
    5.3698589325e+01   -1.9542299509e+00
    5.3798301697e+01   -1.9671100378e+00
    5.3897865295e+01   -1.9799900055e+00
    5.3998069763e+01   -1.9929800034e+00
    5.4098285675e+01   -2.0060000420e+00
    5.4198505402e+01   -2.0190498829e+00
    5.4299053192e+01   -2.0321800709e+00
    5.4398735046e+01   -2.0452399254e+00
    5.4498657227e+01   -2.0583701134e+00
    5.4598705292e+01   -2.0715599060e+00
    5.4699481964e+01   -2.0848999023e+00
    5.4799552917e+01   -2.0981900692e+00
    5.4899612427e+01   -2.1115400791e+00
    5.4999595642e+01   -2.1249198914e+00
    5.5099143982e+01   -2.1383099556e+00
    5.5198669434e+01   -2.1517601013e+00
    5.5298175812e+01   -2.1652700901e+00
    5.5398063660e+01   -2.1788899899e+00
    5.5498039246e+01   -2.1925799847e+00
    5.5598033905e+01   -2.2063300610e+00
    5.5699287415e+01   -2.2203299999e+00
    5.5798744202e+01   -2.2341599464e+00
    5.5898166656e+01   -2.2480499744e+00
    5.5998081207e+01   -2.2620899677e+00
    5.6097984314e+01   -2.2762000561e+00
    5.6199676514e+01   -2.2906498909e+00
    5.6299579620e+01   -2.3049299717e+00
    5.6398529053e+01   -2.3191499710e+00
    5.6497966766e+01   -2.3335199356e+00
    5.6599174500e+01   -2.3482398987e+00
    5.6698612213e+01   -2.3627800941e+00
    5.6798046112e+01   -2.3774099350e+00
    5.6899253845e+01   -2.3923900127e+00
    5.6998672485e+01   -2.4071900845e+00
    5.7097915649e+01   -2.4220399857e+00
    5.7197814941e+01   -2.4370799065e+00
    5.7299598694e+01   -2.4524900913e+00
    5.7399082184e+01   -2.4676499367e+00
    5.7499126434e+01   -2.4829900265e+00
    5.7599010468e+01   -2.4983999729e+00
    5.7698562622e+01   -2.5138499737e+00
    5.7797931671e+01   -2.5293700695e+00
    5.7898361206e+01   -2.5451600552e+00
    5.7998157501e+01   -2.5609500408e+00
    5.8098327637e+01   -2.5769200325e+00
    5.8199378967e+01   -2.5931301117e+00
    5.8298610687e+01   -2.6091599464e+00
    5.8398380280e+01   -2.6253900528e+00
    5.8499187469e+01   -2.6418900490e+00
    5.8598491669e+01   -2.6582601070e+00
    5.8699565887e+01   -2.6750199795e+00
    5.8798862457e+01   -2.6915800571e+00
    5.8898887634e+01   -2.7083699703e+00
    5.8998683929e+01   -2.7252199650e+00
    5.9098491669e+01   -2.7421700954e+00
    5.9198341370e+01   -2.7592298985e+00
    5.9298294067e+01   -2.7764000893e+00
    5.9398117065e+01   -2.7936599255e+00
    5.9497962952e+01   -2.8110098839e+00
    5.9599109650e+01   -2.8286900520e+00
    5.9698490143e+01   -2.8461499214e+00
    5.9799648285e+01   -2.8640100956e+00
    5.9899570465e+01   -2.8817501068e+00
    5.9999534607e+01   -2.8995699883e+00
    6.0098567963e+01   -2.9172999859e+00
    6.0198093414e+01   -2.9351899624e+00
    6.0299407959e+01   -2.9534699917e+00
    6.0398609161e+01   -2.9714400768e+00
    6.0498657227e+01   -2.9896199703e+00
    6.0599182129e+01   -3.0079500675e+00
    6.0698760986e+01   -3.0261700153e+00
    6.0797878265e+01   -3.0443699360e+00
    6.0898948669e+01   -3.0629899502e+00
    6.0998996735e+01   -3.0814700127e+00
    6.1099029541e+01   -3.1000199318e+00
    6.1199272156e+01   -3.1186699867e+00
    6.1299041748e+01   -3.1373000145e+00
    6.1399021149e+01   -3.1560399532e+00
    6.1498992920e+01   -3.1748399734e+00
    6.1598953247e+01   -3.1937000751e+00
    6.1697956085e+01   -3.2124500275e+00
    6.1799171448e+01   -3.2316799164e+00
    6.1898597717e+01   -3.2506299019e+00
    6.1998027802e+01   -3.2696399689e+00
    6.2099235535e+01   -3.2890601158e+00
    6.2198211670e+01   -3.3080999851e+00
    6.2298141479e+01   -3.3273899555e+00
    6.2398086548e+01   -3.3467299938e+00
    6.2498031616e+01   -3.3661201000e+00
    6.2597999573e+01   -3.3855700493e+00
    6.2697975159e+01   -3.4050700665e+00
    6.2797863007e+01   -3.4246199131e+00
    6.2899108887e+01   -3.4444999695e+00
    6.2998905182e+01   -3.4641499519e+00
    6.3098896027e+01   -3.4838900566e+00
    6.3198524475e+01   -3.5035998821e+00
    6.3298133850e+01   -3.5233399868e+00
    6.3399559021e+01   -3.5434899330e+00
    6.3498779297e+01   -3.5632300377e+00
    6.3598480225e+01   -3.5831000805e+00
    6.3698188782e+01   -3.6030099392e+00
    6.3797893524e+01   -3.6229500771e+00
    6.3898326874e+01   -3.6430599689e+00
    6.3998527527e+01   -3.6631500721e+00
    6.4098731995e+01   -3.6832699776e+00
    6.4198936462e+01   -3.7034299374e+00
    6.4298355103e+01   -3.7234699726e+00
    6.4398010254e+01   -3.7435998917e+00
    6.4498008728e+01   -3.7638499737e+00
    6.4598266602e+01   -3.7841999531e+00
    6.4699348450e+01   -3.8047800064e+00
    6.4799369812e+01   -3.8252000809e+00
    6.4899368286e+01   -3.8456699848e+00
    6.4998397827e+01   -3.8660099506e+00
    6.5097877502e+01   -3.8865199089e+00
    6.5199111938e+01   -3.9074599743e+00
    6.5298538208e+01   -3.9280900955e+00
    6.5399162292e+01   -3.9490499496e+00
    6.5499061584e+01   -3.9699199200e+00
    6.5599525452e+01   -3.9909899235e+00
    6.5698921204e+01   -4.0119099617e+00
    6.5798294067e+01   -4.0329198837e+00
    6.5897834778e+01   -4.0540399551e+00
    6.5999557495e+01   -4.0757198334e+00
    6.6098937988e+01   -4.0969901085e+00
    6.6199455261e+01   -4.1185998917e+00
    6.6299278259e+01   -4.1401600838e+00
    6.6399482727e+01   -4.1618900299e+00
    6.6498840332e+01   -4.1835398674e+00
    6.6598190308e+01   -4.2052898407e+00
    6.6699317932e+01   -4.2275400162e+00
    6.6798683167e+01   -4.2494897842e+00
    6.6898033142e+01   -4.2715501785e+00
    6.6999145508e+01   -4.2940897942e+00
    6.7099243164e+01   -4.3165102005e+00
    6.7198074341e+01   -4.3387398720e+00
    6.7298454285e+01   -4.3614301682e+00
    6.7399185181e+01   -4.3843002319e+00
    6.7497909546e+01   -4.4068398476e+00
    6.7597702026e+01   -4.4297299385e+00
    6.7699356079e+01   -4.4531598091e+00
    6.7798828125e+01   -4.4762201309e+00
    6.7897789001e+01   -4.4992799759e+00
    6.7999328613e+01   -4.5230698586e+00
    6.8098121643e+01   -4.5463399887e+00
    6.8199020386e+01   -4.5702500343e+00
    6.8297653198e+01   -4.5937600136e+00
    6.8399147034e+01   -4.6180901527e+00
    6.8498237610e+01   -4.6419701576e+00
    6.8599159241e+01   -4.6664199829e+00
    6.8698303223e+01   -4.6905598640e+00
    6.8799217224e+01   -4.7152700424e+00
    6.8899200439e+01   -4.7398700714e+00
    6.8998847961e+01   -4.7645201683e+00
    6.9098510742e+01   -4.7892899513e+00
    6.9197891235e+01   -4.8141098022e+00
    6.9299468994e+01   -4.8396100998e+00
    6.9399154663e+01   -4.8647499084e+00
    6.9497993469e+01   -4.8898000717e+00
    6.9599014282e+01   -4.9155101776e+00
    6.9698280334e+01   -4.9408898354e+00
    6.9798995972e+01   -4.9667601585e+00
    6.9898811340e+01   -4.9924898148e+00
    6.9998680115e+01   -5.0183401108e+00
    7.0097732544e+01   -5.0440602303e+00
    7.0198951721e+01   -5.0704398155e+00
    7.0298408508e+01   -5.0964298248e+00
    7.0398422241e+01   -5.1226501465e+00
    7.0498405457e+01   -5.1489400864e+00
    7.0597740173e+01   -5.1751298904e+00
    7.0699028015e+01   -5.2019100189e+00
    7.0797859192e+01   -5.2281098366e+00
    7.0897842407e+01   -5.2546901703e+00
    7.0997810364e+01   -5.2813301086e+00
    7.1097755432e+01   -5.3080401421e+00
    7.1197677612e+01   -5.3348197937e+00
    7.1299461365e+01   -5.3621702194e+00
    7.1399353027e+01   -5.3891000748e+00
    7.1499229431e+01   -5.4161000252e+00
    7.1598777771e+01   -5.4430799484e+00
    7.1698143005e+01   -5.4700798988e+00
    7.1799255371e+01   -5.4976301193e+00
    7.1898574829e+01   -5.5247697830e+00
    7.1997894287e+01   -5.5519700050e+00
    7.2098999023e+01   -5.5797200203e+00
    7.2199409485e+01   -5.6073498726e+00
    7.2299255371e+01   -5.6348900795e+00
    7.2399116516e+01   -5.6624798775e+00
    7.2498985291e+01   -5.6901302338e+00
    7.2598876953e+01   -5.7178502083e+00
    7.2698783875e+01   -5.7456197739e+00
    7.2797836304e+01   -5.7732200623e+00
    7.2899009705e+01   -5.8014798164e+00
    7.2998962402e+01   -5.8294401169e+00
    7.3098884583e+01   -5.8574600220e+00
    7.3198463440e+01   -5.8854098320e+00
    7.3298019409e+01   -5.9134001732e+00
    7.3397613525e+01   -5.9414401054e+00
    7.3499336243e+01   -5.9700999260e+00
    7.3598999023e+01   -5.9982199669e+00
    7.3698661804e+01   -6.0263700485e+00
    7.3798332214e+01   -6.0545501709e+00
    7.3898399353e+01   -6.0828599930e+00
    7.3998565674e+01   -6.1112198830e+00
    7.4098731995e+01   -6.1395998001e+00
    7.4198890686e+01   -6.1680102348e+00
    7.4299026489e+01   -6.1964597702e+00
    7.4397735596e+01   -6.2245402336e+00
    7.4497787476e+01   -6.2530498505e+00
    7.4598960876e+01   -6.2819399834e+00
    7.4698753357e+01   -6.3104801178e+00
    7.4798683167e+01   -6.3391199112e+00
    7.4898597717e+01   -6.3678097725e+00
    7.4999420166e+01   -6.3968300819e+00
    7.5098808289e+01   -6.4255099297e+00
    7.5198173523e+01   -6.4542498589e+00
    7.5299278259e+01   -6.4835700989e+00
    7.5398597717e+01   -6.5124502182e+00
    7.5498970032e+01   -6.5416998863e+00
    7.5599334717e+01   -6.5710201263e+00
    7.5698646545e+01   -6.6001200676e+00
    7.5798484802e+01   -6.6294498444e+00
    7.5898513794e+01   -6.6589298248e+00
    7.5998268127e+01   -6.6884198189e+00
    7.6098014832e+01   -6.7179999352e+00
    7.6197547913e+01   -6.7476100922e+00
    7.6299171448e+01   -6.7779397964e+00
    7.6398399353e+01   -6.8076601028e+00
    7.6497673035e+01   -6.8374800682e+00
    7.6598724365e+01   -6.8679499626e+00
    7.6697998047e+01   -6.8979902267e+00
    7.6799057007e+01   -6.9286699295e+00
    7.6898330688e+01   -6.9589099884e+00
    7.6999366760e+01   -6.9897799492e+00
    7.7098609924e+01   -7.0202097893e+00
    7.7198585510e+01   -7.0509700775e+00
    7.7297973633e+01   -7.0816597939e+00
    7.7398368835e+01   -7.1127700806e+00
    7.7498069763e+01   -7.1437897682e+00
    7.7597747803e+01   -7.1749200821e+00
    7.7699287415e+01   -7.2067499161e+00
    7.7798950195e+01   -7.2381300926e+00
    7.7897987366e+01   -7.2694501877e+00
    7.7999374390e+01   -7.3016500473e+00
    7.8099342346e+01   -7.3335399628e+00
    7.8198303223e+01   -7.3652601242e+00
    7.8298873901e+01   -7.3976402283e+00
    7.8398307800e+01   -7.4298000336e+00
    7.8497680664e+01   -7.4620800018e+00
    7.8598411560e+01   -7.4949498177e+00
    7.8699142456e+01   -7.5279598236e+00
    7.8798110962e+01   -7.5605301857e+00
    7.8898254395e+01   -7.5936198235e+00
    7.8998191833e+01   -7.6267800331e+00
    7.9097694397e+01   -7.6599302292e+00
    7.9198348999e+01   -7.6936001778e+00
    7.9298652649e+01   -7.7272801399e+00
    7.9398185730e+01   -7.7608399391e+00
    7.9497749329e+01   -7.7945299149e+00
    7.9597496033e+01   -7.8284101486e+00
    7.9698616028e+01   -7.8628897667e+00
    7.9798095703e+01   -7.8969202042e+00
    7.9897773743e+01   -7.9311199188e+00
    7.9997497559e+01   -7.9654498100e+00
    8.0097618103e+01   -8.0000095367e+00
    8.0198715210e+01   -8.0349998474e+00
    8.0298057556e+01   -8.0694704056e+00
    8.0399185181e+01   -8.1046304703e+00
    8.0498634338e+01   -8.1393003464e+00
    8.0598983765e+01   -8.1743497849e+00
    8.0698387146e+01   -8.2091398239e+00
    8.0797767639e+01   -8.2440004349e+00
    8.0897644043e+01   -8.2791004181e+00
    8.0997505188e+01   -8.3142700195e+00
    8.1099220276e+01   -8.3501596451e+00
    8.1199020386e+01   -8.3854598999e+00
    8.1298789978e+01   -8.4208202362e+00
    8.1398551941e+01   -8.4562597275e+00
    8.1498306274e+01   -8.4917602539e+00
    8.1598045349e+01   -8.5273399353e+00
    8.1697723389e+01   -8.5629596710e+00
    8.1798698425e+01   -8.5991201401e+00
    8.1897895813e+01   -8.6346998215e+00
    8.1998870850e+01   -8.6709899902e+00
    8.2098083496e+01   -8.7067098618e+00
    8.2199073792e+01   -8.7431201935e+00
    8.2298812866e+01   -8.7791299820e+00
    8.2398567200e+01   -8.8151903152e+00
    8.2498344421e+01   -8.8513097763e+00
    8.2598152161e+01   -8.8874797821e+00
    8.2697975159e+01   -8.9237098694e+00
    8.2798156738e+01   -8.9601202011e+00
    8.2899246216e+01   -8.9969100952e+00
    8.2999229431e+01   -9.0333404541e+00
    8.3099082947e+01   -9.0697603226e+00
    8.3198158264e+01   -9.1059198380e+00
    8.3297653198e+01   -9.1422595978e+00
    8.3398971558e+01   -9.1792802811e+00
    8.3498863220e+01   -9.2158002853e+00
    8.3598464966e+01   -9.2522296906e+00
    8.3698081970e+01   -9.2886695862e+00
    8.3797691345e+01   -9.3251304626e+00
    8.3898269653e+01   -9.3619403839e+00
    8.3998374939e+01   -9.3985795975e+00
    8.4098472595e+01   -9.4352302551e+00
    8.4198562622e+01   -9.4718904495e+00
    8.4298629761e+01   -9.5085601807e+00
    8.4398223877e+01   -9.5450897217e+00
    8.4498199463e+01   -9.5817899704e+00
    8.4598838806e+01   -9.6187801361e+00
    8.4697959900e+01   -9.6552495956e+00
    8.4797782898e+01   -9.6920099258e+00
    8.4897583008e+01   -9.7288198471e+00
    8.4998168945e+01   -9.7659702301e+00
    8.5099212646e+01   -9.8033399582e+00
    8.5198448181e+01   -9.8401098251e+00
    8.5297653198e+01   -9.8769197464e+00
    8.5398628235e+01   -9.9144496918e+00
    8.5497817993e+01   -9.9513702393e+00
    8.5597671509e+01   -9.9886102676e+00
    8.5697830200e+01   -1.0026000023e+01
    8.5798851013e+01   -1.0063799858e+01
    8.5898101807e+01   -1.0101099968e+01
    8.5997756958e+01   -1.0138500214e+01
    8.6097404480e+01   -1.0175999641e+01
    8.6198921204e+01   -1.0214400291e+01
    8.6298568726e+01   -1.0252099991e+01
    8.6397811890e+01   -1.0289699554e+01
    8.6498756409e+01   -1.0328000069e+01
    8.6598701477e+01   -1.0366100311e+01
    8.6697883606e+01   -1.0404000282e+01
    8.6798843384e+01   -1.0442700386e+01
    8.6898025513e+01   -1.0480699539e+01
    8.6998954773e+01   -1.0519499779e+01
    8.7098098755e+01   -1.0557800293e+01
    8.7198715210e+01   -1.0596699715e+01
    8.7298324585e+01   -1.0635199547e+01
    8.7397842407e+01   -1.0673899651e+01
    8.7499237061e+01   -1.0713399887e+01
    8.7598785400e+01   -1.0752300262e+01
    8.7698303223e+01   -1.0791299820e+01
    8.7798484802e+01   -1.0830699921e+01
    8.7899139404e+01   -1.0870400429e+01
    8.7998481750e+01   -1.0909799576e+01
    8.8097717285e+01   -1.0949199677e+01
    8.8198265076e+01   -1.0989299774e+01
    8.8298553467e+01   -1.1029399872e+01
    8.8399017334e+01   -1.1069800377e+01
    8.8498985291e+01   -1.1110099792e+01
    8.8597755432e+01   -1.1149999619e+01
    8.8698303223e+01   -1.1190799713e+01
    8.8798858643e+01   -1.1231800079e+01
    8.8897850037e+01   -1.1272199631e+01
    8.8998176575e+01   -1.1313300133e+01
    8.9097503662e+01   -1.1354200363e+01
    8.9199203491e+01   -1.1396100044e+01
    8.9299118042e+01   -1.1437500000e+01
    8.9398475647e+01   -1.1478799820e+01
    8.9497886658e+01   -1.1520099640e+01
    8.9599197388e+01   -1.1562500000e+01
    8.9698600769e+01   -1.1604100227e+01
    8.9797599792e+01   -1.1645700455e+01
    8.9899002075e+01   -1.1688400269e+01
    8.9998573303e+01   -1.1730400085e+01
    9.0098762512e+01   -1.1772800446e+01
    9.0197937012e+01   -1.1814800262e+01
    9.0298896790e+01   -1.1857700348e+01
    9.0398101807e+01   -1.1899800301e+01
    9.0499107361e+01   -1.1942899704e+01
    9.0597793579e+01   -1.1984999657e+01
    9.0698822021e+01   -1.2028100014e+01
    9.0797828674e+01   -1.2070500374e+01
    9.0897560120e+01   -1.2113300323e+01
    9.0999145508e+01   -1.2156900406e+01
    9.1098815918e+01   -1.2199700356e+01
    9.1198455811e+01   -1.2242600441e+01
    9.1298057556e+01   -1.2285599709e+01
    9.1397651672e+01   -1.2328599930e+01
    9.1499107361e+01   -1.2372500420e+01
    9.1598678589e+01   -1.2415599823e+01
    9.1699058533e+01   -1.2459099770e+01
    9.1798103333e+01   -1.2502200127e+01
    9.1898902893e+01   -1.2545999527e+01
    9.1997955322e+01   -1.2589099884e+01
    9.2098793030e+01   -1.2633099556e+01
    9.2197875977e+01   -1.2676300049e+01
    9.2297485352e+01   -1.2719699860e+01
    9.2399002075e+01   -1.2764100075e+01
    9.2498672485e+01   -1.2807700157e+01
    9.2598381042e+01   -1.2851300240e+01
    9.2698112488e+01   -1.2894900322e+01
    9.2797966003e+01   -1.2938599586e+01
    9.2898956299e+01   -1.2982899666e+01
    9.2998619080e+01   -1.3026599884e+01
    9.3098381042e+01   -1.3070300102e+01
    9.3198036194e+01   -1.3114000320e+01
    9.3297462463e+01   -1.3157600403e+01
    9.3398727417e+01   -1.3201999664e+01
    9.3498016357e+01   -1.3245499611e+01
    9.3597572327e+01   -1.3289199829e+01
    9.3698913574e+01   -1.3333600044e+01
    9.3798469543e+01   -1.3377200127e+01
    9.3898223877e+01   -1.3420800209e+01
    9.3998268127e+01   -1.3464599609e+01
    9.4098312378e+01   -1.3508299828e+01
    9.4198333740e+01   -1.3552100182e+01
    9.4298332214e+01   -1.3595800400e+01
    9.4397636414e+01   -1.3639200211e+01
    9.4497520447e+01   -1.3682900429e+01
    9.4597846985e+01   -1.3726799965e+01
    9.4698738098e+01   -1.3770899773e+01
    9.4798446655e+01   -1.3814599991e+01
    9.4898117065e+01   -1.3858300209e+01
    9.4999114990e+01   -1.3902500153e+01
    9.5098251343e+01   -1.3946000099e+01
    9.5199104309e+01   -1.3990300179e+01
    9.5298164368e+01   -1.4033900261e+01
    9.5398979187e+01   -1.4078200340e+01
    9.5498023987e+01   -1.4121899605e+01
    9.5598831177e+01   -1.4166299820e+01
    9.5698951721e+01   -1.4210499763e+01
    9.5798278809e+01   -1.4254400253e+01
    9.5898300171e+01   -1.4298600197e+01
    9.5997817993e+01   -1.4342700005e+01
    9.6097335815e+01   -1.4386899948e+01
    9.6198722839e+01   -1.4432000160e+01
    9.6298248291e+01   -1.4476300240e+01
    9.6397819519e+01   -1.4520700455e+01
    9.6497848511e+01   -1.4565400124e+01
    9.6598602295e+01   -1.4610400200e+01
    9.6697647095e+01   -1.4654800415e+01
    9.6798469543e+01   -1.4700099945e+01
    9.6897514343e+01   -1.4744600296e+01
    9.6998298645e+01   -1.4789999962e+01
    9.7099067688e+01   -1.4835499763e+01
    9.7197769165e+01   -1.4880100250e+01
    9.7297233582e+01   -1.4925200462e+01
    9.7398735046e+01   -1.4971300125e+01
    9.7498657227e+01   -1.5016799927e+01
    9.7598045349e+01   -1.5062100410e+01
    9.7697395325e+01   -1.5107500076e+01
    9.7798263550e+01   -1.5153800011e+01
    9.7898178101e+01   -1.5199700356e+01
    9.7997314453e+01   -1.5245400429e+01
    9.8098434448e+01   -1.5292200089e+01
    9.8197769165e+01   -1.5338199615e+01
    9.8298843384e+01   -1.5385299683e+01
    9.8397392273e+01   -1.5431200027e+01
    9.8497711182e+01   -1.5478199959e+01
    9.8598037720e+01   -1.5525300026e+01
    9.8698379517e+01   -1.5572500229e+01
    9.8798736572e+01   -1.5619899750e+01
    9.8897354126e+01   -1.5666500092e+01
    9.8998611450e+01   -1.5714599609e+01
    9.9097320557e+01   -1.5761599541e+01
    9.9197753906e+01   -1.5809499741e+01
    9.9298713684e+01   -1.5857799530e+01
    9.9397895813e+01   -1.5905400276e+01
    9.9499000549e+01   -1.5954099655e+01
    9.9598274231e+01   -1.6001899719e+01
    9.9698577881e+01   -1.6050399780e+01
    9.9798080444e+01   -1.6098600388e+01
    9.9898994446e+01   -1.6147600174e+01
    9.9998397827e+01   -1.6195999146e+01
    1.0009864044e+02   -1.6244800568e+01
    1.0019763947e+02   -1.6293100357e+01
    1.0029843903e+02   -1.6342399597e+01
    1.0039749146e+02   -1.6390899658e+01
    1.0049832153e+02   -1.6440299988e+01
    1.0059783936e+02   -1.6489099503e+01
    1.0069870758e+02   -1.6538700104e+01
    1.0079844666e+02   -1.6587699890e+01
    1.0089800262e+02   -1.6636699677e+01
    1.0099752808e+02   -1.6685800552e+01
    1.0109889984e+02   -1.6735799789e+01
    1.0119834137e+02   -1.6784999847e+01
    1.0129775238e+02   -1.6834199905e+01
    1.0139901733e+02   -1.6884399414e+01
    1.0149839783e+02   -1.6933599472e+01
    1.0159777069e+02   -1.6982999802e+01
    1.0169760895e+02   -1.7032600403e+01
    1.0179821014e+02   -1.7082599640e+01
    1.0189880371e+02   -1.7132699966e+01
    1.0199764252e+02   -1.7181999207e+01
    1.0209828186e+02   -1.7232099533e+01
    1.0219893646e+02   -1.7282300949e+01
    1.0229785156e+02   -1.7331699371e+01
    1.0239732361e+02   -1.7381399155e+01
    1.0249871826e+02   -1.7431999207e+01
    1.0259828186e+02   -1.7481700897e+01
    1.0269788361e+02   -1.7531499863e+01
    1.0279750824e+02   -1.7581300735e+01
    1.0289836884e+02   -1.7631700516e+01
    1.0299790192e+02   -1.7681400299e+01
    1.0309754944e+02   -1.7731199265e+01
    1.0319786835e+02   -1.7781299591e+01
    1.0329721832e+02   -1.7830900192e+01
    1.0339840698e+02   -1.7881399155e+01
    1.0349829102e+02   -1.7931200027e+01
    1.0359779358e+02   -1.7980800629e+01
    1.0369728851e+02   -1.8030399323e+01
    1.0379856873e+02   -1.8080799103e+01
    1.0389771271e+02   -1.8130100250e+01
    1.0399770355e+02   -1.8179700851e+01
    1.0409767914e+02   -1.8229400635e+01
    1.0419764709e+02   -1.8278999329e+01
    1.0429756927e+02   -1.8328500748e+01
    1.0439813232e+02   -1.8378400803e+01
    1.0449791718e+02   -1.8427799225e+01
    1.0459780121e+02   -1.8477399826e+01
    1.0469799805e+02   -1.8527000427e+01
    1.0479757690e+02   -1.8576400757e+01
    1.0489711761e+02   -1.8625799179e+01
    1.0499809265e+02   -1.8675899506e+01
    1.0509884644e+02   -1.8725900650e+01
    1.0519777679e+02   -1.8774999619e+01
    1.0529844666e+02   -1.8825000763e+01
    1.0539733887e+02   -1.8874099731e+01
    1.0549799347e+02   -1.8924200058e+01
    1.0559864807e+02   -1.8974300385e+01
    1.0569843292e+02   -1.9024000168e+01
    1.0579721069e+02   -1.9073200226e+01
    1.0589787292e+02   -1.9123500824e+01
    1.0599835205e+02   -1.9173700333e+01
    1.0609770203e+02   -1.9223400116e+01
    1.0619892883e+02   -1.9274099350e+01
    1.0629830933e+02   -1.9323900223e+01
    1.0639795685e+02   -1.9374000549e+01
    1.0649761963e+02   -1.9424100876e+01
    1.0659877777e+02   -1.9475000381e+01
    1.0669853973e+02   -1.9525400162e+01
    1.0679743195e+02   -1.9575300217e+01
    1.0689806366e+02   -1.9626199722e+01
    1.0699865723e+02   -1.9677200317e+01
    1.0709877014e+02   -1.9728000641e+01
    1.0719803619e+02   -1.9778499603e+01
    1.0729885864e+02   -1.9829799652e+01
    1.0739763641e+02   -1.9880199432e+01
    1.0749868774e+02   -1.9931900024e+01
    1.0759786987e+02   -1.9982700348e+01
    1.0769888306e+02   -2.0034599304e+01
    1.0779788971e+02   -2.0085599899e+01
    1.0789813995e+02   -2.0137399673e+01
    1.0799890137e+02   -2.0189599991e+01
    1.0809844971e+02   -2.0241199493e+01
    1.0819841003e+02   -2.0293300629e+01
    1.0829833221e+02   -2.0345500946e+01
    1.0839839172e+02   -2.0397899628e+01
    1.0849845886e+02   -2.0450399399e+01
    1.0859854126e+02   -2.0503099442e+01
    1.0869864655e+02   -2.0555999756e+01
    1.0879878235e+02   -2.0608999252e+01
    1.0889717865e+02   -2.0661199570e+01
    1.0899812317e+02   -2.0715000153e+01
    1.0909706879e+02   -2.0767799377e+01
    1.0919764709e+02   -2.0821599960e+01
    1.0929842377e+02   -2.0875699997e+01
    1.0939742279e+02   -2.0928899765e+01
    1.0949835205e+02   -2.0983400345e+01
    1.0959744263e+02   -2.1036899567e+01
    1.0969844818e+02   -2.1091699600e+01
    1.0979708099e+02   -2.1145200729e+01
    1.0989814758e+02   -2.1200199127e+01
    1.0999739838e+02   -2.1254299164e+01
    1.1009716034e+02   -2.1308700562e+01
    1.1019777679e+02   -2.1363700867e+01
    1.1029842377e+02   -2.1418800354e+01
    1.1039732361e+02   -2.1473100662e+01
    1.1049800110e+02   -2.1528299332e+01
    1.1059857178e+02   -2.1583599091e+01
    1.1069751740e+02   -2.1638099670e+01
    1.1079823303e+02   -2.1693500519e+01
    1.1089785767e+02   -2.1748500824e+01
    1.1099720764e+02   -2.1803400040e+01
    1.1109838867e+02   -2.1859399796e+01
    1.1119763947e+02   -2.1914300919e+01
    1.1129871368e+02   -2.1970300674e+01
    1.1139790344e+02   -2.2025400162e+01
    1.1149706268e+02   -2.2080499649e+01
    1.1159808350e+02   -2.2136699677e+01
    1.1169725037e+02   -2.2191900253e+01
    1.1179760742e+02   -2.2247800827e+01
    1.1189797211e+02   -2.2303800583e+01
    1.1199835968e+02   -2.2359800339e+01
    1.1209877777e+02   -2.2415800095e+01
    1.1219747925e+02   -2.2470899582e+01
    1.1229828644e+02   -2.2527299881e+01
    1.1239727020e+02   -2.2582599640e+01
    1.1249848175e+02   -2.2639200211e+01
    1.1259789276e+02   -2.2694799423e+01
    1.1269734192e+02   -2.2750400543e+01
    1.1279747009e+02   -2.2806400299e+01
    1.1289817810e+02   -2.2862800598e+01
    1.1299735260e+02   -2.2918300629e+01
    1.1309873962e+02   -2.2975000381e+01
    1.1319740295e+02   -2.3030199051e+01
    1.1329843140e+02   -2.3086700439e+01
    1.1339840698e+02   -2.3142499924e+01
    1.1349875641e+02   -2.3198600769e+01
    1.1359818268e+02   -2.3253999710e+01
    1.1369760132e+02   -2.3309499741e+01
    1.1379879761e+02   -2.3365800858e+01
    1.1389765167e+02   -2.3420900345e+01
    1.1399756622e+02   -2.3476400375e+01
    1.1409748840e+02   -2.3531999588e+01
    1.1419740295e+02   -2.3587499619e+01
    1.1429724884e+02   -2.3642999649e+01
    1.1439794922e+02   -2.3698900223e+01
    1.1449765015e+02   -2.3754199982e+01
    1.1459732056e+02   -2.3809600830e+01
    1.1469751740e+02   -2.3865200043e+01
    1.1479696655e+02   -2.3920499802e+01
    1.1489826202e+02   -2.3976699829e+01
    1.1499743652e+02   -2.4031799316e+01
    1.1509806061e+02   -2.4087699890e+01
    1.1519860840e+02   -2.4143699646e+01
    1.1529736328e+02   -2.4198600769e+01
    1.1539785004e+02   -2.4254600525e+01
    1.1549835205e+02   -2.4310600281e+01
    1.1559709167e+02   -2.4365600586e+01
    1.1569792938e+02   -2.4421899796e+01
    1.1579743958e+02   -2.4477500916e+01
    1.1589797211e+02   -2.4533700943e+01
    1.1599764252e+02   -2.4589599609e+01
    1.1609871674e+02   -2.4646200180e+01
    1.1619792175e+02   -2.4701900482e+01
    1.1629714966e+02   -2.4757799149e+01
    1.1639720154e+02   -2.4814100266e+01
    1.1649771118e+02   -2.4870800018e+01
    1.1659803772e+02   -2.4927499771e+01
    1.1669721222e+02   -2.4983600616e+01
    1.1679769135e+02   -2.5040599823e+01
    1.1689814758e+02   -2.5097600937e+01
    1.1699855804e+02   -2.5154699326e+01
    1.1709792328e+02   -2.5211299896e+01
    1.1719700623e+02   -2.5267900467e+01
    1.1729862976e+02   -2.5326000214e+01
    1.1739720154e+02   -2.5382600784e+01
    1.1749748993e+02   -2.5440200806e+01
    1.1759831238e+02   -2.5498300552e+01
    1.1769722748e+02   -2.5555500031e+01
    1.1779850769e+02   -2.5614200592e+01
    1.1789849854e+02   -2.5672300339e+01
    1.1799736786e+02   -2.5729900360e+01
    1.1809806061e+02   -2.5788799286e+01
    1.1819817352e+02   -2.5847499847e+01
    1.1829778290e+02   -2.5906000137e+01
    1.1839755249e+02   -2.5964899063e+01
    1.1849733734e+02   -2.6023899078e+01
    1.1859790039e+02   -2.6083599091e+01
    1.1869867706e+02   -2.6143600464e+01
    1.1879856873e+02   -2.6203199387e+01
    1.1889846802e+02   -2.6263000488e+01
    1.1899741364e+02   -2.6322399139e+01
    1.1909802246e+02   -2.6382999420e+01
    1.1919860077e+02   -2.6443799973e+01
    1.1929830933e+02   -2.6504199982e+01
    1.1939713287e+02   -2.6564199448e+01
    1.1949787903e+02   -2.6625499725e+01
    1.1959867096e+02   -2.6687099457e+01
    1.1969764709e+02   -2.6747699738e+01
    1.1979853821e+02   -2.6809600830e+01
    1.1989759827e+02   -2.6870500565e+01
    1.1999858093e+02   -2.6932699203e+01
    1.2009774780e+02   -2.6993999481e+01
    1.2019822693e+02   -2.7056100845e+01
    1.2029696655e+02   -2.7117300034e+01
    1.2039749908e+02   -2.7179700851e+01
    1.2049803925e+02   -2.7242099762e+01
    1.2059767914e+02   -2.7304199219e+01
    1.2069825745e+02   -2.7366899490e+01
    1.2079708099e+02   -2.7428600311e+01
    1.2089868927e+02   -2.7492099762e+01
    1.2099788666e+02   -2.7554300308e+01
    1.2109703827e+02   -2.7616500854e+01
    1.2119799042e+02   -2.7679899216e+01
    1.2129701996e+02   -2.7742200851e+01
    1.2139788818e+02   -2.7805799484e+01
    1.2149687195e+02   -2.7868200302e+01
    1.2159770203e+02   -2.7931900024e+01
    1.2169763947e+02   -2.7995100021e+01
    1.2179779816e+02   -2.8058500290e+01
    1.2189794159e+02   -2.8121900558e+01
    1.2199812317e+02   -2.8185499191e+01
    1.2209832764e+02   -2.8249000549e+01
    1.2219859314e+02   -2.8312700272e+01
    1.2229724121e+02   -2.8375400543e+01
    1.2239695740e+02   -2.8438800812e+01
    1.2249800110e+02   -2.8503099442e+01
    1.2259725952e+02   -2.8566299438e+01
    1.2269843292e+02   -2.8630699158e+01
    1.2279862976e+02   -2.8694599152e+01
    1.2289742279e+02   -2.8757600784e+01
    1.2299830627e+02   -2.8821899414e+01
    1.2309768677e+02   -2.8885299683e+01
    1.2319831848e+02   -2.8949499130e+01
    1.2329746246e+02   -2.9012699127e+01
    1.2339721680e+02   -2.9076200485e+01
    1.2349736023e+02   -2.9139999390e+01
    1.2359844208e+02   -2.9204399109e+01
    1.2369776917e+02   -2.9267700195e+01
    1.2379708862e+02   -2.9330900192e+01
    1.2389762115e+02   -2.9394800186e+01
    1.2399745178e+02   -2.9458299637e+01
    1.2409728241e+02   -2.9521799088e+01
    1.2419709778e+02   -2.9585300446e+01
    1.2429685974e+02   -2.9648700714e+01
    1.2439842224e+02   -2.9713300705e+01
    1.2449800873e+02   -2.9776599884e+01
    1.2459799957e+02   -2.9840299606e+01
    1.2469785309e+02   -2.9903799057e+01
    1.2479717255e+02   -2.9967100143e+01
    1.2489830780e+02   -3.0031600952e+01
    1.2499832916e+02   -3.0095300674e+01
    1.2509703064e+02   -3.0158300400e+01
    1.2519743347e+02   -3.0222400665e+01
    1.2529778290e+02   -3.0286500931e+01
    1.2539810944e+02   -3.0350700378e+01
    1.2549844360e+02   -3.0414899826e+01
    1.2559703064e+02   -3.0478099823e+01
    1.2569779968e+02   -3.0542800903e+01
    1.2579826355e+02   -3.0607299805e+01
    1.2589691162e+02   -3.0670799255e+01
    1.2599778748e+02   -3.0735799789e+01
    1.2609689331e+02   -3.0799800873e+01
    1.2619783783e+02   -3.0865100861e+01
    1.2629695892e+02   -3.0929300308e+01
    1.2639733887e+02   -3.0994499207e+01
    1.2649861145e+02   -3.1060300827e+01
    1.2659728241e+02   -3.1124599457e+01
    1.2669764709e+02   -3.1190099716e+01
    1.2679801178e+02   -3.1255699158e+01
    1.2689832306e+02   -3.1321500778e+01
    1.2699857330e+02   -3.1387300491e+01
    1.2709752655e+02   -3.1452400208e+01
    1.2719831085e+02   -3.1518899918e+01
    1.2729701996e+02   -3.1584100723e+01
    1.2739717102e+02   -3.1650499344e+01
    1.2749725342e+02   -3.1717100143e+01
    1.2759764862e+02   -3.1784000397e+01
    1.2769821930e+02   -3.1851299286e+01
    1.2779827118e+02   -3.1918399811e+01
    1.2789801788e+02   -3.1985500336e+01
    1.2799717712e+02   -3.2052398682e+01
    1.2809693909e+02   -3.2119899750e+01
    1.2819686890e+02   -3.2187801361e+01
    1.2829693604e+02   -3.2256000519e+01
    1.2839826965e+02   -3.2325298309e+01
    1.2849775696e+02   -3.2393501282e+01
    1.2859786987e+02   -3.2462398529e+01
    1.2869781494e+02   -3.2531299591e+01
    1.2879742432e+02   -3.2600299835e+01
    1.2889707947e+02   -3.2669498444e+01
    1.2899763489e+02   -3.2739601135e+01
    1.2909800720e+02   -3.2809700012e+01
    1.2919848633e+02   -3.2880199432e+01
    1.2929832458e+02   -3.2950401306e+01
    1.2939695740e+02   -3.3020000458e+01
    1.2949751282e+02   -3.3091098785e+01
    1.2959812927e+02   -3.3162498474e+01
    1.2969694519e+02   -3.3232799530e+01
    1.2979766846e+02   -3.3304698944e+01
    1.2989843750e+02   -3.3376800537e+01
    1.2999740601e+02   -3.3447700500e+01
    1.3009817505e+02   -3.3520099640e+01
    1.3019850159e+02   -3.3592300415e+01
    1.3029710388e+02   -3.3663398743e+01
    1.3039749146e+02   -3.3735900879e+01
    1.3049801636e+02   -3.3808700562e+01
    1.3059796143e+02   -3.3881198883e+01
    1.3069842529e+02   -3.3954200745e+01
    1.3079713440e+02   -3.4026100159e+01
    1.3089851379e+02   -3.4099998474e+01
    1.3099760437e+02   -3.4172401428e+01
    1.3109846497e+02   -3.4246299744e+01
    1.3119740295e+02   -3.4318801880e+01
    1.3129817200e+02   -3.4392799377e+01
    1.3139703369e+02   -3.4465599060e+01
    1.3149830627e+02   -3.4540199280e+01
    1.3159712219e+02   -3.4613098145e+01
    1.3169775391e+02   -3.4687400818e+01
    1.3179774475e+02   -3.4761299133e+01
    1.3189770508e+02   -3.4835300446e+01
    1.3199769592e+02   -3.4909400940e+01
    1.3209773254e+02   -3.4983600616e+01
    1.3219781494e+02   -3.5057899475e+01
    1.3229798889e+02   -3.5132301331e+01
    1.3239823914e+02   -3.5206901550e+01
    1.3249871826e+02   -3.5281700134e+01
    1.3259785461e+02   -3.5355499268e+01
    1.3269705200e+02   -3.5429500580e+01
    1.3279879761e+02   -3.5505401611e+01
    1.3289747620e+02   -3.5578998566e+01
    1.3299813843e+02   -3.5654201508e+01
    1.3309741211e+02   -3.5728401184e+01
    1.3319816589e+02   -3.5803699493e+01
    1.3329722595e+02   -3.5877700806e+01
    1.3339811707e+02   -3.5953098297e+01
    1.3349728394e+02   -3.6027198792e+01
    1.3359828186e+02   -3.6102699280e+01
    1.3369750977e+02   -3.6176799774e+01
    1.3379850769e+02   -3.6252300262e+01
    1.3389860535e+02   -3.6327098846e+01
    1.3399833679e+02   -3.6401699066e+01
    1.3409806824e+02   -3.6476200104e+01
    1.3419776917e+02   -3.6550800323e+01
    1.3429739380e+02   -3.6625301361e+01
    1.3439883423e+02   -3.6701301575e+01
    1.3449829102e+02   -3.6775798798e+01
    1.3459724426e+02   -3.6849899292e+01
    1.3469793701e+02   -3.6925498962e+01
    1.3479895020e+02   -3.7001300812e+01
    1.3489804077e+02   -3.7075698853e+01
    1.3499896240e+02   -3.7151500702e+01
    1.3509747314e+02   -3.7225601196e+01
    1.3519767761e+02   -3.7301101685e+01
    1.3529783630e+02   -3.7376598358e+01
    1.3539797974e+02   -3.7452201843e+01
    1.3549812317e+02   -3.7527801514e+01
    1.3559829712e+02   -3.7603599548e+01
    1.3569813538e+02   -3.7679298401e+01
    1.3579899597e+02   -3.7755798340e+01
    1.3589840698e+02   -3.7831401825e+01
    1.3599873352e+02   -3.7907798767e+01
    1.3609773254e+02   -3.7983299255e+01
    1.3619859314e+02   -3.8060398102e+01
    1.3629760742e+02   -3.8136199951e+01
    1.3639851379e+02   -3.8213699341e+01
    1.3649754333e+02   -3.8289798737e+01
    1.3659800720e+02   -3.8367198944e+01
    1.3669827271e+02   -3.8444599152e+01
    1.3679852295e+02   -3.8522201538e+01
    1.3689869690e+02   -3.8599800110e+01
    1.3699880981e+02   -3.8677600861e+01
    1.3709881592e+02   -3.8755500793e+01
    1.3719758606e+02   -3.8832698822e+01
    1.3729801941e+02   -3.8911300659e+01
    1.3739801025e+02   -3.8989799500e+01
    1.3749792480e+02   -3.9068401337e+01
    1.3759912109e+02   -3.9148300171e+01
    1.3769761658e+02   -3.9226299286e+01
    1.3779887390e+02   -3.9306800842e+01
    1.3789840698e+02   -3.9386100769e+01
    1.3799853516e+02   -3.9466098785e+01
    1.3809828186e+02   -3.9546100616e+01
    1.3819859314e+02   -3.9626800537e+01
    1.3829838562e+02   -3.9707298279e+01
    1.3839779663e+02   -3.9787700653e+01
    1.3849752808e+02   -3.9868698120e+01
    1.3859921265e+02   -3.9951400757e+01
    1.3869911194e+02   -4.0033000946e+01
    1.3879913330e+02   -4.0115001678e+01
    1.3889854431e+02   -4.0196701050e+01
    1.3899821472e+02   -4.0278800964e+01
    1.3909834290e+02   -4.0361598969e+01
    1.3919839478e+02   -4.0444599152e+01
    1.3929879761e+02   -4.0528099060e+01
    1.3939909363e+02   -4.0611801147e+01
    1.3949763489e+02   -4.0694301605e+01
    1.3959808350e+02   -4.0778598785e+01
    1.3969857788e+02   -4.0863201141e+01
    1.3979913330e+02   -4.0948001862e+01
    1.3989787292e+02   -4.1031501770e+01
    1.3999853516e+02   -4.1116798401e+01
    1.4009861755e+02   -4.1201801300e+01
    1.4019877625e+02   -4.1286998749e+01
    1.4029896545e+02   -4.1372501373e+01
    1.4039918518e+02   -4.1458099365e+01
    1.4049832153e+02   -4.1542999268e+01
    1.4059921265e+02   -4.1629600525e+01
    1.4069888306e+02   -4.1715198517e+01
    1.4079922485e+02   -4.1801601410e+01
    1.4089775085e+02   -4.1886600494e+01
    1.4099778748e+02   -4.1973098755e+01
    1.4109849548e+02   -4.2060298920e+01
    1.4119914246e+02   -4.2147598267e+01
    1.4129789734e+02   -4.2233398438e+01
    1.4139903259e+02   -4.2321300507e+01
    1.4149909973e+02   -4.2408500671e+01
    1.4159773254e+02   -4.2494499207e+01
    1.4169917297e+02   -4.2583000183e+01
    1.4179899597e+02   -4.2670299530e+01
    1.4189880371e+02   -4.2757598877e+01
    1.4199864197e+02   -4.2845001221e+01
    1.4209851074e+02   -4.2932498932e+01
    1.4219812012e+02   -4.3019901276e+01
    1.4229815674e+02   -4.3107700348e+01
    1.4239828491e+02   -4.3195701599e+01
    1.4249856567e+02   -4.3283901215e+01
    1.4259762573e+02   -4.3370998383e+01
    1.4269860840e+02   -4.3459899902e+01
    1.4279852295e+02   -4.3548000336e+01
    1.4289889526e+02   -4.3636501312e+01
    1.4299926758e+02   -4.3724998474e+01
    1.4309835815e+02   -4.3812500000e+01
    1.4319772339e+02   -4.3900100708e+01
    1.4329808044e+02   -4.3988700867e+01
    1.4339888000e+02   -4.4077701569e+01
    1.4349797058e+02   -4.4165199280e+01
    1.4359884644e+02   -4.4254199982e+01
    1.4369793701e+02   -4.4341800690e+01
    1.4379882812e+02   -4.4430900574e+01
    1.4389926147e+02   -4.4519599915e+01
    1.4399810791e+02   -4.4606899261e+01
    1.4409898376e+02   -4.4696098328e+01
    1.4419931030e+02   -4.4784801483e+01
    1.4429876709e+02   -4.4872798920e+01
    1.4439811707e+02   -4.4960800171e+01
    1.4449926758e+02   -4.5050399780e+01
    1.4459864807e+02   -4.5138500214e+01
    1.4469822693e+02   -4.5226799011e+01
    1.4479902649e+02   -4.5316200256e+01
    1.4489924622e+02   -4.5405200958e+01
    1.4499938965e+02   -4.5494201660e+01
    1.4509942627e+02   -4.5583099365e+01
    1.4519940186e+02   -4.5672100067e+01
    1.4529933167e+02   -4.5761100769e+01
    1.4539923096e+02   -4.5850200653e+01
    1.4549914551e+02   -4.5939399719e+01
    1.4559930420e+02   -4.6028900146e+01
    1.4569804382e+02   -4.6117298126e+01
    1.4579873657e+02   -4.6207500458e+01
    1.4589961243e+02   -4.6298099518e+01
    1.4599937439e+02   -4.6387798309e+01
    1.4609823608e+02   -4.6476898193e+01
    1.4619866943e+02   -4.6567501068e+01
    1.4629942322e+02   -4.6658599854e+01
    1.4639831543e+02   -4.6748100281e+01
    1.4649908447e+02   -4.6839500427e+01
    1.4659799194e+02   -4.6929401398e+01
    1.4669879150e+02   -4.7021198273e+01
    1.4679888916e+02   -4.7112499237e+01
    1.4689892578e+02   -4.7203899384e+01
    1.4699888611e+02   -4.7295501709e+01
    1.4709938049e+02   -4.7387699127e+01
    1.4719799805e+02   -4.7478500366e+01
    1.4729849243e+02   -4.7571201324e+01
    1.4739833069e+02   -4.7663501740e+01
    1.4749807739e+02   -4.7755901337e+01
    1.4759974670e+02   -4.7850399017e+01
    1.4769804382e+02   -4.7942001343e+01
    1.4779809570e+02   -4.8035499573e+01
    1.4789846802e+02   -4.8129501343e+01
    1.4799937439e+02   -4.8224201202e+01
    1.4809841919e+02   -4.8317501068e+01
    1.4819914246e+02   -4.8412601471e+01
    1.4829933167e+02   -4.8507400513e+01
    1.4839822388e+02   -4.8601299286e+01
    1.4849896240e+02   -4.8697101593e+01
    1.4859852600e+02   -4.8792098999e+01
    1.4869816589e+02   -4.8887298584e+01
    1.4879815674e+02   -4.8983200073e+01
    1.4889909363e+02   -4.9080200195e+01
    1.4899835205e+02   -4.9175899506e+01
    1.4909945679e+02   -4.9273601532e+01
    1.4919885254e+02   -4.9369899750e+01
    1.4929849243e+02   -4.9466701508e+01
    1.4939863586e+02   -4.9564201355e+01
    1.4949887085e+02   -4.9661998749e+01
    1.4959916687e+02   -4.9760200500e+01
    1.4969812012e+02   -4.9857200623e+01
    1.4979849243e+02   -4.9955799103e+01
    1.4989892578e+02   -5.0054698944e+01
    1.4999938965e+02   -5.0153800964e+01
    1.5009829712e+02   -5.0251499176e+01
    1.5019825745e+02   -5.0350498199e+01
    1.5029826355e+02   -5.0449600220e+01
    1.5039828491e+02   -5.0548900604e+01
    1.5049995422e+02   -5.0650001526e+01
    1.5059878540e+02   -5.0748500824e+01
    1.5069909668e+02   -5.0848598480e+01
    1.5079925537e+02   -5.0948699951e+01
    1.5089932251e+02   -5.1048801422e+01
    1.5099818420e+02   -5.1147899628e+01
    1.5109866333e+02   -5.1248699188e+01
    1.5119909668e+02   -5.1349601746e+01
    1.5129951477e+02   -5.1450599670e+01
    1.5139901733e+02   -5.1550800323e+01
    1.5149876404e+02   -5.1651199341e+01
    1.5159959412e+02   -5.1752899170e+01
    1.5169984436e+02   -5.1854000092e+01
    1.5179989624e+02   -5.1955001831e+01
    1.5189952087e+02   -5.2055599213e+01
    1.5199917603e+02   -5.2156299591e+01
    1.5209884644e+02   -5.2256999969e+01
    1.5219923401e+02   -5.2358501434e+01
    1.5229946899e+02   -5.2459899902e+01
    1.5239949036e+02   -5.2561100006e+01
    1.5249957275e+02   -5.2662498474e+01
    1.5259854126e+02   -5.2762699127e+01
    1.5269943237e+02   -5.2864898682e+01
    1.5279969788e+02   -5.2966499329e+01
    1.5289997864e+02   -5.3068199158e+01
    1.5299851990e+02   -5.3168098450e+01
    1.5309872437e+02   -5.3269699097e+01
    1.5319984436e+02   -5.3372200012e+01
    1.5329920959e+02   -5.3472900391e+01
    1.5339912415e+02   -5.3574100494e+01
    1.5349986267e+02   -5.3676200867e+01
    1.5359881592e+02   -5.3776401520e+01
    1.5369955444e+02   -5.3878398895e+01
    1.5379852295e+02   -5.3978698730e+01
    1.5389857483e+02   -5.4080001831e+01
    1.5399871826e+02   -5.4181499481e+01
    1.5409942627e+02   -5.4283500671e+01
    1.5420002747e+02   -5.4385398865e+01
    1.5429870605e+02   -5.4485401154e+01
    1.5439967346e+02   -5.4587799072e+01
    1.5449868774e+02   -5.4688201904e+01
    1.5459942627e+02   -5.4790298462e+01
    1.5470001221e+02   -5.4892398834e+01
    1.5479862976e+02   -5.4992401123e+01
    1.5490007019e+02   -5.5095298767e+01
    1.5499981689e+02   -5.5196601868e+01
    1.5509953308e+02   -5.5297798157e+01
    1.5519917297e+02   -5.5398998260e+01
    1.5529881287e+02   -5.5500198364e+01
    1.5540017700e+02   -5.5603298187e+01
    1.5549978638e+02   -5.5704601288e+01
    1.5559854126e+02   -5.5805198669e+01
    1.5569886780e+02   -5.5907501221e+01
    1.5579928589e+02   -5.6009998322e+01
    1.5589926147e+02   -5.6112098694e+01
    1.5600015259e+02   -5.6215400696e+01
    1.5609878540e+02   -5.6316398621e+01
    1.5619888306e+02   -5.6418998718e+01
    1.5629942322e+02   -5.6522300720e+01
    1.5639901733e+02   -5.6624698639e+01
    1.5649957275e+02   -5.6728199005e+01
    1.5660012817e+02   -5.6831901550e+01
    1.5669960022e+02   -5.6934600830e+01
    1.5679946899e+02   -5.7037899017e+01
    1.5689927673e+02   -5.7141201019e+01
    1.5699975586e+02   -5.7245399475e+01
    1.5710000610e+02   -5.7349601746e+01
    1.5720022583e+02   -5.7453899384e+01
    1.5729936218e+02   -5.7557300568e+01
    1.5739894104e+02   -5.7661300659e+01
    1.5750016785e+02   -5.7767299652e+01
    1.5759985352e+02   -5.7871898651e+01
    1.5769972229e+02   -5.7976799011e+01
    1.5779946899e+02   -5.8081901550e+01
    1.5789932251e+02   -5.8187301636e+01
    1.5799990845e+02   -5.8293598175e+01
    1.5810038757e+02   -5.8400001526e+01
    1.5819903564e+02   -5.8504699707e+01
    1.5829937744e+02   -5.8611400604e+01
    1.5839970398e+02   -5.8718200684e+01
    1.5849948120e+02   -5.8824600220e+01
    1.5859875488e+02   -5.8930698395e+01
    1.5869999695e+02   -5.9039100647e+01
    1.5879963684e+02   -5.9145999908e+01
    1.5890040588e+02   -5.9254299164e+01
    1.5899949646e+02   -5.9361000061e+01
    1.5910040283e+02   -5.9469799042e+01
    1.5919964600e+02   -5.9577098846e+01
    1.5930041504e+02   -5.9686199188e+01
    1.5940042114e+02   -5.9794700623e+01
    1.5950050354e+02   -5.9903400421e+01
    1.5959878540e+02   -6.0010398865e+01
    1.5969964600e+02   -6.0120300293e+01
    1.5979895020e+02   -6.0228698730e+01
    1.5989915466e+02   -6.0338199615e+01
    1.5999942017e+02   -6.0447898865e+01
    1.6009928894e+02   -6.0557201385e+01
    1.6019903564e+02   -6.0666599274e+01
    1.6030056763e+02   -6.0777999878e+01
    1.6040034485e+02   -6.0887599945e+01
    1.6050015259e+02   -6.0997299194e+01
    1.6059918213e+02   -6.1106201172e+01
    1.6069966125e+02   -6.1216899872e+01
    1.6079919434e+02   -6.1326599121e+01
    1.6089901733e+02   -6.1436798096e+01
    1.6100047302e+02   -6.1548801422e+01
    1.6110044861e+02   -6.1659198761e+01
    1.6120060730e+02   -6.1769798279e+01
    1.6129887390e+02   -6.1878398895e+01
    1.6139964294e+02   -6.1989799500e+01
    1.6149909973e+02   -6.2099700928e+01
    1.6159985352e+02   -6.2211101532e+01
    1.6169979858e+02   -6.2321498871e+01
    1.6180056763e+02   -6.2432800293e+01
    1.6189993286e+02   -6.2542499542e+01
    1.6199935913e+02   -6.2652301788e+01
    1.6209970093e+02   -6.2763000488e+01
    1.6219989014e+02   -6.2873600006e+01
    1.6230046082e+02   -6.2984500885e+01
    1.6240029907e+02   -6.3094699860e+01
    1.6250030518e+02   -6.3204898834e+01
    1.6259913635e+02   -6.3313899994e+01
    1.6269990540e+02   -6.3424900055e+01
    1.6279925537e+02   -6.3534400940e+01
    1.6289939880e+02   -6.3644699097e+01
    1.6299954224e+02   -6.3754901886e+01
    1.6309906006e+02   -6.3864299774e+01
    1.6319999695e+02   -6.3975299835e+01
    1.6329914856e+02   -6.4084197998e+01
    1.6340025330e+02   -6.4195198059e+01
    1.6349900818e+02   -6.4303497314e+01
    1.6359950256e+02   -6.4413597107e+01
    1.6370002747e+02   -6.4523803711e+01
    1.6380053711e+02   -6.4633796692e+01
    1.6389897156e+02   -6.4741600037e+01
    1.6400007629e+02   -6.4852203369e+01
    1.6410052490e+02   -6.4962097168e+01
    1.6419906616e+02   -6.5069801331e+01
    1.6430018616e+02   -6.5180397034e+01
    1.6440080261e+02   -6.5290298462e+01
    1.6449943542e+02   -6.5398101807e+01
    1.6459977722e+02   -6.5507698059e+01
    1.6469995117e+02   -6.5616996765e+01
    1.6480000305e+02   -6.5726097107e+01
    1.6490023804e+02   -6.5835403442e+01
    1.6499957275e+02   -6.5943702698e+01
    1.6510061646e+02   -6.6053802490e+01
    1.6519987488e+02   -6.6162002563e+01
    1.6529913330e+02   -6.6270202637e+01
    1.6540014648e+02   -6.6380203247e+01
    1.6549943542e+02   -6.6488403320e+01
    1.6560046387e+02   -6.6598602295e+01
    1.6570045471e+02   -6.6707603455e+01
    1.6580056763e+02   -6.6816902161e+01
    1.6590055847e+02   -6.6926101685e+01
    1.6600018311e+02   -6.7035003662e+01
    1.6609979248e+02   -6.7143898010e+01
    1.6619947815e+02   -6.7252998352e+01
    1.6629971313e+02   -6.7362800598e+01
    1.6640066528e+02   -6.7473396301e+01
    1.6649949646e+02   -6.7581802368e+01
    1.6659971619e+02   -6.7691802979e+01
    1.6669927979e+02   -6.7801101685e+01
    1.6680053711e+02   -6.7912399292e+01
    1.6689997864e+02   -6.8021896362e+01
    1.6700096130e+02   -6.8133102417e+01
    1.6710086060e+02   -6.8243202209e+01
    1.6720069885e+02   -6.8353401184e+01
    1.6729995728e+02   -6.8463096619e+01
    1.6740086365e+02   -6.8574699402e+01
    1.6749993896e+02   -6.8684501648e+01
    1.6759956360e+02   -6.8794998169e+01
    1.6770085144e+02   -6.8907501221e+01
    1.6780020142e+02   -6.9017997742e+01
    1.6790029907e+02   -6.9129402161e+01
    1.6800050354e+02   -6.9241096497e+01
    1.6810055542e+02   -6.9352699280e+01
    1.6820056152e+02   -6.9464302063e+01
    1.6830052185e+02   -6.9575996399e+01
    1.6840049744e+02   -6.9687797546e+01
    1.6850025940e+02   -6.9799499512e+01
    1.6860107422e+02   -6.9912399292e+01
    1.6870018005e+02   -7.0023498535e+01
    1.6879945374e+02   -7.0134902954e+01
    1.6890010071e+02   -7.0248001099e+01
    1.6900076294e+02   -7.0361198425e+01
    1.6909976196e+02   -7.0472702026e+01
    1.6920056152e+02   -7.0586303711e+01
    1.6930029297e+02   -7.0698799133e+01
    1.6940011597e+02   -7.0811599731e+01
    1.6950004578e+02   -7.0924499512e+01
    1.6960002136e+02   -7.1037498474e+01
    1.6970097351e+02   -7.1151802063e+01
    1.6980061340e+02   -7.1264503479e+01
    1.6990060425e+02   -7.1377799988e+01
    1.7000045776e+02   -7.1490898132e+01
    1.7009994507e+02   -7.1603599548e+01
    1.7019947815e+02   -7.1716300964e+01
    1.7030076599e+02   -7.1831100464e+01
    1.7040032959e+02   -7.1944000244e+01
    1.7049989319e+02   -7.2056800842e+01
    1.7059947205e+02   -7.2169700623e+01
    1.7069978333e+02   -7.2283401489e+01
    1.7079995728e+02   -7.2397003174e+01
    1.7090005493e+02   -7.2510398865e+01
    1.7099966431e+02   -7.2623298645e+01
    1.7110067749e+02   -7.2737701416e+01
    1.7119995117e+02   -7.2849998474e+01
    1.7129974365e+02   -7.2962799072e+01
    1.7140124512e+02   -7.3077499390e+01
    1.7150038147e+02   -7.3189399719e+01
    1.7159974670e+02   -7.3301399231e+01
    1.7170123291e+02   -7.3415702820e+01
    1.7180087280e+02   -7.3527702332e+01
    1.7190095520e+02   -7.3640098572e+01
    1.7200013733e+02   -7.3751403809e+01
    1.7210115051e+02   -7.3864601135e+01
    1.7220080566e+02   -7.3976097107e+01
    1.7230050659e+02   -7.4087600708e+01
    1.7240040588e+02   -7.4199203491e+01
    1.7250071716e+02   -7.4311203003e+01
    1.7260116577e+02   -7.4423103333e+01
    1.7269982910e+02   -7.4532997131e+01
    1.7279960632e+02   -7.4643997192e+01
    1.7290127563e+02   -7.4756896973e+01
    1.7300115967e+02   -7.4867698669e+01
    1.7310110474e+02   -7.4978500366e+01
    1.7319952393e+02   -7.5087303162e+01
    1.7330021667e+02   -7.5198600769e+01
    1.7340095520e+02   -7.5309799194e+01
    1.7350119019e+02   -7.5420196533e+01
    1.7360131836e+02   -7.5530403137e+01
    1.7369970703e+02   -7.5638603210e+01
    1.7379986572e+02   -7.5748596191e+01
    1.7390002441e+02   -7.5858497620e+01
    1.7399998474e+02   -7.5968002319e+01
    1.7409965515e+02   -7.6077201843e+01
    1.7420127869e+02   -7.6188400269e+01
    1.7429974365e+02   -7.6295997620e+01
    1.7439985657e+02   -7.6405296326e+01
    1.7449986267e+02   -7.6514396667e+01
    1.7459970093e+02   -7.6623199463e+01
    1.7470120239e+02   -7.6733703613e+01
    1.7480075073e+02   -7.6842002869e+01
    1.7489990234e+02   -7.6949699402e+01
    1.7500047302e+02   -7.7058799744e+01
    1.7510101318e+02   -7.7167900085e+01
    1.7519984436e+02   -7.7274902344e+01
    1.7530043030e+02   -7.7383903503e+01
    1.7540037537e+02   -7.7492103577e+01
    1.7550103760e+02   -7.7600997925e+01
    1.7560104370e+02   -7.7709197998e+01
    1.7570066833e+02   -7.7817001343e+01
    1.7580038452e+02   -7.7924896240e+01
    1.7590130615e+02   -7.8033996582e+01
    1.7600056458e+02   -7.8141502380e+01
    1.7609980774e+02   -7.8248901367e+01
    1.7620022583e+02   -7.8357597351e+01
    1.7630006409e+02   -7.8465698242e+01
    1.7640046692e+02   -7.8574401855e+01
    1.7650146484e+02   -7.8683799744e+01
    1.7660067749e+02   -7.8791297913e+01
    1.7670153809e+02   -7.8900596619e+01
    1.7680061340e+02   -7.9007896423e+01
    1.7690138245e+02   -7.9117103577e+01
    1.7700041199e+02   -7.9224502563e+01
    1.7709988403e+02   -7.9332397461e+01
    1.7720109558e+02   -7.9442298889e+01
    1.7730038452e+02   -7.9550102234e+01
    1.7739999390e+02   -7.9658302307e+01
    1.7750027466e+02   -7.9767303467e+01
    1.7760046387e+02   -7.9876197815e+01
    1.7770028687e+02   -7.9984802246e+01
    1.7780094910e+02   -8.0094398499e+01
    1.7790057373e+02   -8.0202796936e+01
    1.7800030518e+02   -8.0311302185e+01
    1.7810163879e+02   -8.0421600342e+01
    1.7820162964e+02   -8.0530403137e+01
    1.7830009460e+02   -8.0637496948e+01
    1.7840043640e+02   -8.0746696472e+01
    1.7850085449e+02   -8.0855903625e+01
    1.7860139465e+02   -8.0965301514e+01
    1.7870027161e+02   -8.1072799683e+01
    1.7880114746e+02   -8.1182601929e+01
    1.7890049744e+02   -8.1290702820e+01
    1.7900099182e+02   -8.1400001526e+01
    1.7910156250e+02   -8.1509399414e+01
    1.7920046997e+02   -8.1617103577e+01
    1.7930047607e+02   -8.1725898743e+01
    1.7940008545e+02   -8.1834297180e+01
    1.7950166321e+02   -8.1944801331e+01
    1.7960142517e+02   -8.2053298950e+01
    1.7970120239e+02   -8.2161697388e+01
    1.7980097961e+02   -8.2270103455e+01
    1.7990074158e+02   -8.2378402710e+01
    1.8000025940e+02   -8.2486396790e+01
    1.8010125732e+02   -8.2595901489e+01
    1.8020056152e+02   -8.2703498840e+01
    1.8030163574e+02   -8.2812896729e+01
    1.8040095520e+02   -8.2920303345e+01
    1.8050030518e+02   -8.3027603149e+01
    1.8060136414e+02   -8.3136703491e+01
    1.8070065308e+02   -8.3243797302e+01
    1.8080049133e+02   -8.3351303101e+01
    1.8090025330e+02   -8.3458602905e+01
    1.8100134277e+02   -8.3567199707e+01
    1.8110032654e+02   -8.3673400879e+01
    1.8120129395e+02   -8.3781501770e+01
    1.8130076599e+02   -8.3887802124e+01
    1.8140022278e+02   -8.3993896484e+01
    1.8150044250e+02   -8.4100502014e+01
    1.8160144043e+02   -8.4207801819e+01
    1.8170085144e+02   -8.4313102722e+01
    1.8180026245e+02   -8.4418197632e+01
    1.8190159607e+02   -8.4525100708e+01
    1.8200042725e+02   -8.4629096985e+01
    1.8210125732e+02   -8.4735000610e+01
    1.8220042419e+02   -8.4838996887e+01
    1.8230140686e+02   -8.4944702148e+01
    1.8240168762e+02   -8.5049400330e+01
    1.8250169373e+02   -8.5153701782e+01
    1.8260180664e+02   -8.5257896423e+01
    1.8270013428e+02   -8.5360000610e+01
    1.8280165100e+02   -8.5465301514e+01
    1.8290122986e+02   -8.5568298340e+01
    1.8300079346e+02   -8.5671096802e+01
    1.8310035706e+02   -8.5773696899e+01
    1.8320144653e+02   -8.5877700806e+01
    1.8330163574e+02   -8.5980499268e+01
    1.8340187073e+02   -8.6083198547e+01
    1.8350024414e+02   -8.6183700562e+01
    1.8360084534e+02   -8.6286399841e+01
    1.8370045471e+02   -8.6387802124e+01
    1.8380180359e+02   -8.6490898132e+01
    1.8390139771e+02   -8.6592002869e+01
    1.8400177002e+02   -8.6693801880e+01
    1.8410136414e+02   -8.6794601440e+01
    1.8420060730e+02   -8.6894897461e+01
    1.8430139160e+02   -8.6996597290e+01
    1.8440098572e+02   -8.7097000122e+01
    1.8450032043e+02   -8.7196899414e+01
    1.8460136414e+02   -8.7298400879e+01
    1.8470042419e+02   -8.7397796631e+01
    1.8480119324e+02   -8.7498703003e+01
    1.8490170288e+02   -8.7599098206e+01
    1.8500169373e+02   -8.7698898315e+01
    1.8510174561e+02   -8.7798698425e+01
    1.8520181274e+02   -8.7898300171e+01
    1.8530197144e+02   -8.7997901917e+01
    1.8540046692e+02   -8.8095802307e+01
    1.8550074768e+02   -8.8195297241e+01
    1.8560037231e+02   -8.8294197083e+01
    1.8570144653e+02   -8.8394401550e+01
    1.8580078125e+02   -8.8492897034e+01
    1.8590202332e+02   -8.8593299866e+01
    1.8600151062e+02   -8.8691902161e+01
    1.8610208130e+02   -8.8791496277e+01
    1.8620091248e+02   -8.8889396667e+01
    1.8630067444e+02   -8.8988098145e+01
    1.8640193176e+02   -8.9088302612e+01
    1.8650190735e+02   -8.9187202454e+01
    1.8660069275e+02   -8.9284896851e+01
    1.8670115662e+02   -8.9384201050e+01
    1.8680154419e+02   -8.9483398438e+01
    1.8690187073e+02   -8.9582496643e+01
    1.8700091553e+02   -8.9680297852e+01
    1.8710177612e+02   -8.9779899597e+01
    1.8720072937e+02   -8.9877502441e+01
    1.8730137634e+02   -8.9976799011e+01
    1.8740162659e+02   -9.0075698853e+01
    1.8750138855e+02   -9.0174003601e+01
    1.8760107422e+02   -9.0272300720e+01
    1.8770191956e+02   -9.0371597290e+01
    1.8780213928e+02   -9.0470199585e+01
    1.8790101624e+02   -9.0567398071e+01
    1.8800210571e+02   -9.0666702271e+01
    1.8810139465e+02   -9.0764198303e+01
    1.8820152283e+02   -9.0862297058e+01
    1.8830158997e+02   -9.0960296631e+01
    1.8840174866e+02   -9.1058197021e+01
    1.8850202942e+02   -9.1156196594e+01
    1.8860061646e+02   -9.1252296448e+01
    1.8870117188e+02   -9.1350402832e+01
    1.8880192566e+02   -9.1448402405e+01
    1.8890098572e+02   -9.1544799805e+01
    1.8900144958e+02   -9.1642402649e+01
    1.8910189819e+02   -9.1739898682e+01
    1.8920065308e+02   -9.1835700989e+01
    1.8930183411e+02   -9.1933700562e+01
    1.8940127563e+02   -9.2029899597e+01
    1.8950077820e+02   -9.2125999451e+01
    1.8960217285e+02   -9.2223800659e+01
    1.8970173645e+02   -9.2319702148e+01
    1.8980128479e+02   -9.2415397644e+01
    1.8990081787e+02   -9.2511001587e+01
    1.9000222778e+02   -9.2608100891e+01
    1.9010121155e+02   -9.2702796936e+01
    1.9020132446e+02   -9.2798301697e+01
    1.9030212402e+02   -9.2894302368e+01
    1.9040119934e+02   -9.2988403320e+01
    1.9050201416e+02   -9.3083999634e+01
    1.9060107422e+02   -9.3177696228e+01
    1.9070179749e+02   -9.3272796631e+01
    1.9080131531e+02   -9.3366500854e+01
    1.9090075684e+02   -9.3459999084e+01
    1.9100195312e+02   -9.3554801941e+01
    1.9110087585e+02   -9.3647201538e+01
    1.9120201111e+02   -9.3741500854e+01
    1.9130122375e+02   -9.3833602905e+01
    1.9140228271e+02   -9.3927200317e+01
    1.9150099182e+02   -9.4018302917e+01
    1.9160234070e+02   -9.4111602783e+01
    1.9170156860e+02   -9.4202598572e+01
    1.9180082703e+02   -9.4293296814e+01
    1.9190197754e+02   -9.4385398865e+01
    1.9200137329e+02   -9.4475700378e+01
    1.9210078430e+02   -9.4565803528e+01
    1.9220150757e+02   -9.4656700134e+01
    1.9230224609e+02   -9.4747497559e+01
    1.9240168762e+02   -9.4836799622e+01
    1.9250134277e+02   -9.4926200867e+01
    1.9260107422e+02   -9.5015296936e+01
    1.9270085144e+02   -9.5104301453e+01
    1.9280160522e+02   -9.5194000244e+01
    1.9290248108e+02   -9.5283500671e+01
    1.9300160217e+02   -9.5371200562e+01
    1.9310244751e+02   -9.5460296631e+01
    1.9320152283e+02   -9.5547599792e+01
    1.9330120850e+02   -9.5635101318e+01
    1.9340083313e+02   -9.5722396851e+01
    1.9350227356e+02   -9.5811096191e+01
    1.9360185242e+02   -9.5897903442e+01
    1.9370146179e+02   -9.5984497070e+01
    1.9380213928e+02   -9.6071899414e+01
    1.9390101624e+02   -9.6157501221e+01
    1.9400152588e+02   -9.6244400024e+01
    1.9410192871e+02   -9.6331001282e+01
    1.9420217896e+02   -9.6417297363e+01
    1.9430226135e+02   -9.6503303528e+01
    1.9440225220e+02   -9.6588996887e+01
[...]
    2.5130453491e+02   -1.0923600006e+02
    2.5140461731e+02   -1.0919000244e+02
    2.5150466919e+02   -1.0914399719e+02
    2.5160473633e+02   -1.0909799957e+02
    2.5170486450e+02   -1.0905200195e+02
    2.5180505371e+02   -1.0900499725e+02
    2.5190525818e+02   -1.0895800018e+02
    2.5200488281e+02   -1.0891200256e+02
    2.5210456848e+02   -1.0886499786e+02
    2.5220599365e+02   -1.0881700134e+02
    2.5230575562e+02   -1.0876899719e+02
    2.5240556335e+02   -1.0872100067e+02
    2.5250544739e+02   -1.0867400360e+02
    2.5260491943e+02   -1.0862599945e+02
    2.5270553589e+02   -1.0857700348e+02
    2.5280612183e+02   -1.0852799988e+02
    2.5290603638e+02   -1.0847899628e+02
    2.5300527954e+02   -1.0843099976e+02
    2.5310557556e+02   -1.0838099670e+02
    2.5320582581e+02   -1.0833200073e+02
    2.5330604553e+02   -1.0828199768e+02
    2.5340449524e+02   -1.0823200226e+02
    2.5350483704e+02   -1.0818099976e+02
    2.5360528564e+02   -1.0812999725e+02
    2.5370582581e+02   -1.0807900238e+02
    2.5380462646e+02   -1.0802799988e+02
    2.5390539551e+02   -1.0797599792e+02
    2.5400549316e+02   -1.0792400360e+02
    2.5410453796e+02   -1.0787200165e+02
    2.5420501709e+02   -1.0781999969e+02
    2.5430531311e+02   -1.0776699829e+02
    2.5440557861e+02   -1.0771399689e+02
    2.5450579834e+02   -1.0766000366e+02
    2.5460580444e+02   -1.0760700226e+02
    2.5470477295e+02   -1.0755300140e+02
    2.5480552673e+02   -1.0749900055e+02
    2.5490625000e+02   -1.0744400024e+02
    2.5500515747e+02   -1.0738999939e+02
    2.5510589600e+02   -1.0733499908e+02
    2.5520585632e+02   -1.0727999878e+02
    2.5530604553e+02   -1.0722399902e+02
    2.5540628052e+02   -1.0716799927e+02
    2.5550482178e+02   -1.0711299896e+02
    2.5560508728e+02   -1.0705599976e+02
    2.5570535278e+02   -1.0700000000e+02
    2.5580560303e+02   -1.0694300079e+02
    2.5590580750e+02   -1.0688600159e+02
    2.5600595093e+02   -1.0682800293e+02
    2.5610491943e+02   -1.0677100372e+02
    2.5620568848e+02   -1.0671299744e+02
    2.5630639648e+02   -1.0665499878e+02
    2.5640518188e+02   -1.0659700012e+02
    2.5650570679e+02   -1.0653900146e+02
    2.5660617065e+02   -1.0648000336e+02
    2.5670474243e+02   -1.0642099762e+02
    2.5680508423e+02   -1.0636199951e+02
    2.5690628052e+02   -1.0630200195e+02
    2.5700588989e+02   -1.0624199677e+02
    2.5710546875e+02   -1.0618299866e+02
    2.5720501709e+02   -1.0612300110e+02
    2.5730502319e+02   -1.0606300354e+02
    2.5740597534e+02   -1.0600199890e+02
    2.5750619507e+02   -1.0594100189e+02
    2.5760641479e+02   -1.0587999725e+02
    2.5770480347e+02   -1.0581999969e+02
    2.5780502319e+02   -1.0575900269e+02
    2.5790524292e+02   -1.0569699860e+02
    2.5800497437e+02   -1.0563600159e+02
    2.5810614014e+02   -1.0557399750e+02
    2.5820553589e+02   -1.0551200104e+02
    2.5830490112e+02   -1.0545099640e+02
    2.5840502930e+02   -1.0538899994e+02
    2.5850512695e+02   -1.0532700348e+02
    2.5860565186e+02   -1.0526399994e+02
    2.5870520020e+02   -1.0520200348e+02
    2.5880648804e+02   -1.0513800049e+02
    2.5890609741e+02   -1.0507499695e+02
    2.5900576782e+02   -1.0501300049e+02
    2.5910607910e+02   -1.0494899750e+02
    2.5920639038e+02   -1.0488600159e+02
    2.5930554199e+02   -1.0482299805e+02
    2.5940512085e+02   -1.0476000214e+02
    2.5950634766e+02   -1.0469599915e+02
    2.5960574341e+02   -1.0463200378e+02
    2.5970495605e+02   -1.0456900024e+02
    2.5980484009e+02   -1.0450499725e+02
    2.5990649414e+02   -1.0443900299e+02
    2.6000628662e+02   -1.0437500000e+02
    2.6010604858e+02   -1.0430999756e+02
    2.6020584106e+02   -1.0424600220e+02
    2.6030569458e+02   -1.0418099976e+02
    2.6040557861e+02   -1.0411499786e+02
    2.6050598145e+02   -1.0405000305e+02
    2.6060537720e+02   -1.0398500061e+02
    2.6070657349e+02   -1.0391799927e+02
    2.6080551147e+02   -1.0385299683e+02
    2.6090588379e+02   -1.0378700256e+02
    2.6100634766e+02   -1.0372000122e+02
    2.6110510254e+02   -1.0365399933e+02
    2.6120571899e+02   -1.0358699799e+02
    2.6130633545e+02   -1.0351999664e+02
    2.6140515137e+02   -1.0345400238e+02
    2.6150573730e+02   -1.0338600159e+02
    2.6160629272e+02   -1.0331900024e+02
    2.6170501709e+02   -1.0325199890e+02
    2.6180566406e+02   -1.0318299866e+02
    2.6190567017e+02   -1.0311499786e+02
    2.6200570679e+02   -1.0304699707e+02
    2.6210574341e+02   -1.0297799683e+02
    2.6220581055e+02   -1.0290899658e+02
    2.6230587769e+02   -1.0283999634e+02
    2.6240600586e+02   -1.0276999664e+02
    2.6250616455e+02   -1.0269999695e+02
    2.6260632324e+02   -1.0262999725e+02
    2.6270526123e+02   -1.0256099701e+02
    2.6280612183e+02   -1.0248999786e+02
    2.6290509033e+02   -1.0241999817e+02
    2.6300585938e+02   -1.0234799957e+02
    2.6310653687e+02   -1.0227600098e+02
    2.6320538330e+02   -1.0220500183e+02
    2.6330627441e+02   -1.0213300323e+02
    2.6340625000e+02   -1.0205999756e+02
    2.6350634766e+02   -1.0198699951e+02
    2.6360534668e+02   -1.0191500092e+02
    2.6370623779e+02   -1.0184100342e+02
    2.6380627441e+02   -1.0176699829e+02
    2.6390661621e+02   -1.0169300079e+02
    2.6400524902e+02   -1.0162000275e+02
    2.6410562134e+02   -1.0154499817e+02
    2.6420599365e+02   -1.0147000122e+02
    2.6430639648e+02   -1.0139399719e+02
    2.6440676880e+02   -1.0131900024e+02
    2.6450540161e+02   -1.0124400330e+02
    2.6460571289e+02   -1.0116799927e+02
    2.6470593262e+02   -1.0109200287e+02
    2.6480529785e+02   -1.0101599884e+02
    2.6490603638e+02   -1.0093900299e+02
    2.6500671387e+02   -1.0086100006e+02
    2.6510687256e+02   -1.0078399658e+02
    2.6520681763e+02   -1.0070600128e+02
    2.6530679321e+02   -1.0062799835e+02
    2.6540676880e+02   -1.0055000305e+02
    2.6550677490e+02   -1.0047200012e+02
    2.6560678101e+02   -1.0039299774e+02
    2.6570678711e+02   -1.0031400299e+02
    2.6580679321e+02   -1.0023500061e+02
    2.6590609741e+02   -1.0015699768e+02
    2.6600677490e+02   -1.0007599640e+02
    2.6610559082e+02   -9.9997703552e+01
    2.6620623779e+02   -9.9917297363e+01
    2.6630685425e+02   -9.9836700439e+01
    2.6640554810e+02   -9.9757400513e+01
    2.6650604248e+02   -9.9676498413e+01
    2.6660641479e+02   -9.9595397949e+01
    2.6670672607e+02   -9.9514198303e+01
    2.6680630493e+02   -9.9433403015e+01
    2.6690579224e+02   -9.9352401733e+01
    2.6700692749e+02   -9.9269996643e+01
    2.6710635376e+02   -9.9188796997e+01
    2.6720574951e+02   -9.9107398987e+01
    2.6730618286e+02   -9.9025001526e+01
    2.6740628052e+02   -9.8942802429e+01
    2.6750637817e+02   -9.8860496521e+01
    2.6760653687e+02   -9.8777999878e+01
    2.6770669556e+02   -9.8695396423e+01
    2.6780688477e+02   -9.8612701416e+01
    2.6790707397e+02   -9.8529800415e+01
    2.6800653076e+02   -9.8447402954e+01
    2.6810601807e+02   -9.8364898682e+01
    2.6820550537e+02   -9.8282203674e+01
    2.6830664062e+02   -9.8197998047e+01
    2.6840603638e+02   -9.8115097046e+01
    2.6850714111e+02   -9.8030601501e+01
    2.6860656738e+02   -9.7947402954e+01
    2.6870605469e+02   -9.7863998413e+01
    2.6880673218e+02   -9.7779403687e+01
    2.6890701294e+02   -9.7694999695e+01
    2.6900552368e+02   -9.7611999512e+01
    2.6910589600e+02   -9.7527198792e+01
    2.6920632935e+02   -9.7442199707e+01
    2.6930676270e+02   -9.7357101440e+01
    2.6940600586e+02   -9.7272796631e+01
    2.6950564575e+02   -9.7188003540e+01
    2.6960693359e+02   -9.7101600647e+01
    2.6970574951e+02   -9.7017196655e+01
    2.6980587769e+02   -9.6931396484e+01
    2.6990600586e+02   -9.6845497131e+01
    2.7000613403e+02   -9.6759201050e+01
    2.7010629272e+02   -9.6672798157e+01
    2.7020645142e+02   -9.6586097717e+01
    2.7030670166e+02   -9.6499099731e+01
    2.7040707397e+02   -9.6411796570e+01
    2.7050616455e+02   -9.6325401306e+01
    2.7060604858e+02   -9.6237998962e+01
    2.7070608521e+02   -9.6150398254e+01
    2.7080615234e+02   -9.6062500000e+01
    2.7090606689e+02   -9.5974502563e+01
    2.7100701904e+02   -9.5885299683e+01
    2.7110614014e+02   -9.5797599792e+01
    2.7120684814e+02   -9.5708198547e+01
    2.7130718994e+02   -9.5618797302e+01
    2.7140576172e+02   -9.5530799866e+01
    2.7150604248e+02   -9.5440902710e+01
    2.7160601807e+02   -9.5350997925e+01
    2.7170697021e+02   -9.5259902954e+01
    2.7180609131e+02   -9.5170196533e+01
    2.7190722656e+02   -9.5078201294e+01
    2.7200582886e+02   -9.4988296509e+01
    2.7210617065e+02   -9.4896400452e+01
    2.7220654297e+02   -9.4804199219e+01
    2.7230691528e+02   -9.4711700439e+01
    2.7240734863e+02   -9.4618698120e+01
    2.7250607300e+02   -9.4527099609e+01
    2.7260650635e+02   -9.4433502197e+01
    2.7270654297e+02   -9.4339996338e+01
    2.7280587769e+02   -9.4246803284e+01
    2.7290704346e+02   -9.4151496887e+01
    2.7300637817e+02   -9.4057701111e+01
    2.7310574341e+02   -9.3963500977e+01
    2.7320712280e+02   -9.3866996765e+01
    2.7330581665e+02   -9.3772697449e+01
    2.7340621948e+02   -9.3676498413e+01
    2.7350662231e+02   -9.3579902649e+01
    2.7360577393e+02   -9.3484199524e+01
    2.7370690918e+02   -9.3386299133e+01
    2.7380621338e+02   -9.3289802551e+01
    2.7390698242e+02   -9.3191703796e+01
    2.7400738525e+02   -9.3093498230e+01
    2.7410604858e+02   -9.2996803284e+01
    2.7420706177e+02   -9.2897598267e+01
    2.7430737305e+02   -9.2798797607e+01
    2.7440600586e+02   -9.2701301575e+01
    2.7450631714e+02   -9.2601997375e+01
    2.7460659790e+02   -9.2502502441e+01
    2.7470675659e+02   -9.2402801514e+01
    2.7480682373e+02   -9.2302902222e+01
    2.7490676880e+02   -9.2203002930e+01
    2.7500711060e+02   -9.2102302551e+01
    2.7510574341e+02   -9.2003097534e+01
    2.7520620728e+02   -9.1901901245e+01
    2.7530667114e+02   -9.1800399780e+01
    2.7540640259e+02   -9.1699401855e+01
    2.7550604248e+02   -9.1598197937e+01
    2.7560595703e+02   -9.1496597290e+01
    2.7570596313e+02   -9.1394699097e+01
    2.7580593872e+02   -9.1292602539e+01
    2.7590698242e+02   -9.1189201355e+01
    2.7600585938e+02   -9.1087898254e+01
    2.7610653687e+02   -9.0984596252e+01
    2.7620718384e+02   -9.0881103516e+01
    2.7630593872e+02   -9.0779296875e+01
    2.7640689087e+02   -9.0675201416e+01
    2.7650665283e+02   -9.0572097778e+01
    2.7660629272e+02   -9.0469001770e+01
    2.7670739746e+02   -9.0364196777e+01
    2.7680761719e+02   -9.0260200500e+01
    2.7690759277e+02   -9.0156196594e+01
    2.7700701904e+02   -9.0052696228e+01
    2.7710647583e+02   -8.9949096680e+01
    2.7720660400e+02   -8.9844497681e+01
    2.7730676270e+02   -8.9739898682e+01
    2.7740695190e+02   -8.9635101318e+01
    2.7750717163e+02   -8.9530097961e+01
    2.7760742188e+02   -8.9425102234e+01
    2.7770767212e+02   -8.9319900513e+01
    2.7780645752e+02   -8.9216102600e+01
    2.7790612793e+02   -8.9111297607e+01
    2.7800744629e+02   -8.9004699707e+01
    2.7810702515e+02   -8.8899696350e+01
    2.7820663452e+02   -8.8794601440e+01
    2.7830621338e+02   -8.8689399719e+01
    2.7840750122e+02   -8.8582199097e+01
    2.7850708008e+02   -8.8476600647e+01
    2.7860644531e+02   -8.8371002197e+01
    2.7870681763e+02   -8.8264198303e+01
    2.7880728149e+02   -8.8157096863e+01
    2.7890606689e+02   -8.8051696777e+01
    2.7900683594e+02   -8.7943901062e+01
    2.7910769653e+02   -8.7835800171e+01
    2.7920675659e+02   -8.7729499817e+01
    2.7930731201e+02   -8.7621398926e+01
    2.7940750122e+02   -8.7513397217e+01
    2.7950765991e+02   -8.7405403137e+01
    2.7960772705e+02   -8.7297203064e+01
    2.7970751953e+02   -8.7189002991e+01
    2.7980642700e+02   -8.7081596375e+01
    2.7990716553e+02   -8.6971900940e+01
    2.8000610352e+02   -8.6863998413e+01
    2.8010690308e+02   -8.6753700256e+01
    2.8020776367e+02   -8.6643096924e+01
    2.8030718994e+02   -8.6533798218e+01
    2.8040750122e+02   -8.6423202515e+01
    2.8050616455e+02   -8.6314102173e+01
    2.8060665894e+02   -8.6202796936e+01
    2.8070718384e+02   -8.6091201782e+01
    2.8080776978e+02   -8.5979202271e+01
    2.8090667725e+02   -8.5868797302e+01
    2.8100686646e+02   -8.5756599426e+01
    2.8110641479e+02   -8.5644996643e+01
    2.8120782471e+02   -8.5530899048e+01
    2.8130776978e+02   -8.5418098450e+01
    2.8140676880e+02   -8.5305999756e+01
    2.8150747681e+02   -8.5191703796e+01
    2.8160784912e+02   -8.5077301025e+01
    2.8170745850e+02   -8.4963500977e+01
    2.8180706787e+02   -8.4849296570e+01
    2.8190707397e+02   -8.4734199524e+01
    2.8200790405e+02   -8.4617897034e+01
    2.8210702515e+02   -8.4503097534e+01
    2.8220788574e+02   -8.4385902405e+01
    2.8230627441e+02   -8.4271301270e+01
    2.8240789795e+02   -8.4152496338e+01
    2.8250769043e+02   -8.4035499573e+01
    2.8260708618e+02   -8.3918601990e+01
    2.8270745850e+02   -8.3800201416e+01
    2.8280725098e+02   -8.3682197571e+01
    2.8290704346e+02   -8.3563903809e+01
    2.8300683594e+02   -8.3445198059e+01
    2.8310787964e+02   -8.3324600220e+01
    2.8320700073e+02   -8.3206100464e+01
    2.8330773926e+02   -8.3085197449e+01
    2.8340667725e+02   -8.2966201782e+01
    2.8350729370e+02   -8.2844902039e+01
    2.8360696411e+02   -8.2724403381e+01
    2.8370635986e+02   -8.2603897095e+01
    2.8380755615e+02   -8.2480903625e+01
    2.8390692139e+02   -8.2359901428e+01
    2.8400735474e+02   -8.2237297058e+01
    2.8410729980e+02   -8.2115097046e+01
    2.8420654297e+02   -8.1993499756e+01
    2.8430712891e+02   -8.1870002747e+01
    2.8440747070e+02   -8.1746597290e+01
    2.8450778198e+02   -8.1623001099e+01
    2.8460803223e+02   -8.1499298096e+01
    2.8470648193e+02   -8.1377601624e+01
    2.8480715942e+02   -8.1252998352e+01
    2.8490789795e+02   -8.1127998352e+01
    2.8500674438e+02   -8.1005203247e+01
    2.8510739136e+02   -8.0879997253e+01
    2.8520806885e+02   -8.0754501343e+01
    2.8530694580e+02   -8.0631103516e+01
    2.8540771484e+02   -8.0505096436e+01
    2.8550656128e+02   -8.0381401062e+01
    2.8560675049e+02   -8.0255699158e+01
    2.8570700073e+02   -8.0129898071e+01
    2.8580722046e+02   -8.0003997803e+01
    2.8590744019e+02   -7.9877899170e+01
    2.8600765991e+02   -7.9751602173e+01
    2.8610757446e+02   -7.9625701904e+01
    2.8620657349e+02   -7.9500701904e+01
    2.8630734253e+02   -7.9373397827e+01
    2.8640774536e+02   -7.9246398926e+01
    2.8650765991e+02   -7.9119903564e+01
    2.8660647583e+02   -7.8994697571e+01
    2.8670693970e+02   -7.8867301941e+01
    2.8680740356e+02   -7.8739700317e+01
    2.8690783691e+02   -7.8611999512e+01
    2.8700677490e+02   -7.8486099243e+01
    2.8710824585e+02   -7.8356903076e+01
    2.8720800781e+02   -7.8229698181e+01
    2.8730780029e+02   -7.8102401733e+01
    2.8740765381e+02   -7.7974899292e+01
    2.8750753784e+02   -7.7847297668e+01
    2.8760812378e+02   -7.7718696594e+01
    2.8770687866e+02   -7.7592300415e+01
    2.8780749512e+02   -7.7463401794e+01
    2.8790814209e+02   -7.7334396362e+01
    2.8800698853e+02   -7.7207603455e+01
    2.8810769653e+02   -7.7078201294e+01
    2.8820663452e+02   -7.6950996399e+01
    2.8830789185e+02   -7.6820602417e+01
    2.8840805054e+02   -7.6691398621e+01
    2.8850830078e+02   -7.6561897278e+01
    2.8860687256e+02   -7.6434303284e+01
    2.8870834351e+02   -7.6302902222e+01
    2.8880773926e+02   -7.6173797607e+01
    2.8890725708e+02   -7.6044403076e+01
    2.8900692749e+02   -7.5914596558e+01
    2.8910668945e+02   -7.5784500122e+01
    2.8920834351e+02   -7.5651702881e+01
    2.8930728149e+02   -7.5522102356e+01
    2.8940820312e+02   -7.5389801025e+01
    2.8950726318e+02   -7.5259597778e+01
    2.8960803223e+02   -7.5126899719e+01
    2.8970700073e+02   -7.4996299744e+01
    2.8980712891e+02   -7.4863899231e+01
    2.8990670776e+02   -7.4732002258e+01
    2.9000814819e+02   -7.4597198486e+01
    2.9010781860e+02   -7.4464500427e+01
    2.9020797729e+02   -7.4330802917e+01
    2.9030715942e+02   -7.4198097229e+01
    2.9040814209e+02   -7.4062698364e+01
    2.9050741577e+02   -7.3929199219e+01
    2.9060845947e+02   -7.3792999268e+01
    2.9070785522e+02   -7.3658798218e+01
    2.9080725098e+02   -7.3524299622e+01
    2.9090744019e+02   -7.3388298035e+01
    2.9100753784e+02   -7.3252197266e+01
    2.9110769653e+02   -7.3115600586e+01
    2.9120794678e+02   -7.2978599548e+01
    2.9130761719e+02   -7.2842102051e+01
    2.9140734863e+02   -7.2705101013e+01
    2.9150714111e+02   -7.2567703247e+01
    2.9160708618e+02   -7.2429702759e+01
    2.9170748901e+02   -7.2290702820e+01
    2.9180792236e+02   -7.2151298523e+01
    2.9190850830e+02   -7.2011199951e+01
    2.9200836182e+02   -7.1871902466e+01
    2.9210818481e+02   -7.1732200623e+01
    2.9220797729e+02   -7.1592102051e+01
    2.9230795288e+02   -7.1451400757e+01
    2.9240832520e+02   -7.1309700012e+01
    2.9250793457e+02   -7.1168899536e+01
    2.9260763550e+02   -7.1027397156e+01
    2.9270733643e+02   -7.0885696411e+01
    2.9280700684e+02   -7.0743698120e+01
    2.9290838623e+02   -7.0598999023e+01
    2.9300793457e+02   -7.0456497192e+01
    2.9310742188e+02   -7.0313796997e+01
    2.9320852661e+02   -7.0168403625e+01
    2.9330776978e+02   -7.0025398254e+01
    2.9340740967e+02   -6.9881599426e+01
    2.9350711060e+02   -6.9737396240e+01
    2.9360861206e+02   -6.9590301514e+01
    2.9370828247e+02   -6.9445602417e+01
    2.9380792236e+02   -6.9300697327e+01
    2.9390765381e+02   -6.9155403137e+01
    2.9400839233e+02   -6.9008499146e+01
    2.9410739136e+02   -6.8863899231e+01
    2.9420809937e+02   -6.8716697693e+01
    2.9430706787e+02   -6.8571899414e+01
    2.9440774536e+02   -6.8424400330e+01
    2.9450839233e+02   -6.8276802063e+01
    2.9460769653e+02   -6.8130996704e+01
    2.9470712280e+02   -6.7984901428e+01
    2.9480834961e+02   -6.7836097717e+01
    2.9490768433e+02   -6.7689903259e+01
    2.9500698853e+02   -6.7543502808e+01
    2.9510812378e+02   -6.7394401550e+01
    2.9520742798e+02   -6.7247802734e+01
    2.9530810547e+02   -6.7098999023e+01
    2.9540863037e+02   -6.6950302124e+01
    2.9550741577e+02   -6.6804100037e+01
    2.9560794067e+02   -6.6655097961e+01
    2.9570849609e+02   -6.6505996704e+01
    2.9580728149e+02   -6.6359397888e+01
    2.9590780640e+02   -6.6210098267e+01
    2.9600772095e+02   -6.6061599731e+01
    2.9610708618e+02   -6.5913803101e+01
    2.9620828247e+02   -6.5763198853e+01
    2.9630758667e+02   -6.5615402222e+01
    2.9640869141e+02   -6.5464698792e+01
    2.9650790405e+02   -6.5316902161e+01
    2.9660705566e+02   -6.5168998718e+01
    2.9670800781e+02   -6.5018302917e+01
    2.9680822754e+02   -6.4868598938e+01
    2.9690847778e+02   -6.4718803406e+01
    2.9700872803e+02   -6.4569000244e+01
    2.9710726929e+02   -6.4421600342e+01
    2.9720758057e+02   -6.4271499634e+01
    2.9730795288e+02   -6.4121200562e+01
    2.9740774536e+02   -6.3971801758e+01
    2.9750711060e+02   -6.3822898865e+01
    2.9760836792e+02   -6.3671100616e+01
    2.9770785522e+02   -6.3521999359e+01
    2.9780743408e+02   -6.3372600555e+01
    2.9790890503e+02   -6.3220298767e+01
    2.9800860596e+02   -6.3070499420e+01
    2.9810836792e+02   -6.2920600891e+01
    2.9820816040e+02   -6.2770401001e+01
    2.9830767822e+02   -6.2620498657e+01
    2.9840878296e+02   -6.2467998505e+01
    2.9850820923e+02   -6.2317901611e+01
    2.9860769653e+02   -6.2167400360e+01
    2.9870898438e+02   -6.2013999939e+01
    2.9880780029e+02   -6.1864101410e+01
    2.9890808105e+02   -6.1711700439e+01
    2.9900845337e+02   -6.1558998108e+01
    2.9910885620e+02   -6.1405899048e+01
    2.9920745850e+02   -6.1255401611e+01
    2.9930780029e+02   -6.1101898193e+01
    2.9940859985e+02   -6.0947498322e+01
    2.9950894165e+02   -6.0793399811e+01
    2.9960821533e+02   -6.0640800476e+01
    2.9970794678e+02   -6.0487201691e+01
    2.9980770874e+02   -6.0333198547e+01
    2.9990747070e+02   -6.0179000854e+01
endcurve
