Curveplot
LS-DYNA keyword deck by LS-PrePost
Abscissa
Ordinate
XY data
CHOP_NASX_mo-1 #pts=3000
* Minval=     0.0000000000e+00 at time=         0.0000000000
* Maxval=     5.0838996887e+01 at time=       177.2010955811
    0.0000000000e+00    0.0000000000e+00
    9.9644668400e-02    1.5577500453e-03
    1.9928933680e-01    3.1154900789e-03
    2.9893401265e-01    4.6732397750e-03
    3.9857867360e-01    6.2309801579e-03
    4.9822333455e-01    7.7887200750e-03
    5.9964740276e-01    9.3742897734e-03
    6.9929206371e-01    1.0932000354e-02
    7.9867684841e-01    1.2485699728e-02
    8.9995086193e-01    1.4068897814e-02
    9.9834614992e-01    1.5607096255e-02
    1.0998604298e+00    1.7194095999e-02
    1.1992453337e+00    1.8747799098e-02
    1.2997497320e+00    2.0318999887e-02
    1.3991347551e+00    2.1872695535e-02
    1.4996393919e+00    2.3443896323e-02
    1.5995938778e+00    2.5006409734e-02
    1.6987783909e+00    2.6557035744e-02
    1.7983825207e+00    2.8114143759e-02
    1.8998765945e+00    2.9700782150e-02
    1.9996119738e+00    3.1259708107e-02
    2.0987780094e+00    3.2809760422e-02
    2.1996326447e+00    3.4386321902e-02
    2.2981371880e+00    3.5926461220e-02
    2.3995006084e+00    3.7511859089e-02
    2.4996550083e+00    3.9078764617e-02
    2.5997002125e+00    4.0643926710e-02
    2.6999650002e+00    4.2211841792e-02
    2.7984685898e+00    4.3751262128e-02
    2.8998689651e+00    4.5334506780e-02
    2.9993793964e+00    4.6887367964e-02
    3.0994019508e+00    4.8447582871e-02
    3.1982393265e+00    4.9989502877e-02
    3.2999813557e+00    5.1577273756e-02
    3.3991782665e+00    5.3126432002e-02
    3.4996979237e+00    5.4697919637e-02
    3.5988793373e+00    5.6250255555e-02
    3.6992003918e+00    5.7822495699e-02
    3.7988593578e+00    5.9386581182e-02
    3.8988263607e+00    6.0957551003e-02
    3.9995431900e+00    6.2542550266e-02
    4.0988116264e+00    6.4106442034e-02
    4.1985211372e+00    6.5678983927e-02
    4.2982501984e+00    6.7252978683e-02
    4.3988957405e+00    6.8842463195e-02
    4.4992995262e+00    7.0428758860e-02
    4.5995016098e+00    7.2012282908e-02
    4.6982326508e+00    7.3572635651e-02
    4.7999510765e+00    7.5179837644e-02
    4.8983483315e+00    7.6734088361e-02
    4.9988532066e+00    7.8320637345e-02
    5.0994668007e+00    7.9907633364e-02
    5.1990876198e+00    8.1477351487e-02
    5.2992548943e+00    8.3053916693e-02
    5.3985223770e+00    8.4614343941e-02
    5.4991283417e+00    8.6193501949e-02
    5.5990543365e+00    8.7759502232e-02
    5.6985406876e+00    8.9316099882e-02
    5.7997145653e+00    9.0896174312e-02
    5.8991079330e+00    9.2445522547e-02
    5.9981293678e+00    9.3986034393e-02
    6.0984897614e+00    9.5544196665e-02
    6.1987595558e+00    9.7097486258e-02
    6.2991209030e+00    9.8648607731e-02
    6.3999624252e+00    1.0020391643e-01
    6.4991149902e+00    1.0172898322e-01
    6.5982871056e+00    1.0325033218e-01
    6.6984486580e+00    1.0478358716e-01
    6.7983894348e+00    1.0630907118e-01
    6.8987689018e+00    1.0783750564e-01
    6.9986882210e+00    1.0935515910e-01
    7.0993790627e+00    1.1088138819e-01
    7.1986408234e+00    1.1238024384e-01
    7.2984724045e+00    1.1388479173e-01
    7.3985238075e+00    1.1538828909e-01
    7.4999151230e+00    1.1690816283e-01
    7.5999469757e+00    1.1840429902e-01
    7.6996512413e+00    1.1989212036e-01
    7.7992854118e+00    1.2137435377e-01
    7.8986787796e+00    1.2284992635e-01
    7.9991712570e+00    1.2433752418e-01
    8.0998630524e+00    1.2582366168e-01
    8.1984853745e+00    1.2727552652e-01
    8.2996377945e+00    1.2876011431e-01
    8.3982439041e+00    1.3020461798e-01
    8.4985017776e+00    1.3166931272e-01
    8.5991115570e+00    1.3313683867e-01
    8.6992826462e+00    1.3459518552e-01
    8.7985725403e+00    1.3603800535e-01
    8.8997306824e+00    1.3750511408e-01
    8.9997901917e+00    1.3895462453e-01
    9.0997190475e+00    1.4039823413e-01
    9.1993360519e+00    1.4183391631e-01
    9.2992801666e+00    1.4327162504e-01
    9.3986368179e+00    1.4469638467e-01
    9.4987831116e+00    1.4612834156e-01
    9.5996103287e+00    1.4756768942e-01
    9.6994476318e+00    1.4898800850e-01
    9.7999267578e+00    1.5041534603e-01
    9.8990697861e+00    1.5182094276e-01
    9.9983463287e+00    1.5322609246e-01
    1.0098764420e+01    1.5710359812e-01
    1.0199291229e+01    1.6102531552e-01
    1.0298808098e+01    1.6490615904e-01
    1.0399515152e+01    1.6883191466e-01
    1.0498553276e+01    1.7269106209e-01
    1.0599480629e+01    1.7662309110e-01
    1.0699219704e+01    1.8050675094e-01
    1.0799749374e+01    1.8442086875e-01
    1.0898918152e+01    1.8828074634e-01
    1.0999976158e+01    1.9221203029e-01
    1.1098901749e+01    1.9605898857e-01
    1.1199955940e+01    1.9998635352e-01
    1.1298659325e+01    2.0382031798e-01
    1.1399050713e+01    2.0771677792e-01
    1.1499440193e+01    2.1161033213e-01
    1.1598249435e+01    2.1543958783e-01
    1.1698875427e+01    2.1933533251e-01
    1.1798378944e+01    2.2318565845e-01
    1.1899182320e+01    2.2708100080e-01
    1.1998335838e+01    2.3091071844e-01
    1.2099510193e+01    2.3481284082e-01
    1.2199143410e+01    2.3865345120e-01
    1.2299744606e+01    2.4252811074e-01
    1.2398460388e+01    2.4632699788e-01
    1.2498364449e+01    2.5016883016e-01
    1.2599061012e+01    2.5403875113e-01
    1.2699979782e+01    2.5791215897e-01
    1.2799487114e+01    2.6172795892e-01
    1.2899122238e+01    2.6554277539e-01
    1.2999505997e+01    2.6938259602e-01
    1.3099875450e+01    2.7321800590e-01
    1.3199023247e+01    2.7700477839e-01
    1.3299539566e+01    2.8084185719e-01
    1.3399533272e+01    2.8465855122e-01
    1.3499732971e+01    2.8848400712e-01
    1.3598946571e+01    2.9227182269e-01
    1.3699939728e+01    2.9613009095e-01
    1.3799702644e+01    2.9994240403e-01
    1.3899205208e+01    3.0374738574e-01
    1.3999148369e+01    3.0757158995e-01
    1.4099313736e+01    3.1140607595e-01
    1.4198269844e+01    3.1519550085e-01
    1.4298382759e+01    3.1902980804e-01
    1.4399828911e+01    3.2291477919e-01
    1.4498350143e+01    3.2668730617e-01
    1.4599529266e+01    3.3055919409e-01
    1.4698245049e+01    3.3433440328e-01
    1.4799729347e+01    3.3821249008e-01
    1.4898662567e+01    3.4199020267e-01
    1.4999084473e+01    3.4582179785e-01
    1.5099720001e+01    3.4965670109e-01
    1.5198350906e+01    3.5341110826e-01
    1.5298517227e+01    3.5721880198e-01
    1.5399540901e+01    3.6105367541e-01
    1.5498674393e+01    3.6481052637e-01
    1.5599384308e+01    3.6862039566e-01
    1.5698990822e+01    3.7238079309e-01
    1.5798612595e+01    3.7613409758e-01
    1.5899548531e+01    3.7992760539e-01
    1.5999652863e+01    3.8368099928e-01
    1.6099533081e+01    3.8741499186e-01
    1.6199302673e+01    3.9113509655e-01
    1.6298414230e+01    3.9482060075e-01
    1.6398687363e+01    3.9853727818e-01
    1.6498300552e+01    4.0221908689e-01
    1.6598442078e+01    4.0590879321e-01
    1.6699703217e+01    4.0962809324e-01
    1.6799314499e+01    4.1327649355e-01
    1.6900022507e+01    4.1695350409e-01
    1.6998470306e+01    4.2053651810e-01
    1.7098567963e+01    4.2416849732e-01
    1.7198905945e+01    4.2779809237e-01
    1.7298345566e+01    4.3138429523e-01
    1.7399736404e+01    4.3502929807e-01
    1.7499460220e+01    4.3860271573e-01
    1.7599563599e+01    4.4217830896e-01
    1.7700019836e+01    4.4575580955e-01
    1.7799631119e+01    4.4929099083e-01
    1.7899240494e+01    4.5281502604e-01
    1.7998786926e+01    4.5632368326e-01
    1.8098701477e+01    4.5983231068e-01
    1.8198375702e+01    4.6331897378e-01
    1.8298400879e+01    4.6680471301e-01
    1.8398958206e+01    4.7029659152e-01
    1.8499059677e+01    4.7375991940e-01
    1.8599334717e+01    4.7721856833e-01
    1.8699607849e+01    4.8066508770e-01
    1.8798980713e+01    4.8407039046e-01
    1.8899435043e+01    4.8750227690e-01
    1.9000022888e+01    4.9092760682e-01
    1.9100019455e+01    4.9432197213e-01
    1.9199048996e+01    4.9767318368e-01
    1.9298425674e+01    5.0102519989e-01
    1.9398422241e+01    5.0438696146e-01
    1.9498443604e+01    5.0773853064e-01
    1.9599842072e+01    5.1112538576e-01
    1.9698564529e+01    5.1441323757e-01
    1.9799581528e+01    5.1776689291e-01
    1.9899705887e+01    5.2108341455e-01
    1.9999288559e+01    5.2437329292e-01
    2.0098697662e+01    5.3030800819e-01
    2.0198348999e+01    5.3626996279e-01
    2.0299779892e+01    5.4233330488e-01
    2.0399959564e+01    5.4831749201e-01
    2.0498212814e+01    5.5418229103e-01
    2.0598485947e+01    5.6016409397e-01
    2.0699329376e+01    5.6617391109e-01
    2.0798984528e+01    5.7210916281e-01
    2.0898744583e+01    5.7804471254e-01
    2.0998222351e+01    5.8395892382e-01
    2.1099475861e+01    5.8997172117e-01
    2.1198196411e+01    5.9582823515e-01
    2.1299110413e+01    6.0180640221e-01
    2.1399915695e+01    6.0777062178e-01
    2.1499967575e+01    6.1368274689e-01
    2.1599319458e+01    6.1954438686e-01
    2.1699476242e+01    6.2544459105e-01
    2.1799100876e+01    6.3130575418e-01
    2.1898920059e+01    6.3716840744e-01
    2.1998298645e+01    6.4299672842e-01
    2.2099454880e+01    6.4891999960e-01
    2.2198722839e+01    6.5472304821e-01
    2.2298189163e+01    6.6052937508e-01
    2.2399984360e+01    6.6646289825e-01
    2.2498773575e+01    6.7221242189e-01
    2.2598884583e+01    6.7802929878e-01
    2.2698997498e+01    6.8383687735e-01
    2.2799680710e+01    6.8966603279e-01
    2.2899301529e+01    6.9542217255e-01
    2.2998918533e+01    7.0116788149e-01
    2.3099033356e+01    7.0693325996e-01
    2.3199619293e+01    7.1271669865e-01
    2.3299268723e+01    7.1843957901e-01
    2.3398923874e+01    7.2415775061e-01
    2.3498786926e+01    7.2988229990e-01
    2.3598436356e+01    7.3559188843e-01
    2.3699888229e+01    7.4140298367e-01
    2.3799098969e+01    7.4708437920e-01
    2.3898399353e+01    7.5276893377e-01
    2.3998563766e+01    7.5850272179e-01
    2.4098733902e+01    7.6423519850e-01
    2.4198814392e+01    7.6996183395e-01
    2.4298492432e+01    7.7566176653e-01
    2.4399940491e+01    7.8145879507e-01
    2.4500019073e+01    7.8717291355e-01
    2.4599746704e+01    7.9286175966e-01
    2.4699777603e+01    7.9855972528e-01
    2.4799495697e+01    8.0423325300e-01
    2.4898862839e+01    8.0987817049e-01
    2.4998836517e+01    8.1554865837e-01
    2.5098476410e+01    8.2119131088e-01
    2.5199890137e+01    8.2692372799e-01
    2.5299737930e+01    8.3255773783e-01
    2.5399740219e+01    8.3818912506e-01
    2.5499414444e+01    8.4378999472e-01
    2.5599195480e+01    8.4938549995e-01
    2.5698812485e+01    8.5495901108e-01
    2.5798421860e+01    8.6051857471e-01
    2.5898353577e+01    8.6608022451e-01
    2.5999998093e+01    8.7172120810e-01
    2.6099861145e+01    8.7724530697e-01
    2.6198402405e+01    8.8268029690e-01
    2.6298484802e+01    8.8818126917e-01
    2.6399028778e+01    8.9368981123e-01
    2.6498607635e+01    8.9912605286e-01
    2.6598625183e+01    9.0456998348e-01
    2.6700000763e+01    9.1005992889e-01
    2.6799594879e+01    9.1544604301e-01
    2.6899187088e+01    9.2081397772e-01
    2.6999986649e+01    9.2622703314e-01
    2.7099403381e+01    9.3154108524e-01
    2.7200050354e+01    9.3690800667e-01
    2.7298809052e+01    9.4215393066e-01
    2.7399587631e+01    9.4748097658e-01
    2.7499704361e+01    9.5275801420e-01
    2.7599781036e+01    9.5801496506e-01
    2.7698648453e+01    9.6318995953e-01
    2.7798448563e+01    9.6838903427e-01
    2.7899450302e+01    9.7362697124e-01
    2.7998519897e+01    9.7874200344e-01
    2.8099842072e+01    9.8395699263e-01
    2.8198944092e+01    9.8902302980e-01
    2.8298927307e+01    9.9411100149e-01
    2.8398981094e+01    9.9918299913e-01
    2.8499391556e+01    1.0042459965e+00
    2.8598966599e+01    1.0092499256e+00
    2.8699089050e+01    1.0142530203e+00
    2.8798662186e+01    1.0192029476e+00
    2.8899751663e+01    1.0242149830e+00
    2.8998718262e+01    1.0291039944e+00
    2.9098787308e+01    1.0340120792e+00
    2.9198768616e+01    1.0389111042e+00
    2.9299558640e+01    1.0438129902e+00
    2.9399633408e+01    1.0486669540e+00
    2.9499403000e+01    1.0534859896e+00
    2.9598318100e+01    1.0582420826e+00
    2.9698682785e+01    1.0630500317e+00
    2.9800003052e+01    1.0678809881e+00
    2.9899883270e+01    1.0726330280e+00
    2.9999998093e+01    1.0773749352e+00
    3.0098602295e+01    1.0879340172e+00
    3.0200019836e+01    1.0987839699e+00
    3.0299659729e+01    1.1094280481e+00
    3.0399171829e+01    1.1200559139e+00
    3.0499309540e+01    1.1307319403e+00
    3.0599008560e+01    1.1413580179e+00
    3.0698991776e+01    1.1520090103e+00
    3.0798641205e+01    1.1626089811e+00
    3.0898929596e+01    1.1732670069e+00
    3.0999063492e+01    1.1839079857e+00
    3.1099655151e+01    1.1945780516e+00
    3.1198608398e+01    1.2050719261e+00
    3.1299425125e+01    1.2157440186e+00
    3.1398771286e+01    1.2262450457e+00
    3.1499235153e+01    1.2368569374e+00
    3.1599344254e+01    1.2474129200e+00
    3.1699052811e+01    1.2579140663e+00
    3.1798660278e+01    1.2683919668e+00
    3.1898815155e+01    1.2789139748e+00
    3.1999830246e+01    1.2895119190e+00
    3.2099437714e+01    1.2999370098e+00
    3.2199039459e+01    1.3103580475e+00
    3.2299148560e+01    1.3208150864e+00
    3.2398601532e+01    1.3311939240e+00
    3.2498691559e+01    1.3416249752e+00
    3.2598789215e+01    1.3520410061e+00
    3.2698886871e+01    1.3624399900e+00
    3.2799327850e+01    1.3728619814e+00
    3.2898925781e+01    1.3831640482e+00
    3.2998516083e+01    1.3934578896e+00
    3.3099620819e+01    1.4038900137e+00
    3.3199100494e+01    1.4141370058e+00
    3.3298751831e+01    1.4243910313e+00
    3.3398422241e+01    1.4346460104e+00
    3.3499736786e+01    1.4450550079e+00
    3.3599079132e+01    1.4552690983e+00
    3.3699657440e+01    1.4656009674e+00
    3.3799346924e+01    1.4758439064e+00
    3.3898883820e+01    1.4860709906e+00
    3.3999065399e+01    1.4963610172e+00
    3.4099254608e+01    1.5066490173e+00
    3.4199443817e+01    1.5169349909e+00
    3.4299869537e+01    1.5272409916e+00
    3.4399551392e+01    1.5374690294e+00
    3.4498828888e+01    1.5476479530e+00
    3.4599037170e+01    1.5579040051e+00
    3.4698753357e+01    1.5680999756e+00
    3.4798881531e+01    1.5783319473e+00
    3.4898456573e+01    1.5884820223e+00
    3.4998504639e+01    1.5986640453e+00
    3.5099002838e+01    1.6088860035e+00
    3.5198608398e+01    1.6189819574e+00
    3.5299983978e+01    1.6292529106e+00
    3.5399642944e+01    1.6393170357e+00
    3.5499847412e+01    1.6494159698e+00
    3.5599723816e+01    1.6594710350e+00
    3.5698516846e+01    1.6693820953e+00
    3.5799869537e+01    1.6795290709e+00
    3.5898952484e+01    1.6894209385e+00
    3.5999000549e+01    1.6993889809e+00
    3.6099060059e+01    1.7093169689e+00
    3.6199333191e+01    1.7192389965e+00
    3.6299373627e+01    1.7291169167e+00
    3.6399482727e+01    1.7389611006e+00
    3.6499809265e+01    1.7487959862e+00
    3.6599678040e+01    1.7585529089e+00
    3.6699234009e+01    1.7682468891e+00
    3.6798789978e+01    1.7779099941e+00
    3.6898342133e+01    1.7875430584e+00
    3.6999279022e+01    1.7972810268e+00
    3.7099315643e+01    1.8068959713e+00
    3.7198692322e+01    1.8164188862e+00
    3.7298439026e+01    1.8259490728e+00
    3.7398315430e+01    1.8354529142e+00
    3.7498409271e+01    1.8449460268e+00
    3.7598438263e+01    1.8543978930e+00
    3.7699916840e+01    1.8639560938e+00
    3.7799449921e+01    1.8732931614e+00
    3.7899845123e+01    1.8826611042e+00
    3.7999843597e+01    1.8919628859e+00
    3.8099109650e+01    1.9011569023e+00
    3.8198932648e+01    1.9103499651e+00
    3.8298389435e+01    1.9194740057e+00
    3.8399608612e+01    1.9287130833e+00
    3.8499282837e+01    1.9377779961e+00
    3.8599353790e+01    1.9468390942e+00
    3.8698871613e+01    1.9558031559e+00
    3.8798389435e+01    1.9647408724e+00
    3.8898651123e+01    1.9737030268e+00
    3.8998657227e+01    1.9826079607e+00
    3.9098667145e+01    1.9914760590e+00
    3.9199176788e+01    2.0003459454e+00
    3.9299110413e+01    2.0091309547e+00
    3.9399120331e+01    2.0178830624e+00
    3.9498504639e+01    2.0265431404e+00
    3.9599822998e+01    2.0353379250e+00
    3.9699127197e+01    2.0439088345e+00
    3.9799213409e+01    2.0525250435e+00
    3.9899280548e+01    2.0611119270e+00
    3.9998928070e+01    2.0696280003e+00
    4.0099857330e+01    2.0860161781e+00
    4.0199478149e+01    2.1022369862e+00
    4.0299098969e+01    2.1184480190e+00
    4.0398353577e+01    2.1345870495e+00
    4.0498481750e+01    2.1508421898e+00
    4.0598518372e+01    2.1670651436e+00
    4.0698715210e+01    2.1833059788e+00
    4.0798355103e+01    2.1994349957e+00
    4.0899299622e+01    2.2157609463e+00
    4.0999423981e+01    2.2319359779e+00
    4.1099540710e+01    2.2480928898e+00
    4.1199337006e+01    2.2641739845e+00
    4.1299434662e+01    2.2802901268e+00
    4.1399658203e+01    2.2963981628e+00
    4.1499214172e+01    2.3123807907e+00
    4.1599300385e+01    2.3284158707e+00
    4.1699085236e+01    2.3443789482e+00
    4.1798656464e+01    2.3602857590e+00
    4.1898746490e+01    2.3762450218e+00
    4.1998840332e+01    2.3921890259e+00
    4.2098407745e+01    2.4080219269e+00
    4.2198299408e+01    2.4238748550e+00
    4.2299823761e+01    2.4399700165e+00
    4.2398780823e+01    2.4556329250e+00
    4.2498844147e+01    2.4714539051e+00
    4.2598911285e+01    2.4872498512e+00
    4.2698986053e+01    2.5030198097e+00
    4.2799537659e+01    2.5188391209e+00
    4.2899108887e+01    2.5344758034e+00
    4.2999004364e+01    2.5501301289e+00
    4.3099079132e+01    2.5657911301e+00
    4.3199871063e+01    2.5815460682e+00
    4.3299522400e+01    2.5971107483e+00
    4.3399192810e+01    2.6126508713e+00
    4.3499748230e+01    2.6283280849e+00
    4.3599456787e+01    2.6438710690e+00
    4.3699169159e+01    2.6594099998e+00
    4.3798877716e+01    2.6749370098e+00
    4.3899314880e+01    2.6905870438e+00
    4.3999515533e+01    2.7061989307e+00
    4.4099723816e+01    2.7217969894e+00
    4.4198036194e+01    2.7371041775e+00
    4.4298381805e+01    2.7527229786e+00
    4.4399837494e+01    2.7685050964e+00
    4.4499328613e+01    2.7839598656e+00
    4.4599395752e+01    2.7994878292e+00
    4.4699516296e+01    2.8150029182e+00
    4.4799629211e+01    2.8304958344e+00
    4.4899730682e+01    2.8459541798e+00
    4.4998546600e+01    2.8612010479e+00
    4.5098140717e+01    2.8765301704e+00
    4.5199497223e+01    2.8920989037e+00
    4.5298046112e+01    2.9072129726e+00
    4.5398090363e+01    2.9225280285e+00
    4.5498126984e+01    2.9377989769e+00
    4.5599277496e+01    2.9532070160e+00
    4.5698810577e+01    2.9683330059e+00
    4.5798332214e+01    2.9834198952e+00
    4.5898017883e+01    2.9984869957e+00
    4.5998008728e+01    3.0135529041e+00
    4.6097988129e+01    3.0285840034e+00
    4.6199428558e+01    3.0437769890e+00
    4.6299407959e+01    3.0587010384e+00
    4.6398120880e+01    3.0733871460e+00
    4.6499397278e+01    3.0884070396e+00
    4.6598899841e+01    3.1031088829e+00
    4.6698402405e+01    3.1177730560e+00
    4.6799678802e+01    3.1326348782e+00
    4.6899173737e+01    3.1472020149e+00
    4.6999542236e+01    3.1618411541e+00
    4.7098857880e+01    3.1762750149e+00
    4.7199291229e+01    3.1908328533e+00
    4.7299266815e+01    3.2052698135e+00
    4.7398078918e+01    3.2194886208e+00
    4.7498756409e+01    3.2339320183e+00
    4.7598289490e+01    3.2481551170e+00
    4.7699813843e+01    3.2626090050e+00
    4.7799278259e+01    3.2767059803e+00
    4.7898590088e+01    3.2907340527e+00
    4.7998500824e+01    3.3047702312e+00
    4.8099559784e+01    3.3189151287e+00
    4.8198963165e+01    3.3327512741e+00
    4.8298854828e+01    3.3465878963e+00
    4.8398754120e+01    3.3603692055e+00
    4.8498462677e+01    3.3740572929e+00
    4.8599662781e+01    3.3878798485e+00
    4.8699085236e+01    3.4014039040e+00
    4.8798507690e+01    3.4148578644e+00
    4.8899772644e+01    3.4285130501e+00
    4.8999694824e+01    3.4419231415e+00
    4.9099620819e+01    3.4552738667e+00
    4.9198139191e+01    3.4683771133e+00
    4.9298316956e+01    3.4816417694e+00
    4.9398250580e+01    3.4948241711e+00
    4.9499446869e+01    3.5081031322e+00
    4.9598911285e+01    3.5210921764e+00
    4.9698387146e+01    3.5340347290e+00
    4.9799617767e+01    3.5471529961e+00
    4.9899623871e+01    3.5600640774e+00
    4.9999660492e+01    3.5729279518e+00
    5.0098098755e+01    3.5949659348e+00
    5.0199462891e+01    3.6176600456e+00
    5.0299053192e+01    3.6399202347e+00
    5.0399291992e+01    3.6623101234e+00
    5.0499393463e+01    3.6846299171e+00
    5.0598949432e+01    3.7067997456e+00
    5.0699668884e+01    3.7292098999e+00
    5.0799289703e+01    3.7513501644e+00
    5.0898181915e+01    3.7733101845e+00
    5.0998275757e+01    3.7954900265e+00
    5.1098358154e+01    3.8176498413e+00
    5.1199668884e+01    3.8400397301e+00
    5.1299720764e+01    3.8621196747e+00
    5.1399772644e+01    3.8841600418e+00
    5.1498275757e+01    3.9058299065e+00
    5.1599540710e+01    3.9280598164e+00
    5.1698398590e+01    3.9497299194e+00
    5.1799694061e+01    3.9718902111e+00
    5.1898193359e+01    3.9934000969e+00
    5.1998561859e+01    4.0152797699e+00
    5.2098068237e+01    4.0369300842e+00
    5.2198875427e+01    4.0588297844e+00
    5.2298877716e+01    4.0805296898e+00
    5.2399234772e+01    4.1022596359e+00
    5.2499244690e+01    4.1238899231e+00
    5.2599269867e+01    4.1454901695e+00
    5.2699302673e+01    4.1670398712e+00
    5.2798126221e+01    4.1882896423e+00
    5.2899436951e+01    4.2100400925e+00
    5.2998062134e+01    4.2311902046e+00
    5.3098098755e+01    4.2525801659e+00
    5.3198863983e+01    4.2741103172e+00
    5.3298503876e+01    4.2953801155e+00
    5.3398166656e+01    4.3166203499e+00
    5.3498939514e+01    4.3380899429e+00
    5.3598873138e+01    4.3593797684e+00
    5.3698589325e+01    4.3805999756e+00
    5.3798301697e+01    4.4018297195e+00
    5.3897865295e+01    4.4230098724e+00
    5.3998069763e+01    4.4443397522e+00
    5.4098285675e+01    4.4656600952e+00
    5.4198505402e+01    4.4869699478e+00
    5.4299053192e+01    4.5083398819e+00
    5.4398735046e+01    4.5295200348e+00
    5.4498657227e+01    4.5507202148e+00
    5.4598705292e+01    4.5719299316e+00
    5.4699481964e+01    4.5932598114e+00
    5.4799552917e+01    4.6143999100e+00
    5.4899612427e+01    4.6355099678e+00
    5.4999595642e+01    4.6565599442e+00
    5.5099143982e+01    4.6774702072e+00
    5.5198669434e+01    4.6983399391e+00
    5.5298175812e+01    4.7191600800e+00
    5.5398063660e+01    4.7400097847e+00
    5.5498039246e+01    4.7608304024e+00
    5.5598033905e+01    4.7816100121e+00
    5.5699287415e+01    4.8025999069e+00
    5.5798744202e+01    4.8231601715e+00
    5.5898166656e+01    4.8436498642e+00
    5.5998081207e+01    4.8641901016e+00
    5.6097984314e+01    4.8846597672e+00
    5.6199676514e+01    4.9054203033e+00
    5.6299579620e+01    4.9257602692e+00
    5.6398529053e+01    4.9458298683e+00
    5.6497966766e+01    4.9659299850e+00
    5.6599174500e+01    4.9863200188e+00
    5.6698612213e+01    5.0062799454e+00
    5.6798046112e+01    5.0261797905e+00
    5.6899253845e+01    5.0463600159e+00
    5.6998672485e+01    5.0661196709e+00
    5.7097915649e+01    5.0857801437e+00
    5.7197814941e+01    5.1055002213e+00
    5.7299598694e+01    5.1255297661e+00
    5.7399082184e+01    5.1450400352e+00
    5.7499126434e+01    5.1645798683e+00
    5.7599010468e+01    5.1840105057e+00
    5.7698562622e+01    5.2033100128e+00
    5.7797931671e+01    5.2224798203e+00
    5.7898361206e+01    5.2417902946e+00
    5.7998157501e+01    5.2608699799e+00
    5.8098327637e+01    5.2799301147e+00
    5.8199378967e+01    5.2990603447e+00
    5.8298610687e+01    5.3177595139e+00
    5.8398380280e+01    5.3364500999e+00
    5.8499187469e+01    5.3552398682e+00
    5.8598491669e+01    5.3736696243e+00
    5.8699565887e+01    5.3923301697e+00
    5.8798862457e+01    5.4105796814e+00
    5.8898887634e+01    5.4288601875e+00
    5.8998683929e+01    5.4470200539e+00
    5.9098491669e+01    5.4650998116e+00
    5.9198341370e+01    5.4830999374e+00
    5.9298294067e+01    5.5010299683e+00
    5.9398117065e+01    5.5188598633e+00
    5.9497962952e+01    5.5366001129e+00
    5.9599109650e+01    5.5544800758e+00
    5.9698490143e+01    5.5719799995e+00
    5.9799648285e+01    5.5896997452e+00
    5.9899570465e+01    5.6071300507e+00
    5.9999534607e+01    5.6245203018e+00
    6.0098567963e+01    5.6527500153e+00
    6.0198093414e+01    5.6811199188e+00
    6.0299407959e+01    5.7099504471e+00
    6.0398609161e+01    5.7381300926e+00
    6.0498657227e+01    5.7665100098e+00
    6.0599182129e+01    5.7950000763e+00
    6.0698760986e+01    5.8231697083e+00
    6.0797878265e+01    5.8511900902e+00
    6.0898948669e+01    5.8797202110e+00
    6.0998996735e+01    5.9079103470e+00
    6.1099029541e+01    5.9360504150e+00
    6.1199272156e+01    5.9642200470e+00
    6.1299041748e+01    5.9921798706e+00
    6.1399021149e+01    6.0201597214e+00
    6.1498992920e+01    6.0480799675e+00
    6.1598953247e+01    6.0759401321e+00
    6.1697956085e+01    6.1034803391e+00
    6.1799171448e+01    6.1315803528e+00
    6.1898597717e+01    6.1591095924e+00
    6.1998027802e+01    6.1865997314e+00
    6.2099235535e+01    6.2145395279e+00
    6.2198211670e+01    6.2418003082e+00
    6.2298141479e+01    6.2692704201e+00
    6.2398086548e+01    6.2967004776e+00
    6.2498031616e+01    6.3240900040e+00
    6.2597999573e+01    6.3514404297e+00
    6.2697975159e+01    6.3787503242e+00
    6.2797863007e+01    6.4059596062e+00
    6.2899108887e+01    6.4334902763e+00
    6.2998905182e+01    6.4605798721e+00
    6.3098896027e+01    6.4876799583e+00
    6.3198524475e+01    6.5146493912e+00
    6.3298133850e+01    6.5415701866e+00
    6.3399559021e+01    6.5689506531e+00
    6.3498779297e+01    6.5957198143e+00
    6.3598480225e+01    6.6226005554e+00
    6.3698188782e+01    6.6494798660e+00
    6.3797893524e+01    6.6763601303e+00
    6.3898326874e+01    6.7034196854e+00
    6.3998527527e+01    6.7304201126e+00
    6.4098731995e+01    6.7574100494e+00
    6.4198936462e+01    6.7844004631e+00
    6.4298355103e+01    6.8111596107e+00
    6.4398010254e+01    6.8379602432e+00
    6.4498008728e+01    6.8648200035e+00
    6.4598266602e+01    6.8917198181e+00
    6.4699348450e+01    6.9187898636e+00
    6.4799369812e+01    6.9455399513e+00
    6.4899368286e+01    6.9722404480e+00
    6.4998397827e+01    6.9986095428e+00
    6.5097877502e+01    7.0250597000e+00
    6.5199111938e+01    7.0519099236e+00
    6.5298538208e+01    7.0782198906e+00
    6.5399162292e+01    7.1047897339e+00
    6.5499061584e+01    7.1311206818e+00
    6.5599525452e+01    7.1575098038e+00
    6.5698921204e+01    7.1835699081e+00
    6.5798294067e+01    7.2095403671e+00
    6.5897834778e+01    7.2354698181e+00
    6.5999557495e+01    7.2619495392e+00
    6.6098937988e+01    7.2877001762e+00
    6.6199455261e+01    7.3136005402e+00
    6.6299278259e+01    7.3393096924e+00
    6.6399482727e+01    7.3649702072e+00
    6.6498840332e+01    7.3903799057e+00
    6.6598190308e+01    7.4156899452e+00
    6.6699317932e+01    7.4413394928e+00
    6.6798683167e+01    7.4664802551e+00
    6.6898033142e+01    7.4914407730e+00
    6.6999145508e+01    7.5168299675e+00
    6.7099243164e+01    7.5418996811e+00
    6.7198074341e+01    7.5665998459e+00
    6.7298454285e+01    7.5915503502e+00
    6.7399185181e+01    7.6164493561e+00
    6.7497909546e+01    7.6407899857e+00
    6.7597702026e+01    7.6653704643e+00
    6.7699356079e+01    7.6902203560e+00
    6.7798828125e+01    7.7145400047e+00
    6.7897789001e+01    7.7385301590e+00
    6.7999328613e+01    7.7630500793e+00
    6.8098121643e+01    7.7867202759e+00
    6.8199020386e+01    7.8108005524e+00
    6.8297653198e+01    7.8342394829e+00
    6.8399147034e+01    7.8582401276e+00
    6.8498237610e+01    7.8814396858e+00
    6.8599159241e+01    7.9049901962e+00
    6.8698303223e+01    7.9280300140e+00
    6.8799217224e+01    7.9514298439e+00
    6.8899200439e+01    7.9743900299e+00
    6.8998847961e+01    7.9971804619e+00
    6.9098510742e+01    8.0198602676e+00
    6.9197891235e+01    8.0423793793e+00
    6.9299468994e+01    8.0652599335e+00
    6.9399154663e+01    8.0875797272e+00
    6.9497993469e+01    8.1096506119e+00
    6.9599014282e+01    8.1319894791e+00
    6.9698280334e+01    8.1539497375e+00
    6.9798995972e+01    8.1760406494e+00
    6.9898811340e+01    8.1979007721e+00
    6.9998680115e+01    8.2196598053e+00
    7.0097732544e+01    8.2519998550e+00
    7.0198951721e+01    8.2851409912e+00
    7.0298408508e+01    8.3175697327e+00
    7.0398422241e+01    8.3502206802e+00
    7.0498405457e+01    8.3827304840e+00
    7.0597740173e+01    8.4150104523e+00
    7.0699028015e+01    8.4478397369e+00
    7.0797859192e+01    8.4799194336e+00
    7.0897842407e+01    8.5122203827e+00
    7.0997810364e+01    8.5444602966e+00
    7.1097755432e+01    8.5766496658e+00
    7.1197677612e+01    8.6087703705e+00
    7.1299461365e+01    8.6414499283e+00
    7.1399353027e+01    8.6734399796e+00
    7.1499229431e+01    8.7053604126e+00
    7.1598777771e+01    8.7370700836e+00
    7.1698143005e+01    8.7686405182e+00
    7.1799255371e+01    8.8007698059e+00
    7.1898574829e+01    8.8320999146e+00
    7.1997894287e+01    8.8634700775e+00
    7.2098999023e+01    8.8953905106e+00
    7.2199409485e+01    8.9268798828e+00
    7.2299255371e+01    8.9582405090e+00
    7.2399116516e+01    8.9895401001e+00
    7.2498985291e+01    9.0206699371e+00
    7.2598876953e+01    9.0518398285e+00
    7.2698783875e+01    9.0829505920e+00
    7.2797836304e+01    9.1137704849e+00
    7.2899009705e+01    9.1450691223e+00
    7.2998962402e+01    9.1760797501e+00
    7.3098884583e+01    9.2069301605e+00
    7.3198463440e+01    9.2376098633e+00
    7.3298019409e+01    9.2682495117e+00
    7.3397613525e+01    9.2988500595e+00
    7.3499336243e+01    9.3301696777e+00
    7.3598999023e+01    9.3607196808e+00
    7.3698661804e+01    9.3913497925e+00
    7.3798332214e+01    9.4219799042e+00
    7.3898399353e+01    9.4527101517e+00
    7.3998565674e+01    9.4834194183e+00
    7.4098731995e+01    9.5141296387e+00
    7.4198890686e+01    9.5449199677e+00
    7.4299026489e+01    9.5756006241e+00
    7.4397735596e+01    9.6058702469e+00
    7.4497787476e+01    9.6364002228e+00
    7.4598960876e+01    9.6673507690e+00
    7.4698753357e+01    9.6977500916e+00
    7.4798683167e+01    9.7281589508e+00
    7.4898597717e+01    9.7585105896e+00
    7.4999420166e+01    9.7891006470e+00
    7.5098808289e+01    9.8191299438e+00
    7.5198173523e+01    9.8492002487e+00
    7.5299278259e+01    9.8796100616e+00
    7.5398597717e+01    9.9094390869e+00
    7.5498970032e+01    9.9394702911e+00
    7.5599334717e+01    9.9694099426e+00
    7.5698646545e+01    9.9990196228e+00
    7.5798484802e+01    1.0028730392e+01
    7.5898513794e+01    1.0058400154e+01
    7.5998268127e+01    1.0087849617e+01
    7.6098014832e+01    1.0117199898e+01
    7.6197547913e+01    1.0146400452e+01
    7.6299171448e+01    1.0176120758e+01
    7.6398399353e+01    1.0204990387e+01
    7.6497673035e+01    1.0233850479e+01
    7.6598724365e+01    1.0263080597e+01
    7.6697998047e+01    1.0291729927e+01
    7.6799057007e+01    1.0320759773e+01
    7.6898330688e+01    1.0349109650e+01
    7.6999366760e+01    1.0377950668e+01
    7.7098609924e+01    1.0406209946e+01
    7.7198585510e+01    1.0434509277e+01
    7.7297973633e+01    1.0462539673e+01
    7.7398368835e+01    1.0490829468e+01
    7.7498069763e+01    1.0518770218e+01
    7.7597747803e+01    1.0546510696e+01
    7.7699287415e+01    1.0574760437e+01
    7.7798950195e+01    1.0602350235e+01
    7.7897987366e+01    1.0629550934e+01
    7.7999374390e+01    1.0657320023e+01
    7.8099342346e+01    1.0684479713e+01
    7.8198303223e+01    1.0711240768e+01
    7.8298873901e+01    1.0738329887e+01
    7.8398307800e+01    1.0764850616e+01
    7.8497680664e+01    1.0791219711e+01
    7.8598411560e+01    1.0817779541e+01
    7.8699142456e+01    1.0844280243e+01
    7.8798110962e+01    1.0870090485e+01
    7.8898254395e+01    1.0896050453e+01
    7.8998191833e+01    1.0921820641e+01
    7.9097694397e+01    1.0947349548e+01
    7.9198348999e+01    1.0973030090e+01
    7.9298652649e+01    1.0998458862e+01
    7.9398185730e+01    1.1023550034e+01
    7.9497749329e+01    1.1048490524e+01
    7.9597496033e+01    1.1073339462e+01
    7.9698616028e+01    1.1098480225e+01
    7.9798095703e+01    1.1122928619e+01
    7.9897773743e+01    1.1147420883e+01
    7.9997497559e+01    1.1171779633e+01
    8.0097618103e+01    1.1207618713e+01
    8.0198715210e+01    1.1243990898e+01
    8.0298057556e+01    1.1279680252e+01
    8.0399185181e+01    1.1315878868e+01
    8.0498634338e+01    1.1351389885e+01
    8.0598983765e+01    1.1387281418e+01
    8.0698387146e+01    1.1422669411e+01
    8.0797767639e+01    1.1458009720e+01
    8.0897644043e+01    1.1493440628e+01
    8.0997505188e+01    1.1528799057e+01
    8.1099220276e+01    1.1564741135e+01
    8.1199020386e+01    1.1599959373e+01
    8.1298789978e+01    1.1635009766e+01
    8.1398551941e+01    1.1670061111e+01
    8.1498306274e+01    1.1704929352e+01
    8.1598045349e+01    1.1739700317e+01
    8.1697723389e+01    1.1774400711e+01
    8.1798698425e+01    1.1809519768e+01
    8.1897895813e+01    1.1843790054e+01
    8.1998870850e+01    1.1878728867e+01
    8.2098083496e+01    1.1912830353e+01
    8.2199073792e+01    1.1947608948e+01
    8.2298812866e+01    1.1981790543e+01
    8.2398567200e+01    1.2016010284e+01
    8.2498344421e+01    1.2050050735e+01
    8.2598152161e+01    1.2084119797e+01
    8.2697975159e+01    1.2118120193e+01
    8.2798156738e+01    1.2152139664e+01
    8.2899246216e+01    1.2186410904e+01
    8.2999229431e+01    1.2220250130e+01
    8.3099082947e+01    1.2253970146e+01
    8.3198158264e+01    1.2287380219e+01
    8.3297653198e+01    1.2320819855e+01
    8.3398971558e+01    1.2354969025e+01
    8.3498863220e+01    1.2388540268e+01
    8.3598464966e+01    1.2422080994e+01
    8.3698081970e+01    1.2455500603e+01
    8.3797691345e+01    1.2489029884e+01
    8.3898269653e+01    1.2522770882e+01
    8.3998374939e+01    1.2556449890e+01
    8.4098472595e+01    1.2590129852e+01
    8.4198562622e+01    1.2623699188e+01
    8.4298629761e+01    1.2657360077e+01
    8.4398223877e+01    1.2690740585e+01
    8.4498199463e+01    1.2724269867e+01
    8.4598838806e+01    1.2757949829e+01
    8.4697959900e+01    1.2791040421e+01
    8.4797782898e+01    1.2824340820e+01
    8.4897583008e+01    1.2857589722e+01
    8.4998168945e+01    1.2890918732e+01
    8.5099212646e+01    1.2924421310e+01
    8.5198448181e+01    1.2957210541e+01
    8.5297653198e+01    1.2989919662e+01
    8.5398628235e+01    1.3023110390e+01
    8.5497817993e+01    1.3055660248e+01
    8.5597671509e+01    1.3088330269e+01
    8.5697830200e+01    1.3121021271e+01
    8.5798851013e+01    1.3153940201e+01
    8.5898101807e+01    1.3186130524e+01
    8.5997756958e+01    1.3218299866e+01
    8.6097404480e+01    1.3250469208e+01
    8.6198921204e+01    1.3283130646e+01
    8.6298568726e+01    1.3315069199e+01
    8.6397811890e+01    1.3346740723e+01
    8.6498756409e+01    1.3378839493e+01
    8.6598701477e+01    1.3410459518e+01
    8.6697883606e+01    1.3441808701e+01
    8.6798843384e+01    1.3473569870e+01
    8.6898025513e+01    1.3504709244e+01
    8.6998954773e+01    1.3536269188e+01
    8.7098098755e+01    1.3567110062e+01
    8.7198715210e+01    1.3598360062e+01
    8.7298324585e+01    1.3629229546e+01
    8.7397842407e+01    1.3659918785e+01
    8.7499237061e+01    1.3691070557e+01
    8.7598785400e+01    1.3721500397e+01
    8.7698303223e+01    1.3751811028e+01
    8.7798484802e+01    1.3782149315e+01
    8.7899139404e+01    1.3812458992e+01
    8.7998481750e+01    1.3842249870e+01
    8.8097717285e+01    1.3871799469e+01
    8.8198265076e+01    1.3901510239e+01
    8.8298553467e+01    1.3931020737e+01
    8.8399017334e+01    1.3960369110e+01
    8.8498985291e+01    1.3989410400e+01
    8.8597755432e+01    1.4017890930e+01
    8.8698303223e+01    1.4046659470e+01
    8.8798858643e+01    1.4075340271e+01
    8.8897850037e+01    1.4103309631e+01
    8.8998176575e+01    1.4131629944e+01
    8.9097503662e+01    1.4159339905e+01
    8.9199203491e+01    1.4187620163e+01
    8.9299118042e+01    1.4215169907e+01
    8.9398475647e+01    1.4242461205e+01
    8.9497886658e+01    1.4269670486e+01
    8.9599197388e+01    1.4297109604e+01
    8.9698600769e+01    1.4323910713e+01
    8.9797599792e+01    1.4350501060e+01
    8.9899002075e+01    1.4377550125e+01
    8.9998573303e+01    1.4403950691e+01
    9.0098762512e+01    1.4444799423e+01
    9.0197937012e+01    1.4485230446e+01
    9.0298896790e+01    1.4526380539e+01
    9.0398101807e+01    1.4566699028e+01
    9.0499107361e+01    1.4607760429e+01
    9.0597793579e+01    1.4647720337e+01
    9.0698822021e+01    1.4688509941e+01
    9.0797828674e+01    1.4728489876e+01
    9.0897560120e+01    1.4768620491e+01
    9.0999145508e+01    1.4809450150e+01
    9.1098815918e+01    1.4849420547e+01
    9.1198455811e+01    1.4889220238e+01
    9.1298057556e+01    1.4928919792e+01
    9.1397651672e+01    1.4968529701e+01
    9.1499107361e+01    1.5008790970e+01
    9.1598678589e+01    1.5048180580e+01
    9.1699058533e+01    1.5087840080e+01
    9.1798103333e+01    1.5126719475e+01
    9.1898902893e+01    1.5166300774e+01
    9.1997955322e+01    1.5205080032e+01
    9.2098793030e+01    1.5244468689e+01
    9.2197875977e+01    1.5283060074e+01
    9.2297485352e+01    1.5321769714e+01
    9.2399002075e+01    1.5361249924e+01
    9.2498672485e+01    1.5399799347e+01
    9.2598381042e+01    1.5438369751e+01
    9.2698112488e+01    1.5477000237e+01
    9.2797966003e+01    1.5515399933e+01
    9.2898956299e+01    1.5554300308e+01
    9.2998619080e+01    1.5592600822e+01
    9.3098381042e+01    1.5630799294e+01
    9.3198036194e+01    1.5669000626e+01
    9.3297462463e+01    1.5707098961e+01
    9.3398727417e+01    1.5745799065e+01
    9.3498016357e+01    1.5783801079e+01
    9.3597572327e+01    1.5821699142e+01
    9.3698913574e+01    1.5860501289e+01
    9.3798469543e+01    1.5898600578e+01
    9.3898223877e+01    1.5936800957e+01
    9.3998268127e+01    1.5975099564e+01
    9.4098312378e+01    1.6013401031e+01
    9.4198333740e+01    1.6051799774e+01
    9.4298332214e+01    1.6090000153e+01
    9.4397636414e+01    1.6128101349e+01
    9.4497520447e+01    1.6166200638e+01
    9.4597846985e+01    1.6204601288e+01
    9.4698738098e+01    1.6243000031e+01
    9.4798446655e+01    1.6281101227e+01
    9.4898117065e+01    1.6318899155e+01
    9.4999114990e+01    1.6357200623e+01
    9.5098251343e+01    1.6394800186e+01
    9.5199104309e+01    1.6432800293e+01
    9.5298164368e+01    1.6470100403e+01
    9.5398979187e+01    1.6508098602e+01
    9.5498023987e+01    1.6545200348e+01
    9.5598831177e+01    1.6582901001e+01
    9.5698951721e+01    1.6620300293e+01
    9.5798278809e+01    1.6657199860e+01
    9.5898300171e+01    1.6694299698e+01
    9.5997817993e+01    1.6731199265e+01
    9.6097335815e+01    1.6767900467e+01
    9.6198722839e+01    1.6805200577e+01
    9.6298248291e+01    1.6841699600e+01
    9.6397819519e+01    1.6878101349e+01
    9.6497848511e+01    1.6914499283e+01
    9.6598602295e+01    1.6951099396e+01
    9.6697647095e+01    1.6986900330e+01
    9.6798469543e+01    1.7023300171e+01
    9.6897514343e+01    1.7058799744e+01
    9.6998298645e+01    1.7095001221e+01
    9.7099067688e+01    1.7130901337e+01
    9.7197769165e+01    1.7166099548e+01
    9.7297233582e+01    1.7201400757e+01
    9.7398735046e+01    1.7237300873e+01
    9.7498657227e+01    1.7272499084e+01
    9.7598045349e+01    1.7307300568e+01
    9.7697395325e+01    1.7341899872e+01
    9.7798263550e+01    1.7376998901e+01
    9.7898178101e+01    1.7411499023e+01
    9.7997314453e+01    1.7445600510e+01
    9.8098434448e+01    1.7480098724e+01
    9.8197769165e+01    1.7513797760e+01
    9.8298843384e+01    1.7547901154e+01
    9.8397392273e+01    1.7580902100e+01
    9.8497711182e+01    1.7614299774e+01
    9.8598037720e+01    1.7647499084e+01
    9.8698379517e+01    1.7680400848e+01
    9.8798736572e+01    1.7713199615e+01
    9.8897354126e+01    1.7745098114e+01
    9.8998611450e+01    1.7777698517e+01
    9.9097320557e+01    1.7809400558e+01
    9.9197753906e+01    1.7841400146e+01
    9.9298713684e+01    1.7873298645e+01
    9.9397895813e+01    1.7904499054e+01
    9.9499000549e+01    1.7936100006e+01
    9.9598274231e+01    1.7966999054e+01
    9.9698577881e+01    1.7998100281e+01
    9.9798080444e+01    1.8028598785e+01
    9.9898994446e+01    1.8059499741e+01
    9.9998397827e+01    1.8089599609e+01
    1.0009864044e+02    1.8137397766e+01
    1.0019763947e+02    1.8184600830e+01
    1.0029843903e+02    1.8232601166e+01
    1.0039749146e+02    1.8279701233e+01
    1.0049832153e+02    1.8327499390e+01
    1.0059783936e+02    1.8374599457e+01
    1.0069870758e+02    1.8422199249e+01
    1.0079844666e+02    1.8469202042e+01
    1.0089800262e+02    1.8515998840e+01
    1.0099752808e+02    1.8562801361e+01
    1.0109889984e+02    1.8610198975e+01
    1.0119834137e+02    1.8656698227e+01
    1.0129775238e+02    1.8703001022e+01
    1.0139901733e+02    1.8750000000e+01
    1.0149839783e+02    1.8795999527e+01
    1.0159777069e+02    1.8841899872e+01
    1.0169760895e+02    1.8887897491e+01
    1.0179821014e+02    1.8934099197e+01
    1.0189880371e+02    1.8980199814e+01
    1.0199764252e+02    1.9025400162e+01
    1.0209828186e+02    1.9071300507e+01
    1.0219893646e+02    1.9117000580e+01
    1.0229785156e+02    1.9161998749e+01
    1.0239732361e+02    1.9206996918e+01
    1.0249871826e+02    1.9252899170e+01
    1.0259828186e+02    1.9297901154e+01
    1.0269788361e+02    1.9342800140e+01
    1.0279750824e+02    1.9387699127e+01
    1.0289836884e+02    1.9433097839e+01
    1.0299790192e+02    1.9477600098e+01
    1.0309754944e+02    1.9522300720e+01
    1.0319786835e+02    1.9567298889e+01
    1.0329721832e+02    1.9611799240e+01
    1.0339840698e+02    1.9657001495e+01
    1.0349829102e+02    1.9701599121e+01
    1.0359779358e+02    1.9746200562e+01
    1.0369728851e+02    1.9790699005e+01
    1.0379856873e+02    1.9836097717e+01
    1.0389771271e+02    1.9880498886e+01
    1.0399770355e+02    1.9925401688e+01
    1.0409767914e+02    1.9970199585e+01
    1.0419764709e+02    2.0015102386e+01
    1.0429756927e+02    2.0059900284e+01
    1.0439813232e+02    2.0105102539e+01
    1.0449791718e+02    2.0149902344e+01
    1.0459780121e+02    2.0194599152e+01
    1.0469799805e+02    2.0239500046e+01
    1.0479757690e+02    2.0284000397e+01
    1.0489711761e+02    2.0328498840e+01
    1.0499809265e+02    2.0373401642e+01
    1.0509884644e+02    2.0418201447e+01
    1.0519777679e+02    2.0461999893e+01
    1.0529844666e+02    2.0506500244e+01
    1.0539733887e+02    2.0550199509e+01
    1.0549799347e+02    2.0594501495e+01
    1.0559864807e+02    2.0638801575e+01
    1.0569843292e+02    2.0682500839e+01
    1.0579721069e+02    2.0725700378e+01
    1.0589787292e+02    2.0769599915e+01
    1.0599835205e+02    2.0813299179e+01
    1.0609770203e+02    2.0856401443e+01
    1.0619892883e+02    2.0900201797e+01
    1.0629830933e+02    2.0943099976e+01
    1.0639795685e+02    2.0985801697e+01
    1.0649761963e+02    2.1028497696e+01
    1.0659877777e+02    2.1071798325e+01
    1.0669853973e+02    2.1114202499e+01
    1.0679743195e+02    2.1156101227e+01
    1.0689806366e+02    2.1198701859e+01
    1.0699865723e+02    2.1240999222e+01
    1.0709877014e+02    2.1282999039e+01
    1.0719803619e+02    2.1324499130e+01
    1.0729885864e+02    2.1366498947e+01
    1.0739763641e+02    2.1407598495e+01
    1.0749868774e+02    2.1449399948e+01
    1.0759786987e+02    2.1490301132e+01
    1.0769888306e+02    2.1531698227e+01
    1.0779788971e+02    2.1572000504e+01
    1.0789813995e+02    2.1612699509e+01
    1.0799890137e+02    2.1653400421e+01
    1.0809844971e+02    2.1693300247e+01
    1.0819841003e+02    2.1732999802e+01
    1.0829833221e+02    2.1772598267e+01
    1.0839839172e+02    2.1811899185e+01
    1.0849845886e+02    2.1851001740e+01
    1.0859854126e+02    2.1889799118e+01
    1.0869864655e+02    2.1928298950e+01
    1.0879878235e+02    2.1966699600e+01
    1.0889717865e+02    2.2003999710e+01
    1.0899812317e+02    2.2042201996e+01
    1.0909706879e+02    2.2079299927e+01
    1.0919764709e+02    2.2116901398e+01
    1.0929842377e+02    2.2154201508e+01
    1.0939742279e+02    2.2190698624e+01
    1.0949835205e+02    2.2227602005e+01
    1.0959744263e+02    2.2263698578e+01
    1.0969844818e+02    2.2300300598e+01
    1.0979708099e+02    2.2335700989e+01
    1.0989814758e+02    2.2371799469e+01
    1.0999739838e+02    2.2407098770e+01
    1.1009716034e+02    2.2463300705e+01
    1.1019777679e+02    2.2520200729e+01
    1.1029842377e+02    2.2577100754e+01
    1.1039732361e+02    2.2632898331e+01
    1.1049800110e+02    2.2689498901e+01
    1.1059857178e+02    2.2745998383e+01
    1.1069751740e+02    2.2801399231e+01
    1.1079823303e+02    2.2857700348e+01
    1.1089785767e+02    2.2913301468e+01
    1.1099720764e+02    2.2968498230e+01
    1.1109838867e+02    2.3024702072e+01
    1.1119763947e+02    2.3079599380e+01
    1.1129871368e+02    2.3135499954e+01
    1.1139790344e+02    2.3189998627e+01
    1.1149706268e+02    2.3244501114e+01
    1.1159808350e+02    2.3299800873e+01
    1.1169725037e+02    2.3353900909e+01
    1.1179760742e+02    2.3408399582e+01
    1.1189797211e+02    2.3462902069e+01
    1.1199835968e+02    2.3517101288e+01
    1.1209877777e+02    2.3571298599e+01
    1.1219747925e+02    2.3624498367e+01
    1.1229828644e+02    2.3678701401e+01
    1.1239727020e+02    2.3731700897e+01
    1.1249848175e+02    2.3785900116e+01
    1.1259789276e+02    2.3839000702e+01
    1.1269734192e+02    2.3892000198e+01
    1.1279747009e+02    2.3945299149e+01
    1.1289817810e+02    2.3998901367e+01
    1.1299735260e+02    2.4051500320e+01
    1.1309873962e+02    2.4105100632e+01
    1.1319740295e+02    2.4157400131e+01
    1.1329843140e+02    2.4210800171e+01
    1.1339840698e+02    2.4263700485e+01
    1.1349875641e+02    2.4316799164e+01
    1.1359818268e+02    2.4369298935e+01
    1.1369760132e+02    2.4421899796e+01
    1.1379879761e+02    2.4475502014e+01
    1.1389765167e+02    2.4527799606e+01
    1.1399756622e+02    2.4580799103e+01
    1.1409748840e+02    2.4633699417e+01
    1.1419740295e+02    2.4686698914e+01
    1.1429724884e+02    2.4739698410e+01
    1.1439794922e+02    2.4793098450e+01
    1.1449765015e+02    2.4845899582e+01
    1.1459732056e+02    2.4898700714e+01
    1.1469751740e+02    2.4951698303e+01
    1.1479696655e+02    2.5004201889e+01
    1.1489826202e+02    2.5057498932e+01
    1.1499743652e+02    2.5109598160e+01
    1.1509806061e+02    2.5162498474e+01
    1.1519860840e+02    2.5215099335e+01
    1.1529736328e+02    2.5266599655e+01
    1.1539785004e+02    2.5319000244e+01
    1.1549835205e+02    2.5371297836e+01
    1.1559709167e+02    2.5422500610e+01
    1.1569792938e+02    2.5474599838e+01
    1.1579743958e+02    2.5525999069e+01
    1.1589797211e+02    2.5577699661e+01
    1.1599764252e+02    2.5628898621e+01
    1.1609871674e+02    2.5680601120e+01
    1.1619792175e+02    2.5731199265e+01
    1.1629714966e+02    2.5781599045e+01
    1.1639720154e+02    2.5832201004e+01
    1.1649771118e+02    2.5882898331e+01
    1.1659803772e+02    2.5933401108e+01
    1.1669721222e+02    2.5983100891e+01
    1.1679769135e+02    2.6033197403e+01
    1.1689814758e+02    2.6083200455e+01
    1.1699855804e+02    2.6132997513e+01
    1.1709792328e+02    2.6181900024e+01
    1.1719700623e+02    2.6230699539e+01
    1.1729862976e+02    2.6280500412e+01
    1.1739720154e+02    2.6328498840e+01
    1.1749748993e+02    2.6377199173e+01
    1.1759831238e+02    2.6425899506e+01
    1.1769722748e+02    2.6473501205e+01
    1.1779850769e+02    2.6521898270e+01
    1.1789849854e+02    2.6569400787e+01
    1.1799736786e+02    2.6615999222e+01
    1.1809806061e+02    2.6663299561e+01
    1.1819817352e+02    2.6709800720e+01
    1.1829778290e+02    2.6755800247e+01
    1.1839755249e+02    2.6801599503e+01
    1.1849733734e+02    2.6847000122e+01
    1.1859790039e+02    2.6892400742e+01
    1.1869867706e+02    2.6937601089e+01
    1.1879856873e+02    2.6982099533e+01
    1.1889846802e+02    2.7026300430e+01
    1.1899741364e+02    2.7069801331e+01
    1.1909802246e+02    2.7113700867e+01
    1.1919860077e+02    2.7157201767e+01
    1.1929830933e+02    2.7200099945e+01
    1.1939713287e+02    2.7242298126e+01
    1.1949787903e+02    2.7285001755e+01
    1.1959867096e+02    2.7327598572e+01
    1.1969764709e+02    2.7368999481e+01
    1.1979853821e+02    2.7410997391e+01
    1.1989759827e+02    2.7451898575e+01
    1.1999858093e+02    2.7493497849e+01
    1.2009774780e+02    2.7557100296e+01
    1.2019822693e+02    2.7621698380e+01
    1.2029696655e+02    2.7684898376e+01
    1.2039749908e+02    2.7749200821e+01
    1.2049803925e+02    2.7813301086e+01
    1.2059767914e+02    2.7876598358e+01
    1.2069825745e+02    2.7940401077e+01
    1.2079708099e+02    2.8002899170e+01
    1.2089868927e+02    2.8067100525e+01
    1.2099788666e+02    2.8129600525e+01
    1.2109703827e+02    2.8191801071e+01
    1.2119799042e+02    2.8254901886e+01
    1.2129701996e+02    2.8316698074e+01
    1.2139788818e+02    2.8379299164e+01
    1.2149687195e+02    2.8440700531e+01
    1.2159770203e+02    2.8502899170e+01
    1.2169763947e+02    2.8564300537e+01
    1.2179779816e+02    2.8625698090e+01
    1.2189794159e+02    2.8686901093e+01
    1.2199812317e+02    2.8747900009e+01
    1.2209832764e+02    2.8808700562e+01
    1.2219859314e+02    2.8869398117e+01
    1.2229724121e+02    2.8928998947e+01
    1.2239695740e+02    2.8989099503e+01
    1.2249800110e+02    2.9049898148e+01
    1.2259725952e+02    2.9109399796e+01
    1.2269843292e+02    2.9169898987e+01
    1.2279862976e+02    2.9229799271e+01
    1.2289742279e+02    2.9288599014e+01
    1.2299830627e+02    2.9348600388e+01
    1.2309768677e+02    2.9407600403e+01
    1.2319831848e+02    2.9467197418e+01
    1.2329746246e+02    2.9526000977e+01
    1.2339721680e+02    2.9584899902e+01
    1.2349736023e+02    2.9644199371e+01
    1.2359844208e+02    2.9703998566e+01
    1.2369776917e+02    2.9762699127e+01
    1.2379708862e+02    2.9821498871e+01
    1.2389762115e+02    2.9880901337e+01
    1.2399745178e+02    2.9939899445e+01
    1.2409728241e+02    2.9999101639e+01
    1.2419709778e+02    3.0058099747e+01
    1.2429685974e+02    3.0117099762e+01
    1.2439842224e+02    3.0177101135e+01
    1.2449800873e+02    3.0235898972e+01
    1.2459799957e+02    3.0294898987e+01
    1.2469785309e+02    3.0353601456e+01
    1.2479717255e+02    3.0411899567e+01
    1.2489830780e+02    3.0471101761e+01
    1.2499832916e+02    3.0529602051e+01
    1.2509703064e+02    3.0587200165e+01
    1.2519743347e+02    3.0645500183e+01
    1.2529778290e+02    3.0703701019e+01
    1.2539810944e+02    3.0761602402e+01
    1.2549844360e+02    3.0819501877e+01
    1.2559703064e+02    3.0876199722e+01
    1.2569779968e+02    3.0933797836e+01
    1.2579826355e+02    3.0991300583e+01
    1.2589691162e+02    3.1047397614e+01
    1.2599778748e+02    3.1104600906e+01
    1.2609689331e+02    3.1160598755e+01
    1.2619783783e+02    3.1217498779e+01
    1.2629695892e+02    3.1272998810e+01
    1.2639733887e+02    3.1329099655e+01
    1.2649861145e+02    3.1385398865e+01
    1.2659728241e+02    3.1440099716e+01
    1.2669764709e+02    3.1495399475e+01
    1.2679801178e+02    3.1550500870e+01
    1.2689832306e+02    3.1605300903e+01
    1.2699857330e+02    3.1659797668e+01
    1.2709752655e+02    3.1713399887e+01
    1.2719831085e+02    3.1767698288e+01
    1.2729701996e+02    3.1820701599e+01
    1.2739717102e+02    3.1874000549e+01
    1.2749725342e+02    3.1927101135e+01
    1.2759764862e+02    3.1980100632e+01
    1.2769821930e+02    3.2032699585e+01
    1.2779827118e+02    3.2084899902e+01
    1.2789801788e+02    3.2136398315e+01
    1.2799717712e+02    3.2187198639e+01
    1.2809693909e+02    3.2237903595e+01
    1.2819686890e+02    3.2288299561e+01
    1.2829693604e+02    3.2338401794e+01
    1.2839826965e+02    3.2388599396e+01
    1.2849775696e+02    3.2437400818e+01
    1.2859786987e+02    3.2486099243e+01
    1.2869781494e+02    3.2534301758e+01
    1.2879742432e+02    3.2582004547e+01
    1.2889707947e+02    3.2629203796e+01
    1.2899763489e+02    3.2676502228e+01
    1.2909800720e+02    3.2723201752e+01
    1.2919848633e+02    3.2769699097e+01
    1.2929832458e+02    3.2815399170e+01
    1.2939695740e+02    3.2860301971e+01
    1.2949751282e+02    3.2905601501e+01
    1.2959812927e+02    3.2950599670e+01
    1.2969694519e+02    3.2994400024e+01
    1.2979766846e+02    3.3038696289e+01
    1.2989843750e+02    3.3082698822e+01
    1.2999740601e+02    3.3125602722e+01
    1.3009817505e+02    3.3194202423e+01
    1.3019850159e+02    3.3262802124e+01
    1.3029710388e+02    3.3329998016e+01
    1.3039749146e+02    3.3398300171e+01
    1.3049801636e+02    3.3466400146e+01
    1.3059796143e+02    3.3533802032e+01
    1.3069842529e+02    3.3601402283e+01
    1.3079713440e+02    3.3667499542e+01
    1.3089851379e+02    3.3735301971e+01
    1.3099760437e+02    3.3801200867e+01
    1.3109846497e+02    3.3868198395e+01
    1.3119740295e+02    3.3933597565e+01
    1.3129817200e+02    3.3999904633e+01
    1.3139703369e+02    3.4064697266e+01
    1.3149830627e+02    3.4130901337e+01
    1.3159712219e+02    3.4195102692e+01
    1.3169775391e+02    3.4260303497e+01
    1.3179774475e+02    3.4324703217e+01
    1.3189770508e+02    3.4388797760e+01
    1.3199769592e+02    3.4452796936e+01
    1.3209773254e+02    3.4516498566e+01
    1.3219781494e+02    3.4579998016e+01
    1.3229798889e+02    3.4643402100e+01
    1.3239823914e+02    3.4706600189e+01
    1.3249871826e+02    3.4769802094e+01
    1.3259785461e+02    3.4832000732e+01
    1.3269705200e+02    3.4894104004e+01
    1.3279879761e+02    3.4957603455e+01
    1.3289747620e+02    3.5018997192e+01
    1.3299813843e+02    3.5081398010e+01
    1.3309741211e+02    3.5142902374e+01
    1.3319816589e+02    3.5205097198e+01
    1.3329722595e+02    3.5266197205e+01
    1.3339811707e+02    3.5328300476e+01
    1.3349728394e+02    3.5389396667e+01
    1.3359828186e+02    3.5451400757e+01
    1.3369750977e+02    3.5512500763e+01
    1.3379850769e+02    3.5574398041e+01
    1.3389860535e+02    3.5635902405e+01
    1.3399833679e+02    3.5697200775e+01
    1.3409806824e+02    3.5758296967e+01
    1.3419776917e+02    3.5819400787e+01
    1.3429739380e+02    3.5880599976e+01
    1.3439883423e+02    3.5942504883e+01
    1.3449829102e+02    3.6003196716e+01
    1.3459724426e+02    3.6063503265e+01
    1.3469793701e+02    3.6124702454e+01
    1.3479895020e+02    3.6185905457e+01
    1.3489804077e+02    3.6245800018e+01
    1.3499896240e+02    3.6306396484e+01
    1.3509747314e+02    3.6365501404e+01
    1.3519767761e+02    3.6425399780e+01
    1.3529783630e+02    3.6484996796e+01
    1.3539797974e+02    3.6544399261e+01
    1.3549812317e+02    3.6603603363e+01
    1.3559829712e+02    3.6662502289e+01
    1.3569813538e+02    3.6720897675e+01
    1.3579899597e+02    3.6779800415e+01
    1.3589840698e+02    3.6837600708e+01
    1.3599873352e+02    3.6895599365e+01
    1.3609773254e+02    3.6952598572e+01
    1.3619859314e+02    3.7010299683e+01
    1.3629760742e+02    3.7066799164e+01
    1.3639851379e+02    3.7123905182e+01
    1.3649754333e+02    3.7179801941e+01
    1.3659800720e+02    3.7236103058e+01
    1.3669827271e+02    3.7291900635e+01
    1.3679852295e+02    3.7347599030e+01
    1.3689869690e+02    3.7402801514e+01
    1.3699880981e+02    3.7457603455e+01
    1.3709881592e+02    3.7512104034e+01
    1.3719758606e+02    3.7565597534e+01
    1.3729801941e+02    3.7619598389e+01
    1.3739801025e+02    3.7673000336e+01
    1.3749792480e+02    3.7725902557e+01
    1.3759912109e+02    3.7779201508e+01
    1.3769761658e+02    3.7830600739e+01
    1.3779887390e+02    3.7882999420e+01
    1.3789840698e+02    3.7933998108e+01
    1.3799853516e+02    3.7984798431e+01
    1.3809828186e+02    3.8034900665e+01
    1.3819859314e+02    3.8084697723e+01
    1.3829838562e+02    3.8133701324e+01
    1.3839779663e+02    3.8182003021e+01
    1.3849752808e+02    3.8229896545e+01
    1.3859921265e+02    3.8278099060e+01
    1.3869911194e+02    3.8325000763e+01
    1.3879913330e+02    3.8371398926e+01
    1.3889854431e+02    3.8416999817e+01
    1.3899821472e+02    3.8462200165e+01
    1.3909834290e+02    3.8507099152e+01
    1.3919839478e+02    3.8551498413e+01
    1.3929879761e+02    3.8595600128e+01
    1.3939909363e+02    3.8638996124e+01
    1.3949763489e+02    3.8681400299e+01
    1.3959808350e+02    3.8723896027e+01
    1.3969857788e+02    3.8766197205e+01
    1.3979913330e+02    3.8807899475e+01
    1.3989787292e+02    3.8848499298e+01
    1.3999853516e+02    3.8889499664e+01
    1.4009861755e+02    3.8954494476e+01
    1.4019877625e+02    3.9019496918e+01
    1.4029896545e+02    3.9084197998e+01
    1.4039918518e+02    3.9148494720e+01
    1.4049832153e+02    3.9211997986e+01
    1.4059921265e+02    3.9276203156e+01
    1.4069888306e+02    3.9339302063e+01
    1.4079922485e+02    3.9402698517e+01
    1.4089775085e+02    3.9464401245e+01
    1.4099778748e+02    3.9526996613e+01
    1.4109849548e+02    3.9589595795e+01
    1.4119914246e+02    3.9651897430e+01
    1.4129789734e+02    3.9712604523e+01
    1.4139903259e+02    3.9774497986e+01
    1.4149909973e+02    3.9835498810e+01
    1.4159773254e+02    3.9895099640e+01
    1.4169917297e+02    3.9956104279e+01
    1.4179899597e+02    4.0015800476e+01
    1.4189880371e+02    4.0075298309e+01
    1.4199864197e+02    4.0134395599e+01
    1.4209851074e+02    4.0193202972e+01
    1.4219812012e+02    4.0251701355e+01
    1.4229815674e+02    4.0310096741e+01
    1.4239828491e+02    4.0368396759e+01
    1.4249856567e+02    4.0426395416e+01
    1.4259762573e+02    4.0483600616e+01
    1.4269860840e+02    4.0541702271e+01
    1.4279852295e+02    4.0598999023e+01
    1.4289889526e+02    4.0656303406e+01
    1.4299926758e+02    4.0713500977e+01
    1.4309835815e+02    4.0769599915e+01
    1.4319772339e+02    4.0825798035e+01
    1.4329808044e+02    4.0882495880e+01
    1.4339888000e+02    4.0939300537e+01
    1.4349797058e+02    4.0995101929e+01
    1.4359884644e+02    4.1051700592e+01
    1.4369793701e+02    4.1107299805e+01
    1.4379882812e+02    4.1163898468e+01
    1.4389926147e+02    4.1220001221e+01
    1.4399810791e+02    4.1275299072e+01
    1.4409898376e+02    4.1331596375e+01
    1.4419931030e+02    4.1387702942e+01
    1.4429876709e+02    4.1442996979e+01
    1.4439811707e+02    4.1498096466e+01
    1.4449926758e+02    4.1554203033e+01
    1.4459864807e+02    4.1609001160e+01
    1.4469822693e+02    4.1663803101e+01
    1.4479902649e+02    4.1719001770e+01
    1.4489924622e+02    4.1773601532e+01
    1.4499938965e+02    4.1827899933e+01
    1.4509942627e+02    4.1881904602e+01
    1.4519940186e+02    4.1935596466e+01
    1.4529933167e+02    4.1988903046e+01
    1.4539923096e+02    4.2041999817e+01
    1.4549914551e+02    4.2094703674e+01
    1.4559930420e+02    4.2147304535e+01
    1.4569804382e+02    4.2198802948e+01
    1.4579873657e+02    4.2251003265e+01
    1.4589961243e+02    4.2303100586e+01
    1.4599937439e+02    4.2354198456e+01
    1.4609823608e+02    4.2404396057e+01
    1.4619866943e+02    4.2455299377e+01
    1.4629942322e+02    4.2505798340e+01
    1.4639831543e+02    4.2555004120e+01
    1.4649908447e+02    4.2604801178e+01
    1.4659799194e+02    4.2653297424e+01
    1.4669879150e+02    4.2702396393e+01
    1.4679888916e+02    4.2750698090e+01
    1.4689892578e+02    4.2798599243e+01
    1.4699888611e+02    4.2845996857e+01
    1.4709938049e+02    4.2893299103e+01
    1.4719799805e+02    4.2939300537e+01
    1.4729849243e+02    4.2985702515e+01
    1.4739833069e+02    4.3031402588e+01
    1.4749807739e+02    4.3076599121e+01
    1.4759974670e+02    4.3122100830e+01
    1.4769804382e+02    4.3165699005e+01
    1.4779809570e+02    4.3209300995e+01
    1.4789846802e+02    4.3252696991e+01
    1.4799937439e+02    4.3295700073e+01
    1.4809841919e+02    4.3337203979e+01
    1.4819914246e+02    4.3378803253e+01
    1.4829933167e+02    4.3419403076e+01
    1.4839822388e+02    4.3458999634e+01
    1.4849896240e+02    4.3498600006e+01
    1.4859852600e+02    4.3537101746e+01
    1.4869816589e+02    4.3575099945e+01
    1.4879815674e+02    4.3612701416e+01
    1.4889909363e+02    4.3649204254e+01
    1.4899835205e+02    4.3685695648e+01
    1.4909945679e+02    4.3721698761e+01
    1.4919885254e+02    4.3755798340e+01
    1.4929849243e+02    4.3789901733e+01
    1.4939863586e+02    4.3824703217e+01
    1.4949887085e+02    4.3857795715e+01
    1.4959916687e+02    4.3890197754e+01
    1.4969812012e+02    4.3922199249e+01
    1.4979849243e+02    4.3954502106e+01
    1.4989892578e+02    4.3985202789e+01
    1.4999938965e+02    4.4016304016e+01
    1.5009829712e+02    4.4069499969e+01
    1.5019825745e+02    4.4123596191e+01
    1.5029826355e+02    4.4177200317e+01
    1.5039828491e+02    4.4229404449e+01
    1.5049995422e+02    4.4283496857e+01
    1.5059878540e+02    4.4335002899e+01
    1.5069909668e+02    4.4387596130e+01
    1.5079925537e+02    4.4439201355e+01
    1.5089932251e+02    4.4490596771e+01
    1.5099818420e+02    4.4540603638e+01
    1.5109866333e+02    4.4591598511e+01
    1.5119909668e+02    4.4641300201e+01
    1.5129951477e+02    4.4691604614e+01
    1.5139901733e+02    4.4741100311e+01
    1.5149876404e+02    4.4789905548e+01
    1.5159959412e+02    4.4839397430e+01
    1.5169984436e+02    4.4887500763e+01
    1.5179989624e+02    4.4935596466e+01
    1.5189952087e+02    4.4983100891e+01
    1.5199917603e+02    4.5030197144e+01
    1.5209884644e+02    4.5076900482e+01
    1.5219923401e+02    4.5123199463e+01
    1.5229946899e+02    4.5170398712e+01
    1.5239949036e+02    4.5215797424e+01
    1.5249957275e+02    4.5261798859e+01
    1.5259854126e+02    4.5307498932e+01
    1.5269943237e+02    4.5353599548e+01
    1.5279969788e+02    4.5398704529e+01
    1.5289997864e+02    4.5443500519e+01
    1.5299851990e+02    4.5488094330e+01
    1.5309872437e+02    4.5532699585e+01
    1.5319984436e+02    4.5577602386e+01
    1.5329920959e+02    4.5622299194e+01
    1.5339912415e+02    4.5666000366e+01
    1.5349986267e+02    4.5711196899e+01
    1.5359881592e+02    4.5754302979e+01
    1.5369955444e+02    4.5799400330e+01
    1.5379852295e+02    4.5842300415e+01
    1.5389857483e+02    4.5886398315e+01
    1.5399871826e+02    4.5930198669e+01
    1.5409942627e+02    4.5973999023e+01
    1.5420002747e+02    4.6017898560e+01
    1.5429870605e+02    4.6060897827e+01
    1.5439967346e+02    4.6104896545e+01
    1.5449868774e+02    4.6148002625e+01
    1.5459942627e+02    4.6191001892e+01
    1.5470001221e+02    4.6234001160e+01
    1.5479862976e+02    4.6276100159e+01
    1.5490007019e+02    4.6319099426e+01
    1.5499981689e+02    4.6360694885e+01
    1.5509953308e+02    4.6402000427e+01
    1.5519917297e+02    4.6443099976e+01
    1.5529881287e+02    4.6483901978e+01
    1.5540017700e+02    4.6525405884e+01
    1.5549978638e+02    4.6565498352e+01
    1.5559854126e+02    4.6604797363e+01
    1.5569886780e+02    4.6644996643e+01
    1.5579928589e+02    4.6683700562e+01
    1.5589926147e+02    4.6722702026e+01
    1.5600015259e+02    4.6761802673e+01
    1.5609878540e+02    4.6798400879e+01
    1.5619888306e+02    4.6836105347e+01
    1.5629942322e+02    4.6873596191e+01
    1.5639901733e+02    4.6910301208e+01
    1.5649957275e+02    4.6946899414e+01
    1.5660012817e+02    4.6983001709e+01
    1.5669960022e+02    4.7018592834e+01
    1.5679946899e+02    4.7053100586e+01
    1.5689927673e+02    4.7088203430e+01
    1.5699975586e+02    4.7121597290e+01
    1.5710000610e+02    4.7156005859e+01
    1.5720022583e+02    4.7188896179e+01
    1.5729936218e+02    4.7221305847e+01
    1.5739894104e+02    4.7253402710e+01
    1.5750016785e+02    4.7284797668e+01
    1.5759985352e+02    4.7315597534e+01
    1.5769972229e+02    4.7346504211e+01
    1.5779946899e+02    4.7375900269e+01
    1.5789932251e+02    4.7404602051e+01
    1.5799990845e+02    4.7434204102e+01
    1.5810038757e+02    4.7461296082e+01
    1.5819903564e+02    4.7488098145e+01
    1.5829937744e+02    4.7514999390e+01
    1.5839970398e+02    4.7540206909e+01
    1.5849948120e+02    4.7564697266e+01
    1.5859875488e+02    4.7589500427e+01
    1.5869999695e+02    4.7612800598e+01
    1.5879963684e+02    4.7635505676e+01
    1.5890040588e+02    4.7657295227e+01
    1.5899949646e+02    4.7678703308e+01
    1.5910040283e+02    4.7699897766e+01
    1.5919964600e+02    4.7719802856e+01
    1.5930041504e+02    4.7740005493e+01
    1.5940042114e+02    4.7758102417e+01
    1.5950050354e+02    4.7776405334e+01
    1.5959878540e+02    4.7793800354e+01
    1.5969964600e+02    4.7811401367e+01
    1.5979895020e+02    4.7827697754e+01
    1.5989915466e+02    4.7844604492e+01
    1.5999942017e+02    4.7859901428e+01
    1.6009928894e+02    4.7896499634e+01
    1.6019903564e+02    4.7932998657e+01
    1.6030056763e+02    4.7969406128e+01
    1.6040034485e+02    4.8005905151e+01
    1.6050015259e+02    4.8041099548e+01
    1.6059918213e+02    4.8075401306e+01
    1.6069966125e+02    4.8110397339e+01
    1.6079919434e+02    4.8144996643e+01
    1.6089901733e+02    4.8178703308e+01
    1.6100047302e+02    4.8212699890e+01
    1.6110044861e+02    4.8246299744e+01
    1.6120060730e+02    4.8279304504e+01
    1.6129887390e+02    4.8310798645e+01
    1.6139964294e+02    4.8343704224e+01
    1.6149909973e+02    4.8375099182e+01
    1.6159985352e+02    4.8407302856e+01
    1.6169979858e+02    4.8437896729e+01
    1.6180056763e+02    4.8469505310e+01
    1.6189993286e+02    4.8499694824e+01
    1.6199935913e+02    4.8529403687e+01
    1.6209970093e+02    4.8559906006e+01
    1.6219989014e+02    4.8589492798e+01
    1.6230046082e+02    4.8619094849e+01
    1.6240029907e+02    4.8647895813e+01
    1.6250030518e+02    4.8677299500e+01
    1.6259913635e+02    4.8705902100e+01
    1.6269990540e+02    4.8734199524e+01
    1.6279925537e+02    4.8762405396e+01
    1.6289939880e+02    4.8790794373e+01
    1.6299954224e+02    4.8819107056e+01
    1.6309906006e+02    4.8847503662e+01
    1.6319999695e+02    4.8875892639e+01
    1.6329914856e+02    4.8902893066e+01
    1.6340025330e+02    4.8931709290e+01
    1.6349900818e+02    4.8958503723e+01
    1.6359950256e+02    4.8986495972e+01
    1.6370002747e+02    4.9014396667e+01
    1.6380053711e+02    4.9042297363e+01
    1.6389897156e+02    4.9069503784e+01
    1.6400007629e+02    4.9097091675e+01
    1.6410052490e+02    4.9124992371e+01
    1.6419906616e+02    4.9151802063e+01
    1.6430018616e+02    4.9180099487e+01
    1.6440080261e+02    4.9207298279e+01
    1.6449943542e+02    4.9233505249e+01
    1.6459977722e+02    4.9261001587e+01
    1.6469995117e+02    4.9287498474e+01
    1.6480000305e+02    4.9314102173e+01
    1.6490023804e+02    4.9339996338e+01
    1.6499957275e+02    4.9365501404e+01
    1.6510061646e+02    4.9391006470e+01
    1.6519987488e+02    4.9416000366e+01
    1.6529913330e+02    4.9440605164e+01
    1.6540014648e+02    4.9465095520e+01
    1.6549943542e+02    4.9488906860e+01
    1.6560046387e+02    4.9512596130e+01
    1.6570045471e+02    4.9536201477e+01
    1.6580056763e+02    4.9559089661e+01
    1.6590055847e+02    4.9580795288e+01
    1.6600018311e+02    4.9602890015e+01
    1.6609979248e+02    4.9624610901e+01
    1.6619947815e+02    4.9645805359e+01
    1.6629971313e+02    4.9666297913e+01
    1.6640066528e+02    4.9686805725e+01
    1.6649949646e+02    4.9706405640e+01
    1.6659971619e+02    4.9725494385e+01
    1.6669927979e+02    4.9744598389e+01
    1.6680053711e+02    4.9762496948e+01
    1.6689997864e+02    4.9780799866e+01
    1.6700096130e+02    4.9798301697e+01
    1.6710086060e+02    4.9814605713e+01
    1.6720069885e+02    4.9830505371e+01
    1.6729995728e+02    4.9846099854e+01
    1.6740086365e+02    4.9861503601e+01
    1.6749993896e+02    4.9876396179e+01
    1.6759956360e+02    4.9889503479e+01
    1.6770085144e+02    4.9903198242e+01
    1.6780020142e+02    4.9915611267e+01
    1.6790029907e+02    4.9927696228e+01
    1.6800050354e+02    4.9938903809e+01
    1.6810055542e+02    4.9949600220e+01
    1.6820056152e+02    4.9959800720e+01
    1.6830052185e+02    4.9968200684e+01
    1.6840049744e+02    4.9976890564e+01
    1.6850025940e+02    4.9984390259e+01
    1.6860107422e+02    4.9991699219e+01
    1.6870018005e+02    4.9997200012e+01
    1.6879945374e+02    5.0002708435e+01
    1.6890010071e+02    5.0008201599e+01
    1.6900076294e+02    5.0012092590e+01
    1.6909976196e+02    5.0015197754e+01
    1.6920056152e+02    5.0018402100e+01
    1.6930029297e+02    5.0020599365e+01
    1.6940011597e+02    5.0022003174e+01
    1.6950004578e+02    5.0022598267e+01
    1.6960002136e+02    5.0023506165e+01
    1.6970097351e+02    5.0023597717e+01
    1.6980061340e+02    5.0023300171e+01
    1.6990060425e+02    5.0022705078e+01
    1.7000045776e+02    5.0021003723e+01
    1.7009994507e+02    5.0039810181e+01
    1.7019947815e+02    5.0057106018e+01
    1.7030076599e+02    5.0075798035e+01
    1.7040032959e+02    5.0093299866e+01
    1.7049989319e+02    5.0110504150e+01
    1.7059947205e+02    5.0127296448e+01
    1.7069978333e+02    5.0143104553e+01
    1.7079995728e+02    5.0160003662e+01
    1.7090005493e+02    5.0176002502e+01
    1.7099966431e+02    5.0192008972e+01
    1.7110067749e+02    5.0207992554e+01
    1.7119995117e+02    5.0223007202e+01
    1.7129974365e+02    5.0236991882e+01
    1.7140124512e+02    5.0251998901e+01
    1.7150038147e+02    5.0266998291e+01
    1.7159974670e+02    5.0280998230e+01
    1.7170123291e+02    5.0295005798e+01
    1.7180087280e+02    5.0308006287e+01
    1.7190095520e+02    5.0322998047e+01
    1.7200013733e+02    5.0336006165e+01
    1.7210115051e+02    5.0348999023e+01
    1.7220080566e+02    5.0362007141e+01
    1.7230050659e+02    5.0375000000e+01
    1.7240040588e+02    5.0387001038e+01
    1.7250071716e+02    5.0400009155e+01
    1.7260116577e+02    5.0411994934e+01
    1.7269982910e+02    5.0425003052e+01
    1.7279960632e+02    5.0437004089e+01
    1.7290127563e+02    5.0450004578e+01
    1.7300115967e+02    5.0461990356e+01
    1.7310110474e+02    5.0474006653e+01
    1.7319952393e+02    5.0486999512e+01
    1.7330021667e+02    5.0498992920e+01
    1.7340095520e+02    5.0512008667e+01
    1.7350119019e+02    5.0523994446e+01
    1.7360131836e+02    5.0536003113e+01
    1.7369970703e+02    5.0549003601e+01
    1.7379986572e+02    5.0560997009e+01
    1.7390002441e+02    5.0573997498e+01
    1.7399998474e+02    5.0585998535e+01
    1.7409965515e+02    5.0597999573e+01
    1.7420127869e+02    5.0610992432e+01
    1.7429974365e+02    5.0623008728e+01
    1.7439985657e+02    5.0635002136e+01
    1.7449986267e+02    5.0646995544e+01
    1.7459970093e+02    5.0658988953e+01
    1.7470120239e+02    5.0670997620e+01
    1.7480075073e+02    5.0683006287e+01
    1.7489990234e+02    5.0694000244e+01
    1.7500047302e+02    5.0704002380e+01
    1.7510101318e+02    5.0715995789e+01
    1.7519984436e+02    5.0726005554e+01
    1.7530043030e+02    5.0735008240e+01
    1.7540037537e+02    5.0745002747e+01
    1.7550103760e+02    5.0753997803e+01
    1.7560104370e+02    5.0763008118e+01
    1.7570066833e+02    5.0770996094e+01
    1.7580038452e+02    5.0777999878e+01
    1.7590130615e+02    5.0784996033e+01
    1.7600056458e+02    5.0792999268e+01
    1.7609980774e+02    5.0799995422e+01
    1.7620022583e+02    5.0805999756e+01
    1.7630006409e+02    5.0811004639e+01
    1.7640046692e+02    5.0816001892e+01
    1.7650146484e+02    5.0821006775e+01
    1.7660067749e+02    5.0825004578e+01
    1.7670153809e+02    5.0828994751e+01
    1.7680061340e+02    5.0831993103e+01
    1.7690138245e+02    5.0835006714e+01
    1.7700041199e+02    5.0835990906e+01
    1.7709988403e+02    5.0837997437e+01
    1.7720109558e+02    5.0838996887e+01
    1.7730038452e+02    5.0838996887e+01
    1.7739999390e+02    5.0838996887e+01
    1.7750027466e+02    5.0837997437e+01
    1.7760046387e+02    5.0837005615e+01
    1.7770028687e+02    5.0834991455e+01
    1.7780094910e+02    5.0832000732e+01
    1.7790057373e+02    5.0829002380e+01
    1.7800030518e+02    5.0824996948e+01
    1.7810163879e+02    5.0819999695e+01
    1.7820162964e+02    5.0815002441e+01
    1.7830009460e+02    5.0808998108e+01
    1.7840043640e+02    5.0802001953e+01
    1.7850085449e+02    5.0793998718e+01
    1.7860139465e+02    5.0786003113e+01
    1.7870027161e+02    5.0776992798e+01
    1.7880114746e+02    5.0767997742e+01
    1.7890049744e+02    5.0756996155e+01
    1.7900099182e+02    5.0745994568e+01
    1.7910156250e+02    5.0735008240e+01
    1.7920046997e+02    5.0723991394e+01
    1.7930047607e+02    5.0711006165e+01
    1.7940008545e+02    5.0697990417e+01
    1.7950166321e+02    5.0685005188e+01
    1.7960142517e+02    5.0671997070e+01
    1.7970120239e+02    5.0657005310e+01
    1.7980097961e+02    5.0643005371e+01
    1.7990074158e+02    5.0628997803e+01
    1.8000025940e+02    5.0614006042e+01
    1.8010125732e+02    5.0616004944e+01
    1.8020056152e+02    5.0616996765e+01
    1.8030163574e+02    5.0620010376e+01
    1.8040095520e+02    5.0620002747e+01
    1.8050030518e+02    5.0622001648e+01
    1.8060136414e+02    5.0623001099e+01
    1.8070065308e+02    5.0625007629e+01
    1.8080049133e+02    5.0625999451e+01
    1.8090025330e+02    5.0626991272e+01
    1.8100134277e+02    5.0626991272e+01
    1.8110032654e+02    5.0628005981e+01
    1.8120129395e+02    5.0629005432e+01
    1.8130076599e+02    5.0629005432e+01
    1.8140022278e+02    5.0629989624e+01
    1.8150044250e+02    5.0629997253e+01
    1.8160144043e+02    5.0629997253e+01
    1.8170085144e+02    5.0630996704e+01
    1.8180026245e+02    5.0630996704e+01
    1.8190159607e+02    5.0631011963e+01
    1.8200042725e+02    5.0630996704e+01
    1.8210125732e+02    5.0630996704e+01
    1.8220042419e+02    5.0630996704e+01
    1.8230140686e+02    5.0630996704e+01
    1.8240168762e+02    5.0630996704e+01
    1.8250169373e+02    5.0631011963e+01
    1.8260180664e+02    5.0632003784e+01
    1.8270013428e+02    5.0630996704e+01
    1.8280165100e+02    5.0631988525e+01
    1.8290122986e+02    5.0631988525e+01
    1.8300079346e+02    5.0633010864e+01
    1.8310035706e+02    5.0633010864e+01
    1.8320144653e+02    5.0633010864e+01
    1.8330163574e+02    5.0634002686e+01
    1.8340187073e+02    5.0634994507e+01
    1.8350024414e+02    5.0636001587e+01
    1.8360084534e+02    5.0636993408e+01
    1.8370045471e+02    5.0638000488e+01
    1.8380180359e+02    5.0638992310e+01
    1.8390139771e+02    5.0639999390e+01
    1.8400177002e+02    5.0641998291e+01
    1.8410136414e+02    5.0641998291e+01
    1.8420060730e+02    5.0643005371e+01
    1.8430139160e+02    5.0645004272e+01
    1.8440098572e+02    5.0645004272e+01
    1.8450032043e+02    5.0646987915e+01
    1.8460136414e+02    5.0646987915e+01
    1.8470042419e+02    5.0648010254e+01
    1.8480119324e+02    5.0648010254e+01
    1.8490170288e+02    5.0647994995e+01
    1.8500169373e+02    5.0647003174e+01
    1.8510174561e+02    5.0647003174e+01
    1.8520181274e+02    5.0645004272e+01
    1.8530197144e+02    5.0643997192e+01
    1.8540046692e+02    5.0641998291e+01
    1.8550074768e+02    5.0639999390e+01
    1.8560037231e+02    5.0636993408e+01
    1.8570144653e+02    5.0632995605e+01
    1.8580078125e+02    5.0629989624e+01
    1.8590202332e+02    5.0625000000e+01
    1.8600151062e+02    5.0621002197e+01
    1.8610208130e+02    5.0615997314e+01
    1.8620091248e+02    5.0610000610e+01
    1.8630067444e+02    5.0603988647e+01
    1.8640193176e+02    5.0598007202e+01
    1.8650190735e+02    5.0589996338e+01
    1.8660069275e+02    5.0582992554e+01
    1.8670115662e+02    5.0575012207e+01
    1.8680154419e+02    5.0567001343e+01
    1.8690187073e+02    5.0557006836e+01
    1.8700091553e+02    5.0546997070e+01
    1.8710177612e+02    5.0536987305e+01
    1.8720072937e+02    5.0526000977e+01
    1.8730137634e+02    5.0514007568e+01
    1.8740162659e+02    5.0503005981e+01
    1.8750138855e+02    5.0490005493e+01
    1.8760107422e+02    5.0476989746e+01
    1.8770191956e+02    5.0463989258e+01
    1.8780213928e+02    5.0449996948e+01
    1.8790101624e+02    5.0434997559e+01
    1.8800210571e+02    5.0419998169e+01
    1.8810139465e+02    5.0404006958e+01
    1.8820152283e+02    5.0387008667e+01
    1.8830158997e+02    5.0368988037e+01
    1.8840174866e+02    5.0351989746e+01
    1.8850202942e+02    5.0333999634e+01
    1.8860061646e+02    5.0315002441e+01
    1.8870117188e+02    5.0294998169e+01
    1.8880192566e+02    5.0274993896e+01
    1.8890098572e+02    5.0253997803e+01
    1.8900144958e+02    5.0234008789e+01
    1.8910189819e+02    5.0212997437e+01
    1.8920065308e+02    5.0190994263e+01
    1.8930183411e+02    5.0170013428e+01
    1.8940127563e+02    5.0147003174e+01
    1.8950077820e+02    5.0125991821e+01
    1.8960217285e+02    5.0102996826e+01
    1.8970173645e+02    5.0080001831e+01
    1.8980128479e+02    5.0057006836e+01
    1.8990081787e+02    5.0033996582e+01
    1.9000222778e+02    5.0010986328e+01
    1.9010121155e+02    5.0002990723e+01
    1.9020132446e+02    4.9994995117e+01
    1.9030212402e+02    4.9986007690e+01
    1.9040119934e+02    4.9979003906e+01
    1.9050201416e+02    4.9970001221e+01
    1.9060107422e+02    4.9962997437e+01
    1.9070179749e+02    4.9954010010e+01
    1.9080131531e+02    4.9945999146e+01
    1.9090075684e+02    4.9938995361e+01
    1.9100195312e+02    4.9931991577e+01
    1.9110087585e+02    4.9923995972e+01
    1.9120201111e+02    4.9916992188e+01
    1.9130122375e+02    4.9910003662e+01
    1.9140228271e+02    4.9902999878e+01
    1.9150099182e+02    4.9895004272e+01
    1.9160234070e+02    4.9888000488e+01
    1.9170156860e+02    4.9882003784e+01
    1.9180082703e+02    4.9875000000e+01
    1.9190197754e+02    4.9869003296e+01
    1.9200137329e+02    4.9862991333e+01
    1.9210078430e+02    4.9856994629e+01
    1.9220150757e+02    4.9850997925e+01
    1.9230224609e+02    4.9843994141e+01
    1.9240168762e+02    4.9839004517e+01
    1.9250134277e+02    4.9832992554e+01
    1.9260107422e+02    4.9826995850e+01
    1.9270085144e+02    4.9822006226e+01
    1.9280160522e+02    4.9817001343e+01
    1.9290248108e+02    4.9810989380e+01
    1.9300160217e+02    4.9807006836e+01
    1.9310244751e+02    4.9803009033e+01
    1.9320152283e+02    4.9797012329e+01
    1.9330120850e+02    4.9793014526e+01
    1.9340083313e+02    4.9787994385e+01
    1.9350227356e+02    4.9784011841e+01
    1.9360185242e+02    4.9779998779e+01
    1.9370146179e+02    4.9776000977e+01
    1.9380213928e+02    4.9770996094e+01
    1.9390101624e+02    4.9765991211e+01
    1.9400152588e+02    4.9762008667e+01
    1.9410192871e+02    4.9758010864e+01
    1.9420217896e+02    4.9753005981e+01
    1.9430226135e+02    4.9749008179e+01
    1.9440225220e+02    4.9744995117e+01
[...]
    2.5130453491e+02    4.8600006104e+01
    2.5140461731e+02    4.8600006104e+01
    2.5150466919e+02    4.8600006104e+01
    2.5160473633e+02    4.8598999023e+01
    2.5170486450e+02    4.8597991943e+01
    2.5180505371e+02    4.8597015381e+01
    2.5190525818e+02    4.8595001221e+01
    2.5200488281e+02    4.8593994141e+01
    2.5210456848e+02    4.8592010498e+01
    2.5220599365e+02    4.8589996338e+01
    2.5230575562e+02    4.8586975098e+01
    2.5240556335e+02    4.8585021973e+01
    2.5250544739e+02    4.8584014893e+01
    2.5260491943e+02    4.8580993652e+01
    2.5270553589e+02    4.8579010010e+01
    2.5280612183e+02    4.8576995850e+01
    2.5290603638e+02    4.8575988770e+01
    2.5300527954e+02    4.8574005127e+01
    2.5310557556e+02    4.8572998047e+01
    2.5320582581e+02    4.8571990967e+01
    2.5330604553e+02    4.8569976807e+01
    2.5340449524e+02    4.8570007324e+01
    2.5350483704e+02    4.8569976807e+01
    2.5360528564e+02    4.8569000244e+01
    2.5370582581e+02    4.8570007324e+01
    2.5380462646e+02    4.8569976807e+01
    2.5390539551e+02    4.8571014404e+01
    2.5400549316e+02    4.8571014404e+01
    2.5410453796e+02    4.8572998047e+01
    2.5420501709e+02    4.8573974609e+01
    2.5430531311e+02    4.8575988770e+01
    2.5440557861e+02    4.8578002930e+01
    2.5450579834e+02    4.8580017090e+01
    2.5460580444e+02    4.8582000732e+01
    2.5470477295e+02    4.8584991455e+01
    2.5480552673e+02    4.8588012695e+01
    2.5490625000e+02    4.8590972900e+01
    2.5500515747e+02    4.8593994141e+01
    2.5510589600e+02    4.8598022461e+01
    2.5520585632e+02    4.8601989746e+01
    2.5530604553e+02    4.8606018066e+01
    2.5540628052e+02    4.8610015869e+01
    2.5550482178e+02    4.8614013672e+01
    2.5560508728e+02    4.8618988037e+01
    2.5570535278e+02    4.8625000000e+01
    2.5580560303e+02    4.8628997803e+01
    2.5590580750e+02    4.8635009766e+01
    2.5600595093e+02    4.8640991211e+01
    2.5610491943e+02    4.8647003174e+01
    2.5620568848e+02    4.8652984619e+01
    2.5630639648e+02    4.8659027100e+01
    2.5640518188e+02    4.8666015625e+01
    2.5650570679e+02    4.8671997070e+01
    2.5660617065e+02    4.8679016113e+01
    2.5670474243e+02    4.8684997559e+01
    2.5680508423e+02    4.8691009521e+01
    2.5690628052e+02    4.8697998047e+01
    2.5700588989e+02    4.8703002930e+01
    2.5710546875e+02    4.8708984375e+01
    2.5720501709e+02    4.8714996338e+01
    2.5730502319e+02    4.8720001221e+01
    2.5740597534e+02    4.8725006104e+01
    2.5750619507e+02    4.8730010986e+01
    2.5760641479e+02    4.8734008789e+01
    2.5770480347e+02    4.8738006592e+01
    2.5780502319e+02    4.8740997314e+01
    2.5790524292e+02    4.8745025635e+01
    2.5800497437e+02    4.8748016357e+01
    2.5810614014e+02    4.8748992920e+01
    2.5820553589e+02    4.8751007080e+01
    2.5830490112e+02    4.8752014160e+01
    2.5840502930e+02    4.8752990723e+01
    2.5850512695e+02    4.8752014160e+01
    2.5860565186e+02    4.8751983643e+01
    2.5870520020e+02    4.8751007080e+01
    2.5880648804e+02    4.8750000000e+01
    2.5890609741e+02    4.8747985840e+01
    2.5900576782e+02    4.8746002197e+01
    2.5910607910e+02    4.8742980957e+01
    2.5920639038e+02    4.8739990234e+01
    2.5930554199e+02    4.8736022949e+01
    2.5940512085e+02    4.8733001709e+01
    2.5950634766e+02    4.8729003906e+01
    2.5960574341e+02    4.8723022461e+01
    2.5970495605e+02    4.8718994141e+01
    2.5980484009e+02    4.8712982178e+01
    2.5990649414e+02    4.8707000732e+01
    2.6000628662e+02    4.8701995850e+01
    2.6010604858e+02    4.8694976807e+01
    2.6020584106e+02    4.8688995361e+01
    2.6030569458e+02    4.8682006836e+01
    2.6040557861e+02    4.8674987793e+01
    2.6050598145e+02    4.8667999268e+01
    2.6060537720e+02    4.8660003662e+01
    2.6070657349e+02    4.8652008057e+01
    2.6080551147e+02    4.8644012451e+01
    2.6090588379e+02    4.8634979248e+01
    2.6100634766e+02    4.8626007080e+01
    2.6110510254e+02    4.8617980957e+01
    2.6120571899e+02    4.8608001709e+01
    2.6130633545e+02    4.8598999023e+01
    2.6140515137e+02    4.8588989258e+01
    2.6150573730e+02    4.8578979492e+01
    2.6160629272e+02    4.8569000244e+01
    2.6170501709e+02    4.8560028076e+01
    2.6180566406e+02    4.8549011230e+01
    2.6190567017e+02    4.8540008545e+01
    2.6200570679e+02    4.8529998779e+01
    2.6210574341e+02    4.8520019531e+01
    2.6220581055e+02    4.8510986328e+01
    2.6230587769e+02    4.8502014160e+01
    2.6240600586e+02    4.8493011475e+01
    2.6250616455e+02    4.8483978271e+01
    2.6260632324e+02    4.8475006104e+01
    2.6270526123e+02    4.8467010498e+01
    2.6280612183e+02    4.8458007812e+01
    2.6290509033e+02    4.8451019287e+01
    2.6300585938e+02    4.8442993164e+01
    2.6310653687e+02    4.8436981201e+01
    2.6320538330e+02    4.8430999756e+01
    2.6330627441e+02    4.8423980713e+01
    2.6340625000e+02    4.8417999268e+01
    2.6350634766e+02    4.8412994385e+01
    2.6360534668e+02    4.8407012939e+01
    2.6370623779e+02    4.8401000977e+01
    2.6380627441e+02    4.8397003174e+01
    2.6390661621e+02    4.8393005371e+01
    2.6400524902e+02    4.8388000488e+01
    2.6410562134e+02    4.8382995605e+01
    2.6420599365e+02    4.8380004883e+01
    2.6430639648e+02    4.8376007080e+01
    2.6440676880e+02    4.8372985840e+01
    2.6450540161e+02    4.8368988037e+01
    2.6460571289e+02    4.8364990234e+01
    2.6470593262e+02    4.8362976074e+01
    2.6480529785e+02    4.8360015869e+01
    2.6490603638e+02    4.8356994629e+01
    2.6500671387e+02    4.8353973389e+01
    2.6510687256e+02    4.8350982666e+01
    2.6520681763e+02    4.8347991943e+01
    2.6530679321e+02    4.8346008301e+01
    2.6540676880e+02    4.8343017578e+01
    2.6550677490e+02    4.8341003418e+01
    2.6560678101e+02    4.8337005615e+01
    2.6570678711e+02    4.8334991455e+01
    2.6580679321e+02    4.8333007812e+01
    2.6590609741e+02    4.8330017090e+01
    2.6600677490e+02    4.8328002930e+01
    2.6610559082e+02    4.8325012207e+01
    2.6620623779e+02    4.8321990967e+01
    2.6630685425e+02    4.8319000244e+01
    2.6640554810e+02    4.8316986084e+01
    2.6650604248e+02    4.8313018799e+01
    2.6660641479e+02    4.8309997559e+01
    2.6670672607e+02    4.8305999756e+01
    2.6680630493e+02    4.8302001953e+01
    2.6690579224e+02    4.8296997070e+01
    2.6700692749e+02    4.8292999268e+01
    2.6710635376e+02    4.8287017822e+01
    2.6720574951e+02    4.8281005859e+01
    2.6730618286e+02    4.8274993896e+01
    2.6740628052e+02    4.8269012451e+01
    2.6750637817e+02    4.8260009766e+01
    2.6760653687e+02    4.8252014160e+01
    2.6770669556e+02    4.8244995117e+01
    2.6780688477e+02    4.8235992432e+01
    2.6790707397e+02    4.8226013184e+01
    2.6800653076e+02    4.8217010498e+01
    2.6810601807e+02    4.8204986572e+01
    2.6820550537e+02    4.8195007324e+01
    2.6830664062e+02    4.8183990479e+01
    2.6840603638e+02    4.8170989990e+01
    2.6850714111e+02    4.8157989502e+01
    2.6860656738e+02    4.8144989014e+01
    2.6870605469e+02    4.8131988525e+01
    2.6880673218e+02    4.8118011475e+01
    2.6890701294e+02    4.8102996826e+01
    2.6900552368e+02    4.8088989258e+01
    2.6910589600e+02    4.8072998047e+01
    2.6920632935e+02    4.8058013916e+01
    2.6930676270e+02    4.8041992188e+01
    2.6940600586e+02    4.8026977539e+01
    2.6950564575e+02    4.8010986328e+01
    2.6960693359e+02    4.7994995117e+01
    2.6970574951e+02    4.7977996826e+01
    2.6980587769e+02    4.7960998535e+01
    2.6990600586e+02    4.7944000244e+01
    2.7000613403e+02    4.7927001953e+01
    2.7010629272e+02    4.7908020020e+01
    2.7020645142e+02    4.7889007568e+01
    2.7030670166e+02    4.7870025635e+01
    2.7040707397e+02    4.7850006104e+01
    2.7050616455e+02    4.7830993652e+01
    2.7060604858e+02    4.7809997559e+01
    2.7070608521e+02    4.7790985107e+01
    2.7080615234e+02    4.7769989014e+01
    2.7090606689e+02    4.7751007080e+01
    2.7100701904e+02    4.7730987549e+01
    2.7110614014e+02    4.7710998535e+01
    2.7120684814e+02    4.7690002441e+01
    2.7130718994e+02    4.7670013428e+01
    2.7140576172e+02    4.7651000977e+01
    2.7150604248e+02    4.7631011963e+01
    2.7160601807e+02    4.7611999512e+01
    2.7170697021e+02    4.7592010498e+01
    2.7180609131e+02    4.7574005127e+01
    2.7190722656e+02    4.7554992676e+01
    2.7200582886e+02    4.7535980225e+01
    2.7210617065e+02    4.7518005371e+01
    2.7220654297e+02    4.7498992920e+01
    2.7230691528e+02    4.7481994629e+01
    2.7240734863e+02    4.7464996338e+01
    2.7250607300e+02    4.7446990967e+01
    2.7260650635e+02    4.7430999756e+01
    2.7270654297e+02    4.7414978027e+01
    2.7280587769e+02    4.7398986816e+01
    2.7290704346e+02    4.7383972168e+01
    2.7300637817e+02    4.7368988037e+01
    2.7310574341e+02    4.7354003906e+01
    2.7320712280e+02    4.7339996338e+01
    2.7330581665e+02    4.7325988770e+01
    2.7340621948e+02    4.7311981201e+01
    2.7350662231e+02    4.7298004150e+01
    2.7360577393e+02    4.7283996582e+01
    2.7370690918e+02    4.7270996094e+01
    2.7380621338e+02    4.7256988525e+01
    2.7390698242e+02    4.7244018555e+01
    2.7400738525e+02    4.7231018066e+01
    2.7410604858e+02    4.7218994141e+01
    2.7420706177e+02    4.7205993652e+01
    2.7430737305e+02    4.7192993164e+01
    2.7440600586e+02    4.7180023193e+01
    2.7450631714e+02    4.7167022705e+01
    2.7460659790e+02    4.7154022217e+01
    2.7470675659e+02    4.7140991211e+01
    2.7480682373e+02    4.7127990723e+01
    2.7490676880e+02    4.7114990234e+01
    2.7500711060e+02    4.7101989746e+01
    2.7510574341e+02    4.7089019775e+01
    2.7520620728e+02    4.7075988770e+01
    2.7530667114e+02    4.7061981201e+01
    2.7540640259e+02    4.7048004150e+01
    2.7550604248e+02    4.7035003662e+01
    2.7560595703e+02    4.7020996094e+01
    2.7570596313e+02    4.7007019043e+01
    2.7580593872e+02    4.6992004395e+01
    2.7590698242e+02    4.6977996826e+01
    2.7600585938e+02    4.6963012695e+01
    2.7610653687e+02    4.6947998047e+01
    2.7620718384e+02    4.6933013916e+01
    2.7630593872e+02    4.6917999268e+01
    2.7640689087e+02    4.6902008057e+01
    2.7650665283e+02    4.6885986328e+01
    2.7660629272e+02    4.6869018555e+01
    2.7670739746e+02    4.6851989746e+01
    2.7680761719e+02    4.6834991455e+01
    2.7690759277e+02    4.6816986084e+01
    2.7700701904e+02    4.6798004150e+01
    2.7710647583e+02    4.6779022217e+01
    2.7720660400e+02    4.6760009766e+01
    2.7730676270e+02    4.6740020752e+01
    2.7740695190e+02    4.6718994141e+01
    2.7750717163e+02    4.6697998047e+01
    2.7760742188e+02    4.6677001953e+01
    2.7770767212e+02    4.6653991699e+01
    2.7780645752e+02    4.6631988525e+01
    2.7790612793e+02    4.6610015869e+01
    2.7800744629e+02    4.6585998535e+01
    2.7810702515e+02    4.6561981201e+01
    2.7820663452e+02    4.6537994385e+01
    2.7830621338e+02    4.6514007568e+01
    2.7840750122e+02    4.6488006592e+01
    2.7850708008e+02    4.6461975098e+01
    2.7860644531e+02    4.6436981201e+01
    2.7870681763e+02    4.6410003662e+01
    2.7880728149e+02    4.6384002686e+01
    2.7890606689e+02    4.6358001709e+01
    2.7900683594e+02    4.6330993652e+01
    2.7910769653e+02    4.6303985596e+01
    2.7920675659e+02    4.6277008057e+01
    2.7930731201e+02    4.6250000000e+01
    2.7940750122e+02    4.6222991943e+01
    2.7950765991e+02    4.6194976807e+01
    2.7960772705e+02    4.6168975830e+01
    2.7970751953e+02    4.6141021729e+01
    2.7980642700e+02    4.6114013672e+01
    2.7990716553e+02    4.6085998535e+01
    2.8000610352e+02    4.6059020996e+01
    2.8010690308e+02    4.6027008057e+01
    2.8020776367e+02    4.5996978760e+01
    2.8030718994e+02    4.5964996338e+01
    2.8040750122e+02    4.5933990479e+01
    2.8050616455e+02    4.5903015137e+01
    2.8060665894e+02    4.5872009277e+01
    2.8070718384e+02    4.5841003418e+01
    2.8080776978e+02    4.5809997559e+01
    2.8090667725e+02    4.5779998779e+01
    2.8100686646e+02    4.5750000000e+01
    2.8110641479e+02    4.5720001221e+01
    2.8120782471e+02    4.5688995361e+01
    2.8130776978e+02    4.5658996582e+01
    2.8140676880e+02    4.5630004883e+01
    2.8150747681e+02    4.5600006104e+01
    2.8160784912e+02    4.5570983887e+01
    2.8170745850e+02    4.5541992188e+01
    2.8180706787e+02    4.5514007568e+01
    2.8190707397e+02    4.5484985352e+01
    2.8200790405e+02    4.5457000732e+01
    2.8210702515e+02    4.5429992676e+01
    2.8220788574e+02    4.5403015137e+01
    2.8230627441e+02    4.5376007080e+01
    2.8240789795e+02    4.5350006104e+01
    2.8250769043e+02    4.5322998047e+01
    2.8260708618e+02    4.5296997070e+01
    2.8270745850e+02    4.5271972656e+01
    2.8280725098e+02    4.5247009277e+01
    2.8290704346e+02    4.5222015381e+01
    2.8300683594e+02    4.5197998047e+01
    2.8310787964e+02    4.5173004150e+01
    2.8320700073e+02    4.5148986816e+01
    2.8330773926e+02    4.5125000000e+01
    2.8340667725e+02    4.5101989746e+01
    2.8350729370e+02    4.5076995850e+01
    2.8360696411e+02    4.5052978516e+01
    2.8370635986e+02    4.5028991699e+01
    2.8380755615e+02    4.5006011963e+01
    2.8390692139e+02    4.4982025146e+01
    2.8400735474e+02    4.4957977295e+01
    2.8410729980e+02    4.4933990479e+01
    2.8420654297e+02    4.4910003662e+01
    2.8430712891e+02    4.4886016846e+01
    2.8440747070e+02    4.4861999512e+01
    2.8450778198e+02    4.4836975098e+01
    2.8460803223e+02    4.4812988281e+01
    2.8470648193e+02    4.4789001465e+01
    2.8480715942e+02    4.4763000488e+01
    2.8490789795e+02    4.4738006592e+01
    2.8500674438e+02    4.4713012695e+01
    2.8510739136e+02    4.4687011719e+01
    2.8520806885e+02    4.4661010742e+01
    2.8530694580e+02    4.4635009766e+01
    2.8540771484e+02    4.4609008789e+01
    2.8550656128e+02    4.4582000732e+01
    2.8560675049e+02    4.4554992676e+01
    2.8570700073e+02    4.4528015137e+01
    2.8580722046e+02    4.4500000000e+01
    2.8590744019e+02    4.4473022461e+01
    2.8600765991e+02    4.4445007324e+01
    2.8610757446e+02    4.4416015625e+01
    2.8620657349e+02    4.4388977051e+01
    2.8630734253e+02    4.4359008789e+01
    2.8640774536e+02    4.4330017090e+01
    2.8650765991e+02    4.4300018311e+01
    2.8660647583e+02    4.4269989014e+01
    2.8670693970e+02    4.4239013672e+01
    2.8680740356e+02    4.4208007812e+01
    2.8690783691e+02    4.4177001953e+01
    2.8700677490e+02    4.4145019531e+01
    2.8710824585e+02    4.4111999512e+01
    2.8720800781e+02    4.4079010010e+01
    2.8730780029e+02    4.4046020508e+01
    2.8740765381e+02    4.4011993408e+01
    2.8750753784e+02    4.3976989746e+01
    2.8760812378e+02    4.3942993164e+01
    2.8770687866e+02    4.3907989502e+01
    2.8780749512e+02    4.3871978760e+01
    2.8790814209e+02    4.3835998535e+01
    2.8800698853e+02    4.3799987793e+01
    2.8810769653e+02    4.3764007568e+01
    2.8820663452e+02    4.3726989746e+01
    2.8830789185e+02    4.3689971924e+01
    2.8840805054e+02    4.3651977539e+01
    2.8850830078e+02    4.3614990234e+01
    2.8860687256e+02    4.3577972412e+01
    2.8870834351e+02    4.3539001465e+01
    2.8880773926e+02    4.3501007080e+01
    2.8890725708e+02    4.3464019775e+01
    2.8900692749e+02    4.3424987793e+01
    2.8910668945e+02    4.3386993408e+01
    2.8920834351e+02    4.3347991943e+01
    2.8930728149e+02    4.3310974121e+01
    2.8940820312e+02    4.3271972656e+01
    2.8950726318e+02    4.3234985352e+01
    2.8960803223e+02    4.3196990967e+01
    2.8970700073e+02    4.3159027100e+01
    2.8980712891e+02    4.3122009277e+01
    2.8990670776e+02    4.3084014893e+01
    2.9000814819e+02    4.3045013428e+01
    2.9010781860e+02    4.3003021240e+01
    2.9020797729e+02    4.2961029053e+01
    2.9030715942e+02    4.2917999268e+01
    2.9040814209e+02    4.2875976562e+01
    2.9050741577e+02    4.2834991455e+01
    2.9060845947e+02    4.2790985107e+01
    2.9070785522e+02    4.2749969482e+01
    2.9080725098e+02    4.2708984375e+01
    2.9090744019e+02    4.2666992188e+01
    2.9100753784e+02    4.2625976562e+01
    2.9110769653e+02    4.2584991455e+01
    2.9120794678e+02    4.2543975830e+01
    2.9130761719e+02    4.2503021240e+01
    2.9140734863e+02    4.2463012695e+01
    2.9150714111e+02    4.2422973633e+01
    2.9160708618e+02    4.2382995605e+01
    2.9170748901e+02    4.2344024658e+01
    2.9180792236e+02    4.2304992676e+01
    2.9190850830e+02    4.2264984131e+01
    2.9200836182e+02    4.2226989746e+01
    2.9210818481e+02    4.2186981201e+01
    2.9220797729e+02    4.2149993896e+01
    2.9230795288e+02    4.2111022949e+01
    2.9240832520e+02    4.2074005127e+01
    2.9250793457e+02    4.2036987305e+01
    2.9260763550e+02    4.2000030518e+01
    2.9270733643e+02    4.1963989258e+01
    2.9280700684e+02    4.1926971436e+01
    2.9290838623e+02    4.1889984131e+01
    2.9300793457e+02    4.1853973389e+01
    2.9310742188e+02    4.1817993164e+01
    2.9320852661e+02    4.1781982422e+01
    2.9330776978e+02    4.1745971680e+01
    2.9340740967e+02    4.1709960938e+01
    2.9350711060e+02    4.1674987793e+01
    2.9360861206e+02    4.1638031006e+01
    2.9370828247e+02    4.1601013184e+01
    2.9380792236e+02    4.1564971924e+01
    2.9390765381e+02    4.1528991699e+01
    2.9400839233e+02    4.1490966797e+01
    2.9410739136e+02    4.1455017090e+01
    2.9420809937e+02    4.1418029785e+01
    2.9430706787e+02    4.1380981445e+01
    2.9440774536e+02    4.1343017578e+01
    2.9450839233e+02    4.1304992676e+01
    2.9460769653e+02    4.1266998291e+01
    2.9470712280e+02    4.1228973389e+01
    2.9480834961e+02    4.1190032959e+01
    2.9490768433e+02    4.1151031494e+01
    2.9500698853e+02    4.1111968994e+01
    2.9510812378e+02    4.1072021484e+01
    2.9520742798e+02    4.1031982422e+01
    2.9530810547e+02    4.0991973877e+01
    2.9540863037e+02    4.0951019287e+01
    2.9550741577e+02    4.0911010742e+01
    2.9560794067e+02    4.0868988037e+01
    2.9570849609e+02    4.0827026367e+01
    2.9580728149e+02    4.0785980225e+01
    2.9590780640e+02    4.0744018555e+01
    2.9600772095e+02    4.0701995850e+01
    2.9610708618e+02    4.0658996582e+01
    2.9620828247e+02    4.0614990234e+01
    2.9630758667e+02    4.0571990967e+01
    2.9640869141e+02    4.0526977539e+01
    2.9650790405e+02    4.0483978271e+01
    2.9660705566e+02    4.0440002441e+01
    2.9670800781e+02    4.0394012451e+01
    2.9680822754e+02    4.0347991943e+01
    2.9690847778e+02    4.0302001953e+01
    2.9700872803e+02    4.0255004883e+01
    2.9710726929e+02    4.0208984375e+01
    2.9720758057e+02    4.0160980225e+01
    2.9730795288e+02    4.0114013672e+01
    2.9740774536e+02    4.0065002441e+01
    2.9750711060e+02    4.0016998291e+01
    2.9760836792e+02    3.9966979980e+01
    2.9770785522e+02    3.9918029785e+01
    2.9780743408e+02    3.9869018555e+01
    2.9790890503e+02    3.9817993164e+01
    2.9800860596e+02    3.9768035889e+01
    2.9810836792e+02    3.9717987061e+01
    2.9820816040e+02    3.9667022705e+01
    2.9830767822e+02    3.9617004395e+01
    2.9840878296e+02    3.9565002441e+01
    2.9850820923e+02    3.9514007568e+01
    2.9860769653e+02    3.9462982178e+01
    2.9870898438e+02    3.9412017822e+01
    2.9880780029e+02    3.9360015869e+01
    2.9890808105e+02    3.9308013916e+01
    2.9900845337e+02    3.9256988525e+01
    2.9910885620e+02    3.9206024170e+01
    2.9920745850e+02    3.9153991699e+01
    2.9930780029e+02    3.9104003906e+01
    2.9940859985e+02    3.9052001953e+01
    2.9950894165e+02    3.9000000000e+01
    2.9960821533e+02    3.8950012207e+01
    2.9970794678e+02    3.8898986816e+01
    2.9980770874e+02    3.8847961426e+01
    2.9990747070e+02    3.8797973633e+01
endcurve
