Curveplot
LS-DYNA keyword deck by LS-PrePost
Abscissa
Ordinate
XY data
CHOP_EAMZ_mo-1 #pts=3000
* Minval=    -4.2927898407e+01 at time=       232.2037811279
* Maxval=     1.0824100173e-05 at time=         5.0994668007
    0.0000000000e+00    0.0000000000e+00
    9.9644668400e-02    2.4284502387e-41
    1.9928933680e-01    4.4814201329e-33
    2.9893401265e-01    3.3506901616e-27
    3.9857867360e-01    2.3863499291e-22
    4.9822333455e-01    2.2218699393e-19
    5.9964740276e-01    1.8349100036e-16
    6.9929206371e-01    1.4766199374e-10
    7.9867684841e-01    4.1272201656e-08
    8.9995086193e-01    2.0423100011e-07
    9.9834614992e-01    3.3816999689e-07
    1.0998604298e+00    3.8373900679e-07
    1.1992453337e+00    4.1625798985e-07
    1.2997497320e+00    4.9914501687e-07
    1.3991347551e+00    6.0598597429e-07
    1.4996393919e+00    6.6394500209e-07
    1.5995938778e+00    7.4376600878e-07
    1.6987783909e+00    8.8290602207e-07
    1.7983825207e+00    9.9311898794e-07
    1.8998765945e+00    1.1001000075e-06
    1.9996119738e+00    1.2636600104e-06
    2.0987780094e+00    1.4454100210e-06
    2.1996326447e+00    1.6181700175e-06
    2.2981371880e+00    1.7806900132e-06
    2.3995006084e+00    1.9419198907e-06
    2.4996550083e+00    2.0617198970e-06
    2.5997002125e+00    2.1771800220e-06
    2.6999650002e+00    2.3451100333e-06
    2.7984685898e+00    2.4751400360e-06
    2.8998689651e+00    2.5619699500e-06
    2.9993793964e+00    2.5746201118e-06
    3.0994019508e+00    2.5440499485e-06
    3.1982393265e+00    2.6058501135e-06
    3.2999813557e+00    2.8170700261e-06
    3.3991782665e+00    3.1504100662e-06
    3.4996979237e+00    3.5171099171e-06
    3.5988793373e+00    3.8687098822e-06
    3.6992003918e+00    4.2394299271e-06
    3.7988593578e+00    4.6608602133e-06
    3.8988263607e+00    5.1110500863e-06
    3.9995431900e+00    5.6024100559e-06
    4.0988116264e+00    6.0579600358e-06
    4.1985211372e+00    6.5788899519e-06
    4.2982501984e+00    7.1709000622e-06
    4.3988957405e+00    7.7316899478e-06
    4.4992995262e+00    8.2818096416e-06
    4.5995016098e+00    8.8342903837e-06
    4.6982326508e+00    9.3578701126e-06
    4.7999510765e+00    9.8723103292e-06
    4.8983483315e+00    1.0317399756e-05
    4.9988532066e+00    1.0681000276e-05
    5.0994668007e+00    1.0824100173e-05
    5.1990876198e+00    1.0780099728e-05
    5.2992548943e+00    1.0674500118e-05
    5.3985223770e+00    1.0535200090e-05
    5.4991283417e+00    1.0346399904e-05
    5.5990543365e+00    1.0012199709e-05
    5.6985406876e+00    9.5619298008e-06
    5.7997145653e+00    8.9323903012e-06
    5.8991079330e+00    8.1083198893e-06
    5.9981293678e+00    7.1199401646e-06
    6.0984897614e+00    6.0326801758e-06
    6.1987595558e+00    4.7687499318e-06
    6.2991209030e+00    3.2915500014e-06
    6.3999624252e+00    1.6867300019e-06
    6.4991149902e+00   -8.9118898927e-08
    6.5982871056e+00   -2.2050001007e-06
    6.6984486580e+00   -4.7457601795e-06
    6.7983894348e+00   -7.5158900472e-06
    6.8987689018e+00   -1.0445000044e-05
    6.9986882210e+00   -1.3490600395e-05
    7.0993790627e+00   -1.6756099285e-05
    7.1986408234e+00   -2.0187100745e-05
    7.2984724045e+00   -2.3870699806e-05
    7.3985238075e+00   -2.7827099984e-05
    7.4999151230e+00   -3.2125801226e-05
    7.5999469757e+00   -3.6657198507e-05
    7.6996512413e+00   -4.1441799112e-05
    7.7992854118e+00   -4.6470799134e-05
    7.8986787796e+00   -5.1750499551e-05
    7.9991712570e+00   -5.7334098528e-05
    8.0998630524e+00   -6.3191197114e-05
    8.1984853745e+00   -6.9260502642e-05
    8.2996377945e+00   -7.5795396697e-05
    8.3982439041e+00   -8.2410100731e-05
    8.4985017776e+00   -8.9369401394e-05
    8.5991115570e+00   -9.6644602309e-05
    8.6992826462e+00   -1.0407900118e-04
    8.7985725403e+00   -1.1154299864e-04
    8.8997306824e+00   -1.1927600281e-04
    8.9997901917e+00   -1.2718599464e-04
    9.0997190475e+00   -1.3541099906e-04
    9.1993360519e+00   -1.4399600332e-04
    9.2992801666e+00   -1.5297699429e-04
    9.3986368179e+00   -1.6216399672e-04
    9.4987831116e+00   -1.7159199342e-04
    9.5996103287e+00   -1.8119299784e-04
    9.6994476318e+00   -1.9089999842e-04
    9.7999267578e+00   -2.0095599757e-04
    9.8990697861e+00   -2.1113500406e-04
    9.9983463287e+00   -2.2150800214e-04
    1.0098764420e+01   -2.3224699544e-04
    1.0199291229e+01   -2.4325400591e-04
    1.0298808098e+01   -2.5433299015e-04
    1.0399515152e+01   -2.6575900847e-04
    1.0498553276e+01   -2.7728101122e-04
    1.0599480629e+01   -2.8929600376e-04
    1.0699219704e+01   -3.0138200964e-04
    1.0799749374e+01   -3.1384101021e-04
    1.0898918152e+01   -3.2640798599e-04
    1.0999976158e+01   -3.3942799200e-04
    1.1098901749e+01   -3.5231601214e-04
    1.1199955940e+01   -3.6567900679e-04
    1.1298659325e+01   -3.7893699482e-04
    1.1399050713e+01   -3.9264699444e-04
    1.1499440193e+01   -4.0667600115e-04
    1.1598249435e+01   -4.2072200449e-04
    1.1698875427e+01   -4.3532799464e-04
    1.1798378944e+01   -4.5018200763e-04
    1.1899182320e+01   -4.6561399358e-04
    1.1998335838e+01   -4.8106198665e-04
    1.2099510193e+01   -4.9706600839e-04
    1.2199143410e+01   -5.1303801592e-04
    1.2299744606e+01   -5.2935199346e-04
    1.2398460388e+01   -5.4560397984e-04
    1.2498364449e+01   -5.6251999922e-04
    1.2599061012e+01   -5.7999702403e-04
    1.2699979782e+01   -5.9786002384e-04
    1.2799487114e+01   -6.1593897408e-04
    1.2899122238e+01   -6.3443998806e-04
    1.2999505997e+01   -6.5351597732e-04
    1.3099875450e+01   -6.7298399517e-04
    1.3199023247e+01   -6.9234101102e-04
    1.3299539566e+01   -7.1208301233e-04
    1.3399533272e+01   -7.3189899558e-04
    1.3499732971e+01   -7.5208098860e-04
    1.3598946571e+01   -7.7240902465e-04
    1.3699939728e+01   -7.9345598351e-04
    1.3799702644e+01   -8.1456301268e-04
    1.3899205208e+01   -8.3582499065e-04
    1.3999148369e+01   -8.5740897339e-04
    1.4099313736e+01   -8.7931298185e-04
    1.4198269844e+01   -9.0117799118e-04
    1.4298382759e+01   -9.2358497204e-04
    1.4399828911e+01   -9.4666500809e-04
    1.4498350143e+01   -9.6952001331e-04
    1.4599529266e+01   -9.9349499214e-04
    1.4698245049e+01   -1.0173600167e-03
    1.4799729347e+01   -1.0423200438e-03
    1.4898662567e+01   -1.0671500349e-03
    1.4999084473e+01   -1.0929499986e-03
    1.5099720001e+01   -1.1196100386e-03
    1.5198350906e+01   -1.1464300333e-03
    1.5298517227e+01   -1.1741500348e-03
    1.5399540901e+01   -1.2025400065e-03
    1.5498674393e+01   -1.2309399899e-03
    1.5599384308e+01   -1.2605399825e-03
    1.5698990822e+01   -1.2905299664e-03
    1.5798612595e+01   -1.3213199563e-03
    1.5899548531e+01   -1.3533800375e-03
    1.5999652863e+01   -1.3859999599e-03
    1.6099533081e+01   -1.4193400275e-03
    1.6199302673e+01   -1.4535200316e-03
    1.6298414230e+01   -1.4883199474e-03
    1.6398687363e+01   -1.5242299996e-03
    1.6498300552e+01   -1.5607200330e-03
    1.6598442078e+01   -1.5985999489e-03
    1.6699703217e+01   -1.6382000176e-03
    1.6799314499e+01   -1.6782600433e-03
    1.6900022507e+01   -1.7197399866e-03
    1.6998470306e+01   -1.7612100346e-03
    1.7098567963e+01   -1.8043000018e-03
    1.7198905945e+01   -1.8484500470e-03
    1.7298345566e+01   -1.8931999803e-03
    1.7399736404e+01   -1.9398300210e-03
    1.7499460220e+01   -1.9867699593e-03
    1.7599563599e+01   -2.0349400584e-03
    1.7700019836e+01   -2.0844200626e-03
    1.7799631119e+01   -2.1346900612e-03
    1.7899240494e+01   -2.1861901041e-03
    1.7998786926e+01   -2.2388400976e-03
    1.8098701477e+01   -2.2929199040e-03
    1.8198375702e+01   -2.3481401149e-03
    1.8298400879e+01   -2.4047100451e-03
    1.8398958206e+01   -2.4627200328e-03
    1.8499059677e+01   -2.5216399226e-03
    1.8599334717e+01   -2.5818799622e-03
    1.8699607849e+01   -2.6432399172e-03
    1.8798980713e+01   -2.7050599456e-03
    1.8899435043e+01   -2.7685998939e-03
    1.9000022888e+01   -2.8334399685e-03
    1.9100019455e+01   -2.8992400039e-03
    1.9199048996e+01   -2.9657599516e-03
    1.9298425674e+01   -3.0337499920e-03
    1.9398422241e+01   -3.1032999977e-03
    1.9498443604e+01   -3.1739398837e-03
    1.9599842072e+01   -3.2466500998e-03
    1.9698564529e+01   -3.3185500652e-03
    1.9799581528e+01   -3.3933399245e-03
    1.9899705887e+01   -3.4686799627e-03
    1.9999288559e+01   -3.5447198898e-03
    2.0098697662e+01   -3.6217099987e-03
    2.0198348999e+01   -3.6999499425e-03
    2.0299779892e+01   -3.7806099281e-03
    2.0399959564e+01   -3.8613099605e-03
    2.0498212814e+01   -3.9415801875e-03
    2.0598485947e+01   -4.0246699937e-03
    2.0699329376e+01   -4.1093700565e-03
    2.0798984528e+01   -4.1942601092e-03
    2.0898744583e+01   -4.2804400437e-03
    2.0998222351e+01   -4.3675298803e-03
    2.1099475861e+01   -4.4572600164e-03
    2.1198196411e+01   -4.5458697714e-03
    2.1299110413e+01   -4.6376897953e-03
    2.1399915695e+01   -4.7306800261e-03
    2.1499967575e+01   -4.8242202029e-03
    2.1599319458e+01   -4.9182199873e-03
    2.1699476242e+01   -5.0142700784e-03
    2.1799100876e+01   -5.1112701185e-03
    2.1898920059e+01   -5.2098198794e-03
    2.1998298645e+01   -5.3092101589e-03
    2.2099454880e+01   -5.4116700776e-03
    2.2198722839e+01   -5.5134999566e-03
    2.2298189163e+01   -5.6166900322e-03
    2.2399984360e+01   -5.7235602289e-03
    2.2498773575e+01   -5.8286199346e-03
    2.2598884583e+01   -5.9364298359e-03
    2.2698997498e+01   -6.0455901548e-03
    2.2799680710e+01   -6.1570098624e-03
    2.2899301529e+01   -6.2688700855e-03
    2.2998918533e+01   -6.3823899254e-03
    2.3099033356e+01   -6.4980499446e-03
    2.3199619293e+01   -6.6154999658e-03
    2.3299268723e+01   -6.7330198362e-03
    2.3398923874e+01   -6.8517802283e-03
    2.3498786926e+01   -6.9722197950e-03
    2.3598436356e+01   -7.0939399302e-03
    2.3699888229e+01   -7.2193997912e-03
    2.3799098969e+01   -7.3434598744e-03
    2.3898399353e+01   -7.4689001776e-03
    2.3998563766e+01   -7.5966701843e-03
    2.4098733902e+01   -7.7257598750e-03
    2.4198814392e+01   -7.8561101109e-03
    2.4298492432e+01   -7.9874396324e-03
    2.4399940491e+01   -8.1227999181e-03
    2.4500019073e+01   -8.2581201568e-03
    2.4599746704e+01   -8.3947498351e-03
    2.4699777603e+01   -8.5334498435e-03
    2.4799495697e+01   -8.6733298376e-03
    2.4898862839e+01   -8.8144196197e-03
    2.4998836517e+01   -8.9582502842e-03
    2.5098476410e+01   -9.1037498787e-03
    2.5199890137e+01   -9.2539703473e-03
    2.5299737930e+01   -9.4036804512e-03
    2.5399740219e+01   -9.5552196726e-03
    2.5499414444e+01   -9.7080599517e-03
    2.5599195480e+01   -9.8630702123e-03
    2.5698812485e+01   -1.0019799694e-02
    2.5798421860e+01   -1.0178700089e-02
    2.5898353577e+01   -1.0340300389e-02
    2.5999998093e+01   -1.0507100262e-02
    2.6099861145e+01   -1.0673400015e-02
    2.6198402405e+01   -1.0839699768e-02
    2.6298484802e+01   -1.1010900140e-02
    2.6399028778e+01   -1.1184999719e-02
    2.6498607635e+01   -1.1359700002e-02
    2.6598625183e+01   -1.1537799612e-02
    2.6700000763e+01   -1.1721200310e-02
    2.6799594879e+01   -1.1904199608e-02
    2.6899187088e+01   -1.2089599855e-02
    2.6999986649e+01   -1.2279699557e-02
    2.7099403381e+01   -1.2469599955e-02
    2.7200050354e+01   -1.2664400041e-02
    2.7298809052e+01   -1.2857999653e-02
    2.7399587631e+01   -1.3058399782e-02
    2.7499704361e+01   -1.3260399923e-02
    2.7599781036e+01   -1.3465099968e-02
    2.7698648453e+01   -1.3670099899e-02
    2.7798448563e+01   -1.3879899867e-02
    2.7899450302e+01   -1.4095099643e-02
    2.7998519897e+01   -1.4309000224e-02
    2.8099842072e+01   -1.4530699700e-02
    2.8198944092e+01   -1.4750599861e-02
    2.8298927307e+01   -1.4975500293e-02
    2.8398981094e+01   -1.5203500167e-02
    2.8499391556e+01   -1.5435400419e-02
    2.8598966599e+01   -1.5668399632e-02
    2.8699089050e+01   -1.5905700624e-02
    2.8798662186e+01   -1.6144299880e-02
    2.8899751663e+01   -1.6389500350e-02
    2.8998718262e+01   -1.6632499173e-02
    2.9098787308e+01   -1.6881400719e-02
    2.9198768616e+01   -1.7133099958e-02
    2.9299558640e+01   -1.7389899120e-02
    2.9399633408e+01   -1.7648000270e-02
    2.9499403000e+01   -1.7908100039e-02
    2.9598318100e+01   -1.8168900162e-02
    2.9698682785e+01   -1.8436400220e-02
    2.9800003052e+01   -1.8709700555e-02
    2.9899883270e+01   -1.8982199952e-02
    2.9999998093e+01   -1.9258100539e-02
    3.0098602295e+01   -1.9532600418e-02
    3.0200019836e+01   -1.9817799330e-02
    3.0299659729e+01   -2.0100699738e-02
    3.0399171829e+01   -2.0385900512e-02
    3.0499309540e+01   -2.0675599575e-02
    3.0599008560e+01   -2.0966999233e-02
    3.0698991776e+01   -2.1261900663e-02
    3.0798641205e+01   -2.1558700129e-02
    3.0898929596e+01   -2.1860400215e-02
    3.0999063492e+01   -2.2164499387e-02
    3.1099655151e+01   -2.2472899407e-02
    3.1198608398e+01   -2.2779300809e-02
    3.1299425125e+01   -2.3094400764e-02
    3.1398771286e+01   -2.3407999426e-02
    3.1499235153e+01   -2.3728199303e-02
    3.1599344254e+01   -2.4050200358e-02
    3.1699052811e+01   -2.4373900145e-02
    3.1798660278e+01   -2.4700500071e-02
    3.1898815155e+01   -2.5031900033e-02
    3.1999830246e+01   -2.5369100273e-02
    3.2099437714e+01   -2.5704400614e-02
    3.2199039459e+01   -2.6042699814e-02
    3.2299148560e+01   -2.6385599747e-02
    3.2398601532e+01   -2.6729200035e-02
    3.2498691559e+01   -2.7078399435e-02
    3.2598789215e+01   -2.7430899441e-02
    3.2698886871e+01   -2.7786599472e-02
    3.2799327850e+01   -2.8147200122e-02
    3.2898925781e+01   -2.8508400545e-02
    3.2998516083e+01   -2.8873199597e-02
    3.3099620819e+01   -2.9247000813e-02
    3.3199100494e+01   -2.9617700726e-02
    3.3298751831e+01   -2.9991600662e-02
    3.3398422241e+01   -3.0368400738e-02
    3.3499736786e+01   -3.0754700303e-02
    3.3599079132e+01   -3.1137099490e-02
    3.3699657440e+01   -3.1527601182e-02
    3.3799346924e+01   -3.1918101013e-02
    3.3898883820e+01   -3.2311100513e-02
    3.3999065399e+01   -3.2709799707e-02
    3.4099254608e+01   -3.3112000674e-02
    3.4199443817e+01   -3.3517401665e-02
    3.4299869537e+01   -3.3927101642e-02
    3.4399551392e+01   -3.4337498248e-02
    3.4498828888e+01   -3.4749899060e-02
    3.4599037170e+01   -3.5170100629e-02
    3.4698753357e+01   -3.5591900349e-02
    3.4798881531e+01   -3.6019299179e-02
    3.4898456573e+01   -3.6448199302e-02
    3.4998504639e+01   -3.6883398890e-02
    3.5099002838e+01   -3.7325400859e-02
    3.5198608398e+01   -3.7767898291e-02
    3.5299983978e+01   -3.8222398609e-02
    3.5399642944e+01   -3.8672998548e-02
    3.5499847412e+01   -3.9130099118e-02
    3.5599723816e+01   -3.9590001106e-02
    3.5698516846e+01   -4.0049098432e-02
    3.5799869537e+01   -4.0524698794e-02
    3.5898952484e+01   -4.0994301438e-02
    3.5999000549e+01   -4.1473001242e-02
    3.6099060059e+01   -4.1956398636e-02
    3.6199333191e+01   -4.2445600033e-02
    3.6299373627e+01   -4.2938601226e-02
    3.6399482727e+01   -4.3436501175e-02
    3.6499809265e+01   -4.3940398842e-02
    3.6599678040e+01   -4.4447600842e-02
    3.6699234009e+01   -4.4959001243e-02
    3.6798789978e+01   -4.5475598425e-02
    3.6898342133e+01   -4.5997001231e-02
    3.6999279022e+01   -4.6530399472e-02
    3.7099315643e+01   -4.7063801438e-02
    3.7198692322e+01   -4.7598700970e-02
    3.7298439026e+01   -4.8140801489e-02
    3.7398315430e+01   -4.8689100891e-02
    3.7498409271e+01   -4.9244299531e-02
    3.7598438263e+01   -4.9804799259e-02
    3.7699916840e+01   -5.0379399210e-02
    3.7799449921e+01   -5.0948798656e-02
    3.7899845123e+01   -5.1529001445e-02
    3.7999843597e+01   -5.2112698555e-02
    3.8099109650e+01   -5.2697699517e-02
    3.8198932648e+01   -5.3291998804e-02
    3.8298389435e+01   -5.3889799863e-02
    3.8399608612e+01   -5.4503999650e-02
    3.8499282837e+01   -5.5114600807e-02
    3.8599353790e+01   -5.5733498186e-02
    3.8698871613e+01   -5.6354600936e-02
    3.8798389435e+01   -5.6980900466e-02
    3.8898651123e+01   -5.7617198676e-02
    3.8998657227e+01   -5.8257799596e-02
    3.9098667145e+01   -5.8904599398e-02
    3.9199176788e+01   -5.9561099857e-02
    3.9299110413e+01   -6.0219898820e-02
    3.9399120331e+01   -6.0885101557e-02
    3.9498504639e+01   -6.1551500112e-02
    3.9599822998e+01   -6.2236499041e-02
    3.9699127197e+01   -6.2913402915e-02
    3.9799213409e+01   -6.3601501286e-02
    3.9899280548e+01   -6.4295403659e-02
    3.9998928070e+01   -6.4991898835e-02
    4.0099857330e+01   -6.5702900290e-02
    4.0199478149e+01   -6.6410198808e-02
    4.0299098969e+01   -6.7122898996e-02
    4.0398353577e+01   -6.7838296294e-02
    4.0498481750e+01   -6.8565502763e-02
    4.0598518372e+01   -6.9297797978e-02
    4.0698715210e+01   -7.0036903024e-02
    4.0798355103e+01   -7.0777498186e-02
    4.0899299622e+01   -7.1533501148e-02
    4.0999423981e+01   -7.2289101779e-02
    4.1099540710e+01   -7.3049999774e-02
    4.1199337006e+01   -7.3813997209e-02
    4.1299434662e+01   -7.4585899711e-02
    4.1399658203e+01   -7.5364500284e-02
    4.1499214172e+01   -7.6143898070e-02
    4.1599300385e+01   -7.6932899654e-02
    4.1699085236e+01   -7.7725499868e-02
    4.1798656464e+01   -7.8522503376e-02
    4.1898746490e+01   -7.9329401255e-02
    4.1998840332e+01   -8.0141596496e-02
    4.2098407745e+01   -8.0954700708e-02
    4.2198299408e+01   -8.1775598228e-02
    4.2299823761e+01   -8.2615099847e-02
    4.2398780823e+01   -8.3438798785e-02
    4.2498844147e+01   -8.4277696908e-02
    4.2598911285e+01   -8.5122801363e-02
    4.2698986053e+01   -8.5974000394e-02
    4.2799537659e+01   -8.6835898459e-02
    4.2899108887e+01   -8.7695799768e-02
    4.2999004364e+01   -8.8564999402e-02
    4.3099079132e+01   -8.9441902936e-02
    4.3199871063e+01   -9.0330198407e-02
    4.3299522400e+01   -9.1213703156e-02
    4.3399192810e+01   -9.2102497816e-02
    4.3499748230e+01   -9.3005202711e-02
    4.3599456787e+01   -9.3906596303e-02
    4.3699169159e+01   -9.4814203680e-02
    4.3798877716e+01   -9.5727898180e-02
    4.3899314880e+01   -9.6654303372e-02
    4.3999515533e+01   -9.7584500909e-02
    4.4099723816e+01   -9.8521001637e-02
    4.4198036194e+01   -9.9445901811e-02
    4.4298381805e+01   -1.0039599985e-01
    4.4399837494e+01   -1.0136400163e-01
    4.4499328613e+01   -1.0232000053e-01
    4.4599395752e+01   -1.0328800231e-01
    4.4699516296e+01   -1.0426399857e-01
    4.4799629211e+01   -1.0524599999e-01
    4.4899730682e+01   -1.0623499751e-01
    4.4998546600e+01   -1.0721900314e-01
    4.5098140717e+01   -1.0821799934e-01
    4.5199497223e+01   -1.0924299806e-01
    4.5298046112e+01   -1.1024600267e-01
    4.5398090363e+01   -1.1127100140e-01
    4.5498126984e+01   -1.1230300367e-01
    4.5599277496e+01   -1.1335500330e-01
    4.5698810577e+01   -1.1439699680e-01
    4.5798332214e+01   -1.1544600129e-01
    4.5898017883e+01   -1.1650600284e-01
    4.5998008728e+01   -1.1757600307e-01
    4.6097988129e+01   -1.1865399778e-01
    4.6199428558e+01   -1.1975699663e-01
    4.6299407959e+01   -1.2085100263e-01
    4.6398120880e+01   -1.2194000185e-01
    4.6499397278e+01   -1.2306399643e-01
    4.6598899841e+01   -1.2417899817e-01
    4.6698402405e+01   -1.2530200183e-01
    4.6799678802e+01   -1.2645499408e-01
    4.6899173737e+01   -1.2759600580e-01
    4.6999542236e+01   -1.2875500321e-01
    4.7098857880e+01   -1.2991000712e-01
    4.7199291229e+01   -1.3108700514e-01
    4.7299266815e+01   -1.3226599991e-01
    4.7398078918e+01   -1.3344100118e-01
    4.7498756409e+01   -1.3464599848e-01
    4.7598289490e+01   -1.3584800065e-01
    4.7699813843e+01   -1.3708299398e-01
    4.7799278259e+01   -1.3830299675e-01
    4.7898590088e+01   -1.3953100145e-01
    4.7998500824e+01   -1.4077499509e-01
    4.8099559784e+01   -1.4204399288e-01
    4.8198963165e+01   -1.4330199361e-01
    4.8298854828e+01   -1.4457499981e-01
    4.8398754120e+01   -1.4585700631e-01
    4.8498462677e+01   -1.4714500308e-01
    4.8599662781e+01   -1.4846299589e-01
    4.8699085236e+01   -1.4976699650e-01
    4.8798507690e+01   -1.5107899904e-01
    4.8899772644e+01   -1.5242500603e-01
    4.8999694824e+01   -1.5376299620e-01
    4.9099620819e+01   -1.5511000156e-01
    4.9198139191e+01   -1.5644900501e-01
    4.9298316956e+01   -1.5782000124e-01
    4.9398250580e+01   -1.5919700265e-01
    4.9499446869e+01   -1.6060100496e-01
    4.9598911285e+01   -1.6199000180e-01
    4.9698387146e+01   -1.6338799894e-01
    4.9799617767e+01   -1.6482000053e-01
    4.9899623871e+01   -1.6624499857e-01
    4.9999660492e+01   -1.6767899692e-01
    5.0098098755e+01   -1.6909800470e-01
    5.0199462891e+01   -1.7056900263e-01
    5.0299053192e+01   -1.7202299833e-01
    5.0399291992e+01   -1.7349499464e-01
    5.0499393463e+01   -1.7497399449e-01
    5.0598949432e+01   -1.7645500600e-01
    5.0699668884e+01   -1.7796200514e-01
    5.0799289703e+01   -1.7946100235e-01
    5.0898181915e+01   -1.8095999956e-01
    5.0998275757e+01   -1.8248499930e-01
    5.1098358154e+01   -1.8401899934e-01
    5.1199668884e+01   -1.8558199704e-01
    5.1299720764e+01   -1.8713399768e-01
    5.1399772644e+01   -1.8869499862e-01
    5.1498275757e+01   -1.9024099410e-01
    5.1599540710e+01   -1.9183899462e-01
    5.1698398590e+01   -1.9340799749e-01
    5.1799694061e+01   -1.9502599537e-01
    5.1898193359e+01   -1.9660699368e-01
    5.1998561859e+01   -1.9822700322e-01
    5.2098068237e+01   -1.9984200597e-01
    5.2198875427e+01   -2.0148600638e-01
    5.2298877716e+01   -2.0312500000e-01
    5.2399234772e+01   -2.0477899909e-01
    5.2499244690e+01   -2.0643599331e-01
    5.2599269867e+01   -2.0810300112e-01
    5.2699302673e+01   -2.0977899432e-01
    5.2798126221e+01   -2.1144300699e-01
    5.2899436951e+01   -2.1315999329e-01
    5.2998062134e+01   -2.1484099329e-01
    5.3098098755e+01   -2.1655599773e-01
    5.3198863983e+01   -2.1829199791e-01
    5.3298503876e+01   -2.2001600266e-01
    5.3398166656e+01   -2.2174899280e-01
    5.3498939514e+01   -2.2350999713e-01
    5.3598873138e+01   -2.2526699305e-01
    5.3698589325e+01   -2.2702899575e-01
    5.3798301697e+01   -2.2880199552e-01
    5.3897865295e+01   -2.3058100045e-01
    5.3998069763e+01   -2.3238000274e-01
    5.4098285675e+01   -2.3419000208e-01
    5.4198505402e+01   -2.3601099849e-01
    5.4299053192e+01   -2.3784799874e-01
    5.4398735046e+01   -2.3968000710e-01
    5.4498657227e+01   -2.4152700603e-01
    5.4598705292e+01   -2.4338899553e-01
    5.4699481964e+01   -2.4527400732e-01
    5.4799552917e+01   -2.4715699255e-01
    5.4899612427e+01   -2.4905000627e-01
    5.4999595642e+01   -2.5095298886e-01
    5.5099143982e+01   -2.5285899639e-01
    5.5198669434e+01   -2.5477600098e-01
    5.5298175812e+01   -2.5670298934e-01
    5.5398063660e+01   -2.5864800811e-01
    5.5498039246e+01   -2.6060399413e-01
    5.5598033905e+01   -2.6257300377e-01
    5.5699287415e+01   -2.6457801461e-01
    5.5798744202e+01   -2.6655900478e-01
    5.5898166656e+01   -2.6855099201e-01
    5.5998081207e+01   -2.7056598663e-01
    5.6097984314e+01   -2.7259200811e-01
    5.6199676514e+01   -2.7466699481e-01
    5.6299579620e+01   -2.7671799064e-01
    5.6398529053e+01   -2.7875998616e-01
    5.6497966766e+01   -2.8082299232e-01
    5.6599174500e+01   -2.8293699026e-01
    5.6698612213e+01   -2.8502801061e-01
    5.6798046112e+01   -2.8713199496e-01
    5.6899253845e+01   -2.8928500414e-01
    5.6998672485e+01   -2.9141300917e-01
    5.7097915649e+01   -2.9354900122e-01
    5.7197814941e+01   -2.9571101069e-01
    5.7299598694e+01   -2.9792800546e-01
    5.7399082184e+01   -3.0010798573e-01
    5.7499126434e+01   -3.0231401324e-01
    5.7599010468e+01   -3.0453100801e-01
    5.7698562622e+01   -3.0675500631e-01
    5.7797931671e+01   -3.0898800492e-01
    5.7898361206e+01   -3.1126001477e-01
    5.7998157501e+01   -3.1352999806e-01
    5.8098327637e+01   -3.1582298875e-01
    5.8199378967e+01   -3.1815099716e-01
    5.8298610687e+01   -3.2045000792e-01
    5.8398380280e+01   -3.2277399302e-01
    5.8499187469e+01   -3.2513698936e-01
    5.8598491669e+01   -3.2747799158e-01
    5.8699565887e+01   -3.2987400889e-01
    5.8798862457e+01   -3.3223998547e-01
    5.8898887634e+01   -3.3463698626e-01
    5.8998683929e+01   -3.3704200387e-01
    5.9098491669e+01   -3.3946201205e-01
    5.9198341370e+01   -3.4189701080e-01
    5.9298294067e+01   -3.4434801340e-01
    5.9398117065e+01   -3.4681001306e-01
    5.9497962952e+01   -3.4928599000e-01
    5.9599109650e+01   -3.5180801153e-01
    5.9698490143e+01   -3.5429900885e-01
    5.9799648285e+01   -3.5684901476e-01
    5.9899570465e+01   -3.5938200355e-01
    5.9999534607e+01   -3.6192798615e-01
    6.0098567963e+01   -3.6446300149e-01
    6.0198093414e+01   -3.6702400446e-01
    6.0299407959e+01   -3.6964398623e-01
    6.0398609161e+01   -3.7222099304e-01
    6.0498657227e+01   -3.7483501434e-01
    6.0599182129e+01   -3.7747400999e-01
    6.0698760986e+01   -3.8010299206e-01
    6.0797878265e+01   -3.8273298740e-01
    6.0898948669e+01   -3.8543000817e-01
    6.0998996735e+01   -3.8811299205e-01
    6.1099029541e+01   -3.9080899954e-01
    6.1199272156e+01   -3.9352500439e-01
    6.1299041748e+01   -3.9624100924e-01
    6.1399021149e+01   -3.9897599816e-01
    6.1498992920e+01   -4.0172401071e-01
    6.1598953247e+01   -4.0448299050e-01
    6.1697956085e+01   -4.0722799301e-01
    6.1799171448e+01   -4.1004800797e-01
    6.1898597717e+01   -4.1282999516e-01
    6.1998027802e+01   -4.1562300920e-01
    6.2099235535e+01   -4.1847899556e-01
    6.2198211670e+01   -4.2128300667e-01
    6.2298141479e+01   -4.2412599921e-01
    6.2398086548e+01   -4.2698100209e-01
    6.2498031616e+01   -4.2985001206e-01
    6.2597999573e+01   -4.3273198605e-01
    6.2697975159e+01   -4.3562799692e-01
    6.2797863007e+01   -4.3853500485e-01
    6.2899108887e+01   -4.4149500132e-01
    6.2998905182e+01   -4.4442600012e-01
    6.3098896027e+01   -4.4737601280e-01
    6.3198524475e+01   -4.5032599568e-01
    6.3298133850e+01   -4.5328700542e-01
    6.3399559021e+01   -4.5631501079e-01
    6.3498779297e+01   -4.5928901434e-01
    6.3598480225e+01   -4.6229299903e-01
    6.3698188782e+01   -4.6531099081e-01
    6.3797893524e+01   -4.6834200621e-01
    6.3898326874e+01   -4.7141098976e-01
    6.3998527527e+01   -4.7448599339e-01
    6.4098731995e+01   -4.7757700086e-01
    6.4198936462e+01   -4.8068299890e-01
    6.4298355103e+01   -4.8377999663e-01
    6.4398010254e+01   -4.8690000176e-01
    6.4498008728e+01   -4.9004599452e-01
    6.4598266602e+01   -4.9321699142e-01
    6.4699348450e+01   -4.9642899632e-01
    6.4799369812e+01   -4.9962300062e-01
    6.4899368286e+01   -5.0283002853e-01
    6.4998397827e+01   -5.0602102280e-01
    6.5097877502e+01   -5.0924402475e-01
    6.5199111938e+01   -5.1253801584e-01
    6.5298538208e+01   -5.1578897238e-01
    6.5399162292e+01   -5.1909297705e-01
    6.5499061584e+01   -5.2238798141e-01
    6.5599525452e+01   -5.2571797371e-01
    6.5698921204e+01   -5.2902799845e-01
    6.5798294067e+01   -5.3235399723e-01
    6.5897834778e+01   -5.3570097685e-01
    6.5999557495e+01   -5.3913897276e-01
    6.6098937988e+01   -5.4251497984e-01
    6.6199455261e+01   -5.4594600201e-01
    6.6299278259e+01   -5.4936999083e-01
    6.6399482727e+01   -5.5282300711e-01
    6.6498840332e+01   -5.5626398325e-01
    6.6598190308e+01   -5.5972099304e-01
    6.6699317932e+01   -5.6325900555e-01
    6.6798683167e+01   -5.6675297022e-01
    6.6898033142e+01   -5.7026201487e-01
    6.6999145508e+01   -5.7385098934e-01
    6.7099243164e+01   -5.7741999626e-01
    6.7198074341e+01   -5.8096098900e-01
    6.7298454285e+01   -5.8457601070e-01
    6.7399185181e+01   -5.8822399378e-01
    6.7497909546e+01   -5.9181797504e-01
    6.7597702026e+01   -5.9547001123e-01
    6.7699356079e+01   -5.9921097755e-01
    6.7798828125e+01   -6.0289102793e-01
    6.7897789001e+01   -6.0657101870e-01
    6.7999328613e+01   -6.1036598682e-01
    6.8098121643e+01   -6.1407697201e-01
    6.8199020386e+01   -6.1788499355e-01
    6.8297653198e+01   -6.2162500620e-01
    6.8399147034e+01   -6.2549102306e-01
    6.8498237610e+01   -6.2928301096e-01
    6.8599159241e+01   -6.3316297531e-01
    6.8698303223e+01   -6.3699197769e-01
    6.8799217224e+01   -6.4090698957e-01
    6.8899200439e+01   -6.4480298758e-01
    6.8998847961e+01   -6.4870500565e-01
    6.9098510742e+01   -6.5262597799e-01
    6.9197891235e+01   -6.5655601025e-01
    6.9299468994e+01   -6.6059201956e-01
    6.9399154663e+01   -6.6457098722e-01
    6.9497993469e+01   -6.6853398085e-01
    6.9599014282e+01   -6.7260301113e-01
    6.9698280334e+01   -6.7661798000e-01
    6.9798995972e+01   -6.8071097136e-01
    6.9898811340e+01   -6.8478500843e-01
    6.9998680115e+01   -6.8887799978e-01
    7.0097732544e+01   -6.9295400381e-01
    7.0198951721e+01   -6.9713801146e-01
    7.0298408508e+01   -7.0126700401e-01
    7.0398422241e+01   -7.0543700457e-01
    7.0498405457e+01   -7.0962399244e-01
    7.0597740173e+01   -7.1380400658e-01
    7.0699028015e+01   -7.1808499098e-01
    7.0797859192e+01   -7.2228199244e-01
    7.0897842407e+01   -7.2654801607e-01
    7.0997810364e+01   -7.3083198071e-01
    7.1097755432e+01   -7.3513501883e-01
    7.1197677612e+01   -7.3945498466e-01
    7.1299461365e+01   -7.4387300014e-01
    7.1399353027e+01   -7.4822801352e-01
    7.1499229431e+01   -7.5259798765e-01
    7.1598777771e+01   -7.5696998835e-01
    7.1698143005e+01   -7.6134997606e-01
    7.1799255371e+01   -7.6582300663e-01
    7.1898574829e+01   -7.7023297548e-01
    7.1997894287e+01   -7.7465802431e-01
    7.2098999023e+01   -7.7917599678e-01
    7.2199409485e+01   -7.8368002176e-01
    7.2299255371e+01   -7.8817301989e-01
    7.2399116516e+01   -7.9268300533e-01
    7.2498985291e+01   -7.9721200466e-01
    7.2598876953e+01   -8.0175799131e-01
    7.2698783875e+01   -8.0632197857e-01
    7.2797836304e+01   -8.1086498499e-01
    7.2899009705e+01   -8.1552302837e-01
    7.2998962402e+01   -8.2014101744e-01
    7.3098884583e+01   -8.2477498055e-01
    7.3198463440e+01   -8.2940697670e-01
    7.3298019409e+01   -8.3405297995e-01
    7.3397613525e+01   -8.3871597052e-01
    7.3499336243e+01   -8.4349602461e-01
    7.3598999023e+01   -8.4819799662e-01
    7.3698661804e+01   -8.5291898251e-01
    7.3798332214e+01   -8.5765898228e-01
    7.3898399353e+01   -8.6243700981e-01
    7.3998565674e+01   -8.6724001169e-01
    7.4098731995e+01   -8.7206500769e-01
    7.4198890686e+01   -8.7690997124e-01
    7.4299026489e+01   -8.8177502155e-01
    7.4397735596e+01   -8.8659101725e-01
    7.4497787476e+01   -8.9149498940e-01
    7.4598960876e+01   -8.9647501707e-01
    7.4698753357e+01   -9.0140700340e-01
    7.4798683167e+01   -9.0636402369e-01
    7.4898597717e+01   -9.1133797169e-01
    7.4999420166e+01   -9.1637700796e-01
    7.5098808289e+01   -9.2136400938e-01
    7.5198173523e+01   -9.2636901140e-01
    7.5299278259e+01   -9.3147999048e-01
    7.5398597717e+01   -9.3651801348e-01
    7.5498970032e+01   -9.4163000584e-01
    7.5599334717e+01   -9.4676202536e-01
    7.5698646545e+01   -9.5185899734e-01
    7.5798484802e+01   -9.5700502396e-01
    7.5898513794e+01   -9.6218097210e-01
    7.5998268127e+01   -9.6736401320e-01
    7.6098014832e+01   -9.7256797552e-01
    7.6197547913e+01   -9.7778302431e-01
    7.6299171448e+01   -9.8312699795e-01
    7.6398399353e+01   -9.8836600780e-01
    7.6497673035e+01   -9.9362802505e-01
    7.6598724365e+01   -9.9900501966e-01
    7.6697998047e+01   -1.0043100119e+00
    7.6799057007e+01   -1.0097299814e+00
    7.6898330688e+01   -1.0150799751e+00
    7.6999366760e+01   -1.0205500126e+00
    7.7098609924e+01   -1.0259399414e+00
    7.7198585510e+01   -1.0313899517e+00
    7.7297973633e+01   -1.0368299484e+00
    7.7398368835e+01   -1.0423500538e+00
    7.7498069763e+01   -1.0478600264e+00
    7.7597747803e+01   -1.0534000397e+00
    7.7699287415e+01   -1.0590599775e+00
    7.7798950195e+01   -1.0646400452e+00
    7.7897987366e+01   -1.0702199936e+00
    7.7999374390e+01   -1.0759400129e+00
    7.8099342346e+01   -1.0816099644e+00
    7.8198303223e+01   -1.0872499943e+00
    7.8298873901e+01   -1.0929900408e+00
    7.8398307800e+01   -1.0986900330e+00
    7.8497680664e+01   -1.1044100523e+00
    7.8598411560e+01   -1.1102199554e+00
    7.8699142456e+01   -1.1160600185e+00
    7.8798110962e+01   -1.1218199730e+00
    7.8898254395e+01   -1.1276600361e+00
    7.8998191833e+01   -1.1335200071e+00
    7.9097694397e+01   -1.1393699646e+00
    7.9198348999e+01   -1.1453100443e+00
    7.9298652649e+01   -1.1512600183e+00
    7.9398185730e+01   -1.1571899652e+00
    7.9497749329e+01   -1.1631300449e+00
    7.9597496033e+01   -1.1691099405e+00
    7.9698616028e+01   -1.1751999855e+00
    7.9798095703e+01   -1.1812000275e+00
    7.9897773743e+01   -1.1872400045e+00
    7.9997497559e+01   -1.1933100224e+00
    8.0097618103e+01   -1.1994099617e+00
    8.0198715210e+01   -1.2056000233e+00
    8.0298057556e+01   -1.2117099762e+00
    8.0399185181e+01   -1.2179399729e+00
    8.0498634338e+01   -1.2240999937e+00
    8.0598983765e+01   -1.2303299904e+00
    8.0698387146e+01   -1.2365299463e+00
    8.0797767639e+01   -1.2427599430e+00
    8.0897644043e+01   -1.2490400076e+00
    8.0997505188e+01   -1.2553499937e+00
    8.1099220276e+01   -1.2617900372e+00
    8.1199020386e+01   -1.2681399584e+00
    8.1298789978e+01   -1.2745100260e+00
    8.1398551941e+01   -1.2809000015e+00
    8.1498306274e+01   -1.2873100042e+00
    8.1598045349e+01   -1.2937300205e+00
    8.1697723389e+01   -1.3001699448e+00
    8.1798698425e+01   -1.3067100048e+00
    8.1897895813e+01   -1.3131500483e+00
    8.1998870850e+01   -1.3197200298e+00
    8.2098083496e+01   -1.3262000084e+00
    8.2199073792e+01   -1.3328100443e+00
    8.2298812866e+01   -1.3393599987e+00
    8.2398567200e+01   -1.3459199667e+00
    8.2498344421e+01   -1.3525099754e+00
    8.2598152161e+01   -1.3591300249e+00
    8.2697975159e+01   -1.3657599688e+00
    8.2798156738e+01   -1.3724399805e+00
    8.2899246216e+01   -1.3791999817e+00
    8.2999229431e+01   -1.3859000206e+00
    8.3099082947e+01   -1.3926199675e+00
    8.3198158264e+01   -1.3992999792e+00
    8.3297653198e+01   -1.4060200453e+00
    8.3398971558e+01   -1.4128799438e+00
    8.3498863220e+01   -1.4196699858e+00
    8.3598464966e+01   -1.4264600277e+00
    8.3698081970e+01   -1.4332799911e+00
    8.3797691345e+01   -1.4401199818e+00
    8.3898269653e+01   -1.4470399618e+00
    8.3998374939e+01   -1.4539599419e+00
    8.4098472595e+01   -1.4609099627e+00
    8.4198562622e+01   -1.4678800106e+00
    8.4298629761e+01   -1.4748799801e+00
    8.4398223877e+01   -1.4818700552e+00
    8.4498199463e+01   -1.4889099598e+00
    8.4598838806e+01   -1.4960299730e+00
    8.4697959900e+01   -1.5030599833e+00
    8.4797782898e+01   -1.5101599693e+00
    8.4897583008e+01   -1.5172799826e+00
    8.4998168945e+01   -1.5244699717e+00
    8.5099212646e+01   -1.5317200422e+00
    8.5198448181e+01   -1.5388499498e+00
    8.5297653198e+01   -1.5460100174e+00
    8.5398628235e+01   -1.5533100367e+00
    8.5497817993e+01   -1.5605100393e+00
    8.5597671509e+01   -1.5677800179e+00
    8.5697830200e+01   -1.5750900507e+00
    8.5798851013e+01   -1.5824899673e+00
    8.5898101807e+01   -1.5897899866e+00
    8.5997756958e+01   -1.5971399546e+00
    8.6097404480e+01   -1.6045099497e+00
    8.6198921204e+01   -1.6120500565e+00
    8.6298568726e+01   -1.6194700003e+00
    8.6397811890e+01   -1.6268800497e+00
    8.6498756409e+01   -1.6344499588e+00
    8.6598701477e+01   -1.6419600248e+00
    8.6697883606e+01   -1.6494400501e+00
    8.6798843384e+01   -1.6570800543e+00
    8.6898025513e+01   -1.6646000147e+00
    8.6998954773e+01   -1.6722899675e+00
    8.7098098755e+01   -1.6798599958e+00
    8.7198715210e+01   -1.6875699759e+00
    8.7298324585e+01   -1.6952400208e+00
    8.7397842407e+01   -1.7029199600e+00
    8.7499237061e+01   -1.7107800245e+00
    8.7598785400e+01   -1.7185300589e+00
    8.7698303223e+01   -1.7263100147e+00
    8.7798484802e+01   -1.7341599464e+00
    8.7899139404e+01   -1.7420799732e+00
    8.7998481750e+01   -1.7499300241e+00
    8.8097717285e+01   -1.7577799559e+00
    8.8198265076e+01   -1.7657599449e+00
    8.8298553467e+01   -1.7737499475e+00
    8.8399017334e+01   -1.7817599773e+00
    8.8498985291e+01   -1.7897599936e+00
    8.8597755432e+01   -1.7976900339e+00
    8.8698303223e+01   -1.8057700396e+00
    8.8798858643e+01   -1.8138799667e+00
    8.8897850037e+01   -1.8218899965e+00
    8.8998176575e+01   -1.8300299644e+00
    8.9097503662e+01   -1.8381099701e+00
    8.9199203491e+01   -1.8464100361e+00
    8.9299118042e+01   -1.8545999527e+00
    8.9398475647e+01   -1.8627599478e+00
    8.9497886658e+01   -1.8709499836e+00
    8.9599197388e+01   -1.8793200254e+00
    8.9698600769e+01   -1.8875600100e+00
    8.9797599792e+01   -1.8957799673e+00
    8.9899002075e+01   -1.9042299986e+00
    8.9998573303e+01   -1.9125399590e+00
    9.0098762512e+01   -1.9209300280e+00
    9.0197937012e+01   -1.9292600155e+00
    9.0298896790e+01   -1.9377599955e+00
    9.0398101807e+01   -1.9461400509e+00
    9.0499107361e+01   -1.9546899796e+00
    9.0597793579e+01   -1.9630800486e+00
    9.0698822021e+01   -1.9716900587e+00
    9.0797828674e+01   -1.9801700115e+00
    9.0897560120e+01   -1.9887299538e+00
    9.0999145508e+01   -1.9974900484e+00
    9.1098815918e+01   -2.0060999393e+00
    9.1198455811e+01   -2.0147399902e+00
    9.1298057556e+01   -2.0233900547e+00
    9.1397651672e+01   -2.0320699215e+00
    9.1499107361e+01   -2.0409300327e+00
    9.1598678589e+01   -2.0496399403e+00
    9.1699058533e+01   -2.0584299564e+00
    9.1798103333e+01   -2.0671300888e+00
    9.1898902893e+01   -2.0759999752e+00
    9.1997955322e+01   -2.0847299099e+00
    9.2098793030e+01   -2.0936300755e+00
    9.2197875977e+01   -2.1023900509e+00
    9.2297485352e+01   -2.1112298965e+00
    9.2399002075e+01   -2.1202499866e+00
    9.2498672485e+01   -2.1291298866e+00
    9.2598381042e+01   -2.1380400658e+00
    9.2698112488e+01   -2.1469700336e+00
    9.2797966003e+01   -2.1559300423e+00
    9.2898956299e+01   -2.1650199890e+00
    9.2998619080e+01   -2.1740100384e+00
    9.3098381042e+01   -2.1830298901e+00
    9.3198036194e+01   -2.1920499802e+00
    9.3297462463e+01   -2.2010700703e+00
    9.3398727417e+01   -2.2102699280e+00
    9.3498016357e+01   -2.2193200588e+00
    9.3597572327e+01   -2.2284200191e+00
    9.3698913574e+01   -2.2376999855e+00
    9.3798469543e+01   -2.2468500137e+00
    9.3898223877e+01   -2.2560501099e+00
    9.3998268127e+01   -2.2653000355e+00
    9.4098312378e+01   -2.2745900154e+00
    9.4198333740e+01   -2.2839100361e+00
    9.4298332214e+01   -2.2932500839e+00
    9.4397636414e+01   -2.3025600910e+00
    9.4497520447e+01   -2.3119599819e+00
    9.4597846985e+01   -2.3214199543e+00
    9.4698738098e+01   -2.3309600353e+00
    9.4798446655e+01   -2.3404099941e+00
    9.4898117065e+01   -2.3498799801e+00
    9.4999114990e+01   -2.3594899178e+00
    9.5098251343e+01   -2.3689498901e+00
    9.5199104309e+01   -2.3785901070e+00
    9.5298164368e+01   -2.3880701065e+00
    9.5398979187e+01   -2.3977398872e+00
    9.5498023987e+01   -2.4072699547e+00
    9.5598831177e+01   -2.4169900417e+00
    9.5698951721e+01   -2.4266700745e+00
    9.5798278809e+01   -2.4363000393e+00
    9.5898300171e+01   -2.4460198879e+00
    9.5997817993e+01   -2.4557199478e+00
    9.6097335815e+01   -2.4654500484e+00
    9.6198722839e+01   -2.4753899574e+00
    9.6298248291e+01   -2.4851601124e+00
    9.6397819519e+01   -2.4949700832e+00
    9.6497848511e+01   -2.5048499107e+00
    9.6598602295e+01   -2.5148200989e+00
    9.6697647095e+01   -2.5246500969e+00
    9.6798469543e+01   -2.5346798897e+00
    9.6897514343e+01   -2.5445499420e+00
    9.6998298645e+01   -2.5546300411e+00
    9.7099067688e+01   -2.5647299290e+00
    9.7197769165e+01   -2.5746600628e+00
    9.7297233582e+01   -2.5846900940e+00
    9.7398735046e+01   -2.5949699879e+00
    9.7498657227e+01   -2.6051199436e+00
    9.7598045349e+01   -2.6152501106e+00
    9.7697395325e+01   -2.6254100800e+00
    9.7798263550e+01   -2.6357600689e+00
    9.7898178101e+01   -2.6460299492e+00
    9.7997314453e+01   -2.6562600136e+00
    9.8098434448e+01   -2.6667098999e+00
    9.8197769165e+01   -2.6769900322e+00
    9.8298843384e+01   -2.6874799728e+00
    9.8397392273e+01   -2.6977200508e+00
    9.8497711182e+01   -2.7081599236e+00
    9.8598037720e+01   -2.7186300755e+00
    9.8698379517e+01   -2.7291200161e+00
    9.8798736572e+01   -2.7396299839e+00
    9.8897354126e+01   -2.7499799728e+00
    9.8998611450e+01   -2.7606399059e+00
    9.9097320557e+01   -2.7710599899e+00
    9.9197753906e+01   -2.7816898823e+00
    9.9298713684e+01   -2.7923998833e+00
    9.9397895813e+01   -2.8029599190e+00
    9.9499000549e+01   -2.8137400150e+00
    9.9598274231e+01   -2.8243501186e+00
    9.9698577881e+01   -2.8350999355e+00
    9.9798080444e+01   -2.8457798958e+00
    9.9898994446e+01   -2.8566401005e+00
    9.9998397827e+01   -2.8673601151e+00
    1.0009864044e+02   -2.8781900406e+00
    1.0019763947e+02   -2.8889100552e+00
    1.0029843903e+02   -2.8998498917e+00
    1.0039749146e+02   -2.9106299877e+00
    1.0049832153e+02   -2.9216299057e+00
    1.0059783936e+02   -2.9325199127e+00
    1.0069870758e+02   -2.9435999393e+00
    1.0079844666e+02   -2.9545900822e+00
    1.0089800262e+02   -2.9655900002e+00
    1.0099752808e+02   -2.9766199589e+00
    1.0109889984e+02   -2.9878900051e+00
    1.0119834137e+02   -2.9989600182e+00
    1.0129775238e+02   -3.0100600719e+00
    1.0139901733e+02   -3.0213799477e+00
    1.0149839783e+02   -3.0325100422e+00
    1.0159777069e+02   -3.0436599255e+00
    1.0169760895e+02   -3.0548601151e+00
    1.0179821014e+02   -3.0661699772e+00
    1.0189880371e+02   -3.0774900913e+00
    1.0199764252e+02   -3.0886199474e+00
    1.0209828186e+02   -3.0999701023e+00
    1.0219893646e+02   -3.1113500595e+00
    1.0229785156e+02   -3.1225399971e+00
    1.0239732361e+02   -3.1338200569e+00
    1.0249871826e+02   -3.1453399658e+00
    1.0259828186e+02   -3.1566898823e+00
    1.0269788361e+02   -3.1680600643e+00
    1.0279750824e+02   -3.1794500351e+00
    1.0289836884e+02   -3.1910099983e+00
    1.0299790192e+02   -3.2024400234e+00
    1.0309754944e+02   -3.2139000893e+00
    1.0319786835e+02   -3.2254600525e+00
    1.0329721832e+02   -3.2369201183e+00
    1.0339840698e+02   -3.2486200333e+00
    1.0349829102e+02   -3.2601799965e+00
    1.0359779358e+02   -3.2717399597e+00
    1.0369728851e+02   -3.2833199501e+00
    1.0379856873e+02   -3.2951500416e+00
    1.0389771271e+02   -3.3067600727e+00
    1.0399770355e+02   -3.3185100555e+00
    1.0409767914e+02   -3.3303101063e+00
    1.0419764709e+02   -3.3421399593e+00
    1.0429756927e+02   -3.3540000916e+00
    1.0439813232e+02   -3.3659799099e+00
    1.0449791718e+02   -3.3779098988e+00
    1.0459780121e+02   -3.3898699284e+00
    1.0469799805e+02   -3.4019000530e+00
    1.0479757690e+02   -3.4138801098e+00
    1.0489711761e+02   -3.4258799553e+00
    1.0499809265e+02   -3.4380700588e+00
    1.0509884644e+02   -3.4502499104e+00
    1.0519777679e+02   -3.4622299671e+00
    1.0529844666e+02   -3.4744400978e+00
    1.0539733887e+02   -3.4864599705e+00
    1.0549799347e+02   -3.4987099171e+00
    1.0559864807e+02   -3.5109999180e+00
    1.0569843292e+02   -3.5232000351e+00
    1.0579721069e+02   -3.5353200436e+00
    1.0589787292e+02   -3.5476999283e+00
    1.0599835205e+02   -3.5600900650e+00
    1.0609770203e+02   -3.5723700523e+00
    1.0619892883e+02   -3.5849099159e+00
    1.0629830933e+02   -3.5972599983e+00
    1.0639795685e+02   -3.6096599102e+00
    1.0649761963e+02   -3.6220901012e+00
    1.0659877777e+02   -3.6347301006e+00
    1.0669853973e+02   -3.6472198963e+00
    1.0679743195e+02   -3.6596300602e+00
    1.0689806366e+02   -3.6722900867e+00
    1.0699865723e+02   -3.6849799156e+00
    1.0709877014e+02   -3.6976299286e+00
    1.0719803619e+02   -3.7102200985e+00
    1.0729885864e+02   -3.7230401039e+00
    1.0739763641e+02   -3.7356400490e+00
    1.0749868774e+02   -3.7485699654e+00
    1.0759786987e+02   -3.7613101006e+00
    1.0769888306e+02   -3.7743198872e+00
    1.0779788971e+02   -3.7871100903e+00
    1.0789813995e+02   -3.8000900745e+00
    1.0799890137e+02   -3.8131599426e+00
    1.0809844971e+02   -3.8261001110e+00
    1.0819841003e+02   -3.8391199112e+00
    1.0829833221e+02   -3.8521399498e+00
    1.0839839172e+02   -3.8652000427e+00
    1.0849845886e+02   -3.8782799244e+00
    1.0859854126e+02   -3.8913900852e+00
    1.0869864655e+02   -3.9045200348e+00
    1.0879878235e+02   -3.9176700115e+00
    1.0889717865e+02   -3.9306299686e+00
    1.0899812317e+02   -3.9439499378e+00
    1.0909706879e+02   -3.9570500851e+00
    1.0919764709e+02   -3.9703900814e+00
    1.0929842377e+02   -3.9837999344e+00
    1.0939742279e+02   -3.9969999790e+00
    1.0949835205e+02   -4.0104999542e+00
    1.0959744263e+02   -4.0237698555e+00
    1.0969844818e+02   -4.0373301506e+00
    1.0979708099e+02   -4.0506000519e+00
    1.0989814758e+02   -4.0642299652e+00
    1.0999739838e+02   -4.0776300430e+00
    1.1009716034e+02   -4.0911297798e+00
    1.1019777679e+02   -4.1047801971e+00
    1.1029842377e+02   -4.1184601784e+00
    1.1039732361e+02   -4.1319398880e+00
    1.1049800110e+02   -4.1457099915e+00
    1.1059857178e+02   -4.1595001221e+00
    1.1069751740e+02   -4.1731200218e+00
    1.1079823303e+02   -4.1870298386e+00
    1.1089785767e+02   -4.2008299828e+00
    1.1099720764e+02   -4.2146301270e+00
    1.1109838867e+02   -4.2287302017e+00
    1.1119763947e+02   -4.2425899506e+00
    1.1129871368e+02   -4.2567300797e+00
    1.1139790344e+02   -4.2706198692e+00
    1.1149706268e+02   -4.2845401764e+00
    1.1159808350e+02   -4.2987198830e+00
    1.1169725037e+02   -4.3126602173e+00
    1.1179760742e+02   -4.3267698288e+00
    1.1189797211e+02   -4.3408999443e+00
    1.1199835968e+02   -4.3550500870e+00
    1.1209877777e+02   -4.3692097664e+00
    1.1219747925e+02   -4.3831501007e+00
    1.1229828644e+02   -4.3974099159e+00
    1.1239727020e+02   -4.4114398956e+00
    1.1249848175e+02   -4.4258198738e+00
    1.1259789276e+02   -4.4399800301e+00
    1.1269734192e+02   -4.4541702271e+00
    1.1279747009e+02   -4.4684901237e+00
    1.1289817810e+02   -4.4829101562e+00
    1.1299735260e+02   -4.4971499443e+00
    1.1309873962e+02   -4.5117201805e+00
    1.1319740295e+02   -4.5259199142e+00
    1.1329843140e+02   -4.5404901505e+00
    1.1339840698e+02   -4.5549302101e+00
    1.1349875641e+02   -4.5694599152e+00
    1.1359818268e+02   -4.5838899612e+00
    1.1369760132e+02   -4.5983700752e+00
    1.1379879761e+02   -4.6131501198e+00
    1.1389765167e+02   -4.6276397705e+00
    1.1399756622e+02   -4.6423401833e+00
    1.1409748840e+02   -4.6571002007e+00
    1.1419740295e+02   -4.6719198227e+00
    1.1429724884e+02   -4.6867799759e+00
    1.1439794922e+02   -4.7018198967e+00
    1.1449765015e+02   -4.7167601585e+00
    1.1459732056e+02   -4.7317399979e+00
    1.1469751740e+02   -4.7468400002e+00
    1.1479696655e+02   -4.7618498802e+00
    1.1489826202e+02   -4.7771601677e+00
    1.1499743652e+02   -4.7921900749e+00
    1.1509806061e+02   -4.8074498177e+00
    1.1519860840e+02   -4.8227300644e+00
    1.1529736328e+02   -4.8377599716e+00
    1.1539785004e+02   -4.8530898094e+00
    1.1549835205e+02   -4.8684601784e+00
    1.1559709167e+02   -4.8835902214e+00
    1.1569792938e+02   -4.8990898132e+00
    1.1579743958e+02   -4.9144201279e+00
    1.1589797211e+02   -4.9299597740e+00
    1.1599764252e+02   -4.9454097748e+00
    1.1609871674e+02   -4.9611201286e+00
    1.1619792175e+02   -4.9765801430e+00
    1.1629714966e+02   -4.9920802116e+00
    1.1639720154e+02   -5.0077500343e+00
    1.1649771118e+02   -5.0235199928e+00
    1.1659803772e+02   -5.0392899513e+00
    1.1669721222e+02   -5.0549302101e+00
    1.1679769135e+02   -5.0707998276e+00
    1.1689814758e+02   -5.0867099762e+00
    1.1699855804e+02   -5.1026501656e+00
    1.1709792328e+02   -5.1184701920e+00
    1.1719700623e+02   -5.1343002319e+00
    1.1729862976e+02   -5.1505799294e+00
    1.1739720154e+02   -5.1664199829e+00
    1.1749748993e+02   -5.1826000214e+00
    1.1759831238e+02   -5.1989197731e+00
    1.1769722748e+02   -5.2149801254e+00
    1.1779850769e+02   -5.2314801216e+00
    1.1789849854e+02   -5.2477998734e+00
    1.1799736786e+02   -5.2639698982e+00
    1.1809806061e+02   -5.2804598808e+00
    1.1819817352e+02   -5.2968897820e+00
    1.1829778290e+02   -5.3132500648e+00
    1.1839755249e+02   -5.3296599388e+00
    1.1849733734e+02   -5.3460898399e+00
    1.1859790039e+02   -5.3626699448e+00
    1.1869867706e+02   -5.3793201447e+00
    1.1879856873e+02   -5.3958501816e+00
    1.1889846802e+02   -5.4124197960e+00
    1.1899741364e+02   -5.4288702011e+00
    1.1909802246e+02   -5.4456501007e+00
    1.1919860077e+02   -5.4624800682e+00
    1.1929830933e+02   -5.4791998863e+00
    1.1939713287e+02   -5.4958300591e+00
    1.1949787903e+02   -5.5128197670e+00
    1.1959867096e+02   -5.5298600197e+00
    1.1969764709e+02   -5.5466299057e+00
    1.1979853821e+02   -5.5637698174e+00
    1.1989759827e+02   -5.5806298256e+00
    1.1999858093e+02   -5.5978498459e+00
    1.2009774780e+02   -5.6148099899e+00
    1.2019822693e+02   -5.6320400238e+00
    1.2029696655e+02   -5.6490101814e+00
    1.2039749908e+02   -5.6663398743e+00
    1.2049803925e+02   -5.6837401390e+00
    1.2059767914e+02   -5.7010397911e+00
    1.2069825745e+02   -5.7185702324e+00
    1.2079708099e+02   -5.7358598709e+00
    1.2089868927e+02   -5.7537097931e+00
    1.2099788666e+02   -5.7711901665e+00
    1.2109703827e+02   -5.7887201309e+00
    1.2119799042e+02   -5.8066101074e+00
    1.2129701996e+02   -5.8242001534e+00
    1.2139788818e+02   -5.8421502113e+00
    1.2149687195e+02   -5.8597798347e+00
    1.2159770203e+02   -5.8777699471e+00
    1.2169763947e+02   -5.8956098557e+00
    1.2179779816e+02   -5.9134998322e+00
    1.2189794159e+02   -5.9314098358e+00
    1.2199812317e+02   -5.9493498802e+00
    1.2209832764e+02   -5.9673099518e+00
    1.2219859314e+02   -5.9853100777e+00
    1.2229724121e+02   -6.0030498505e+00
    1.2239695740e+02   -6.0210199356e+00
    1.2249800110e+02   -6.0392899513e+00
    1.2259725952e+02   -6.0572700500e+00
    1.2269843292e+02   -6.0756502151e+00
    1.2279862976e+02   -6.0938901901e+00
    1.2289742279e+02   -6.1119098663e+00
    1.2299830627e+02   -6.1303501129e+00
    1.2309768677e+02   -6.1485400200e+00
    1.2319831848e+02   -6.1669998169e+00
    1.2329746246e+02   -6.1852197647e+00
    1.2339721680e+02   -6.2035999298e+00
    1.2349736023e+02   -6.2220802307e+00
    1.2359844208e+02   -6.2407999039e+00
    1.2369776917e+02   -6.2592501640e+00
    1.2379708862e+02   -6.2777800560e+00
    1.2389762115e+02   -6.2965998650e+00
    1.2399745178e+02   -6.3153700829e+00
    1.2409728241e+02   -6.3342199326e+00
    1.2419709778e+02   -6.3531498909e+00
    1.2429685974e+02   -6.3721399307e+00
    1.2439842224e+02   -6.3915500641e+00
    1.2449800873e+02   -6.4106597900e+00
    1.2459799957e+02   -6.4299001694e+00
    1.2469785309e+02   -6.4491701126e+00
    1.2479717255e+02   -6.4683799744e+00
    1.2489830780e+02   -6.4879798889e+00
    1.2499832916e+02   -6.5074000359e+00
    1.2509703064e+02   -6.5265898705e+00
    1.2519743347e+02   -6.5461602211e+00
    1.2529778290e+02   -6.5657601357e+00
    1.2539810944e+02   -6.5854001045e+00
    1.2549844360e+02   -6.6050901413e+00
    1.2559703064e+02   -6.6244897842e+00
    1.2569779968e+02   -6.6443901062e+00
    1.2579826355e+02   -6.6642899513e+00
    1.2589691162e+02   -6.6838898659e+00
    1.2599778748e+02   -6.7039999962e+00
    1.2609689331e+02   -6.7238202095e+00
    1.2619783783e+02   -6.7440800667e+00
    1.2629695892e+02   -6.7640199661e+00
    1.2639733887e+02   -6.7842698097e+00
    1.2649861145e+02   -6.8047399521e+00
    1.2659728241e+02   -6.8247499466e+00
    1.2669764709e+02   -6.8451499939e+00
    1.2679801178e+02   -6.8656001091e+00
    1.2689832306e+02   -6.8860998154e+00
    1.2699857330e+02   -6.9066500664e+00
    1.2709752655e+02   -6.9270000458e+00
    1.2719831085e+02   -6.9477901459e+00
    1.2729701996e+02   -6.9682202339e+00
    1.2739717102e+02   -6.9890298843e+00
    1.2749725342e+02   -7.0099000931e+00
    1.2759764862e+02   -7.0309200287e+00
    1.2769821930e+02   -7.0520300865e+00
    1.2779827118e+02   -7.0731101036e+00
    1.2789801788e+02   -7.0941700935e+00
    1.2799717712e+02   -7.1151499748e+00
    1.2809693909e+02   -7.1362900734e+00
    1.2819686890e+02   -7.1574897766e+00
    1.2829693604e+02   -7.1787500381e+00
    1.2839826965e+02   -7.2003002167e+00
    1.2849775696e+02   -7.2214798927e+00
    1.2859786987e+02   -7.2428297997e+00
    1.2869781494e+02   -7.2641701698e+00
    1.2879742432e+02   -7.2854900360e+00
    1.2889707947e+02   -7.3068599701e+00
    1.2899763489e+02   -7.3284797668e+00
    1.2909800720e+02   -7.3501300812e+00
    1.2919848633e+02   -7.3718600273e+00
    1.2929832458e+02   -7.3935198784e+00
    1.2939695740e+02   -7.4149799347e+00
    1.2949751282e+02   -7.4369201660e+00
    1.2959812927e+02   -7.4589300156e+00
    1.2969694519e+02   -7.4805998802e+00
    1.2979766846e+02   -7.5027499199e+00
    1.2989843750e+02   -7.5249500275e+00
    1.2999740601e+02   -7.5468101501e+00
    1.3009817505e+02   -7.5691299438e+00
    1.3019850159e+02   -7.5914201736e+00
    1.3029710388e+02   -7.6133799553e+00
    1.3039749146e+02   -7.6358199120e+00
    1.3049801636e+02   -7.6583700180e+00
    1.3059796143e+02   -7.6808800697e+00
    1.3069842529e+02   -7.7036099434e+00
    1.3079713440e+02   -7.7260198593e+00
    1.3089851379e+02   -7.7491397858e+00
    1.3099760437e+02   -7.7718200684e+00
    1.3109846497e+02   -7.7949800491e+00
    1.3119740295e+02   -7.8177599907e+00
    1.3129817200e+02   -7.8410201073e+00
    1.3139703369e+02   -7.8638801575e+00
    1.3149830627e+02   -7.8873400688e+00
    1.3159712219e+02   -7.9102501869e+00
    1.3169775391e+02   -7.9336099625e+00
    1.3179774475e+02   -7.9568500519e+00
    1.3189770508e+02   -7.9801101685e+00
    1.3199769592e+02   -8.0033998489e+00
    1.3209773254e+02   -8.0267295837e+00
    1.3219781494e+02   -8.0501203537e+00
    1.3229798889e+02   -8.0735797882e+00
    1.3239823914e+02   -8.0971097946e+00
    1.3249871826e+02   -8.1207704544e+00
    1.3259785461e+02   -8.1441698074e+00
    1.3269705200e+02   -8.1676502228e+00
    1.3279879761e+02   -8.1917800903e+00
    1.3289747620e+02   -8.2152500153e+00
    1.3299813843e+02   -8.2392396927e+00
    1.3309741211e+02   -8.2629404068e+00
    1.3319816589e+02   -8.2870502472e+00
    1.3329722595e+02   -8.3108100891e+00
    1.3339811707e+02   -8.3350601196e+00
    1.3349728394e+02   -8.3589601517e+00
    1.3359828186e+02   -8.3833799362e+00
    1.3369750977e+02   -8.4074497223e+00
    1.3379850769e+02   -8.4320497513e+00
    1.3389860535e+02   -8.4565296173e+00
    1.3399833679e+02   -8.4810304642e+00
    1.3409806824e+02   -8.5056400299e+00
    1.3419776917e+02   -8.5303401947e+00
    1.3429739380e+02   -8.5551300049e+00
    1.3439883423e+02   -8.5804595947e+00
    1.3449829102e+02   -8.6053895950e+00
    1.3459724426e+02   -8.6302795410e+00
    1.3469793701e+02   -8.6556596756e+00
    1.3479895020e+02   -8.6811895370e+00
    1.3489804077e+02   -8.7062797546e+00
    1.3499896240e+02   -8.7318801880e+00
    1.3509747314e+02   -8.7569198608e+00
    1.3519767761e+02   -8.7824296951e+00
    1.3529783630e+02   -8.8079900742e+00
    1.3539797974e+02   -8.8336095810e+00
    1.3549812317e+02   -8.8592901230e+00
    1.3559829712e+02   -8.8850498199e+00
    1.3569813538e+02   -8.9108104706e+00
    1.3579899597e+02   -8.9369297028e+00
    1.3589840698e+02   -8.9627504349e+00
    1.3599873352e+02   -8.9889001846e+00
    1.3609773254e+02   -9.0147895813e+00
    1.3619859314e+02   -9.0412502289e+00
    1.3629760742e+02   -9.0673103333e+00
    1.3639851379e+02   -9.0939397812e+00
    1.3649754333e+02   -9.1201400757e+00
    1.3659800720e+02   -9.1467895508e+00
    1.3669827271e+02   -9.1734695435e+00
    1.3679852295e+02   -9.2002096176e+00
    1.3689869690e+02   -9.2270202637e+00
    1.3699880981e+02   -9.2538795471e+00
    1.3709881592e+02   -9.2808103561e+00
    1.3719758606e+02   -9.3074903488e+00
    1.3729801941e+02   -9.3347196579e+00
    1.3739801025e+02   -9.3619403839e+00
    1.3749792480e+02   -9.3892297745e+00
    1.3759912109e+02   -9.4169797897e+00
    1.3769761658e+02   -9.4440698624e+00
    1.3779887390e+02   -9.4720001221e+00
    1.3789840698e+02   -9.4995098114e+00
    1.3799853516e+02   -9.5272397995e+00
    1.3809828186e+02   -9.5549001694e+00
    1.3819859314e+02   -9.5827598572e+00
    1.3829838562e+02   -9.6105003357e+00
    1.3839779663e+02   -9.6381502151e+00
    1.3849752808e+02   -9.6659202576e+00
    1.3859921265e+02   -9.6942701340e+00
    1.3869911194e+02   -9.7221603394e+00
    1.3879913330e+02   -9.7501296997e+00
    1.3889854431e+02   -9.7779903412e+00
    1.3899821472e+02   -9.8059902191e+00
    1.3909834290e+02   -9.8341999054e+00
    1.3919839478e+02   -9.8624696732e+00
    1.3929879761e+02   -9.8908996582e+00
    1.3939909363e+02   -9.9193897247e+00
    1.3949763489e+02   -9.9474496841e+00
    1.3959808350e+02   -9.9761199951e+00
    1.3969857788e+02   -1.0004899979e+01
    1.3979913330e+02   -1.0033699989e+01
    1.3989787292e+02   -1.0062100410e+01
    1.3999853516e+02   -1.0091099739e+01
    1.4009861755e+02   -1.0119999886e+01
    1.4019877625e+02   -1.0149000168e+01
    1.4029896545e+02   -1.0178099632e+01
    1.4039918518e+02   -1.0207300186e+01
    1.4049832153e+02   -1.0236300468e+01
    1.4059921265e+02   -1.0265899658e+01
    1.4069888306e+02   -1.0295200348e+01
    1.4079922485e+02   -1.0324899673e+01
    1.4089775085e+02   -1.0354200363e+01
    1.4099778748e+02   -1.0383999825e+01
    1.4109849548e+02   -1.0414099693e+01
    1.4119914246e+02   -1.0444299698e+01
    1.4129789734e+02   -1.0473899841e+01
    1.4139903259e+02   -1.0504400253e+01
    1.4149909973e+02   -1.0534500122e+01
    1.4159773254e+02   -1.0564299583e+01
    1.4169917297e+02   -1.0594900131e+01
    1.4179899597e+02   -1.0625100136e+01
    1.4189880371e+02   -1.0655300140e+01
    1.4199864197e+02   -1.0685600281e+01
    1.4209851074e+02   -1.0715900421e+01
    1.4219812012e+02   -1.0746100426e+01
    1.4229815674e+02   -1.0776599884e+01
    1.4239828491e+02   -1.0807200432e+01
    1.4249856567e+02   -1.0837900162e+01
    1.4259762573e+02   -1.0868300438e+01
    1.4269860840e+02   -1.0899299622e+01
    1.4279852295e+02   -1.0930199623e+01
    1.4289889526e+02   -1.0961199760e+01
    1.4299926758e+02   -1.0992300034e+01
    1.4309835815e+02   -1.1023099899e+01
    1.4319772339e+02   -1.1053999901e+01
    1.4329808044e+02   -1.1085300446e+01
    1.4339888000e+02   -1.1116800308e+01
    1.4349797058e+02   -1.1147800446e+01
    1.4359884644e+02   -1.1179499626e+01
    1.4369793701e+02   -1.1210800171e+01
    1.4379882812e+02   -1.1242699623e+01
    1.4389926147e+02   -1.1274600029e+01
    1.4399810791e+02   -1.1306099892e+01
    1.4409898376e+02   -1.1338399887e+01
    1.4419931030e+02   -1.1370699883e+01
    1.4429876709e+02   -1.1402799606e+01
    1.4439811707e+02   -1.1435000420e+01
    1.4449926758e+02   -1.1467800140e+01
    1.4459864807e+02   -1.1500200272e+01
    1.4469822693e+02   -1.1532699585e+01
    1.4479902649e+02   -1.1565699577e+01
    1.4489924622e+02   -1.1598500252e+01
    1.4499938965e+02   -1.1631299973e+01
    1.4509942627e+02   -1.1664199829e+01
    1.4519940186e+02   -1.1697099686e+01
    1.4529933167e+02   -1.1729999542e+01
    1.4539923096e+02   -1.1762999535e+01
    1.4549914551e+02   -1.1795999527e+01
    1.4559930420e+02   -1.1829299927e+01
    1.4569804382e+02   -1.1862099648e+01
    1.4579873657e+02   -1.1895700455e+01
    1.4589961243e+02   -1.1929499626e+01
    1.4599937439e+02   -1.1963000298e+01
    1.4609823608e+02   -1.1996299744e+01
    1.4619866943e+02   -1.2030200005e+01
    1.4629942322e+02   -1.2064299583e+01
    1.4639831543e+02   -1.2097800255e+01
    1.4649908447e+02   -1.2132100105e+01
    1.4659799194e+02   -1.2165900230e+01
    1.4669879150e+02   -1.2200300217e+01
    1.4679888916e+02   -1.2234600067e+01
    1.4689892578e+02   -1.2269000053e+01
    1.4699888611e+02   -1.2303400040e+01
    1.4709938049e+02   -1.2338199615e+01
    1.4719799805e+02   -1.2372400284e+01
    1.4729849243e+02   -1.2407299995e+01
    1.4739833069e+02   -1.2442199707e+01
    1.4749807739e+02   -1.2477100372e+01
    1.4759974670e+02   -1.2512800217e+01
    1.4769804382e+02   -1.2547400475e+01
    1.4779809570e+02   -1.2582799911e+01
    1.4789846802e+02   -1.2618300438e+01
    1.4799937439e+02   -1.2654000282e+01
    1.4809841919e+02   -1.2689100266e+01
    1.4819914246e+02   -1.2724900246e+01
    1.4829933167e+02   -1.2760399818e+01
    1.4839822388e+02   -1.2795599937e+01
    1.4849896240e+02   -1.2831299782e+01
    1.4859852600e+02   -1.2866700172e+01
    1.4869816589e+02   -1.2902199745e+01
    1.4879815674e+02   -1.2937800407e+01
    1.4889909363e+02   -1.2973799706e+01
    1.4899835205e+02   -1.3009300232e+01
    1.4909945679e+02   -1.3045499802e+01
    1.4919885254e+02   -1.3081199646e+01
    1.4929849243e+02   -1.3116999626e+01
    1.4939863586e+02   -1.3153100014e+01
    1.4949887085e+02   -1.3189399719e+01
    1.4959916687e+02   -1.3225700378e+01
    1.4969812012e+02   -1.3261500359e+01
    1.4979849243e+02   -1.3298000336e+01
    1.4989892578e+02   -1.3334500313e+01
    1.4999938965e+02   -1.3371199608e+01
    1.5009829712e+02   -1.3407299995e+01
    1.5019825745e+02   -1.3443900108e+01
    1.5029826355e+02   -1.3480600357e+01
    1.5039828491e+02   -1.3517399788e+01
    1.5049995422e+02   -1.3554900169e+01
    1.5059878540e+02   -1.3591500282e+01
    1.5069909668e+02   -1.3628800392e+01
    1.5079925537e+02   -1.3666099548e+01
    1.5089932251e+02   -1.3703499794e+01
    1.5099818420e+02   -1.3740599632e+01
    1.5109866333e+02   -1.3778300285e+01
    1.5119909668e+02   -1.3816100121e+01
    1.5129951477e+02   -1.3854000092e+01
    1.5139901733e+02   -1.3891599655e+01
    1.5149876404e+02   -1.3929300308e+01
    1.5159959412e+02   -1.3967399597e+01
    1.5169984436e+02   -1.4005299568e+01
    1.5179989624e+02   -1.4043199539e+01
    1.5189952087e+02   -1.4080900192e+01
    1.5199917603e+02   -1.4118700027e+01
    1.5209884644e+02   -1.4156499863e+01
    1.5219923401e+02   -1.4194600105e+01
    1.5229946899e+02   -1.4232700348e+01
    1.5239949036e+02   -1.4270899773e+01
    1.5249957275e+02   -1.4309100151e+01
    1.5259854126e+02   -1.4347000122e+01
    1.5269943237e+02   -1.4385700226e+01
    1.5279969788e+02   -1.4424300194e+01
    1.5289997864e+02   -1.4462900162e+01
    1.5299851990e+02   -1.4501000404e+01
    1.5309872437e+02   -1.4539699554e+01
    1.5319984436e+02   -1.4578900337e+01
    1.5329920959e+02   -1.4617500305e+01
    1.5339912415e+02   -1.4656399727e+01
    1.5349986267e+02   -1.4695599556e+01
    1.5359881592e+02   -1.4734299660e+01
    1.5369955444e+02   -1.4773799896e+01
    1.5379852295e+02   -1.4812700272e+01
    1.5389857483e+02   -1.4852199554e+01
    1.5399871826e+02   -1.4891799927e+01
    1.5409942627e+02   -1.4931799889e+01
    1.5420002747e+02   -1.4972000122e+01
    1.5429870605e+02   -1.5011400223e+01
    1.5439967346e+02   -1.5051899910e+01
    1.5449868774e+02   -1.5091699600e+01
    1.5459942627e+02   -1.5132200241e+01
    1.5470001221e+02   -1.5172800064e+01
    1.5479862976e+02   -1.5212599754e+01
    1.5490007019e+02   -1.5253600121e+01
    1.5499981689e+02   -1.5293899536e+01
    1.5509953308e+02   -1.5334199905e+01
    1.5519917297e+02   -1.5374600410e+01
    1.5529881287e+02   -1.5414999962e+01
    1.5540017700e+02   -1.5456100464e+01
    1.5549978638e+02   -1.5496500015e+01
    1.5559854126e+02   -1.5536700249e+01
    1.5569886780e+02   -1.5577699661e+01
    1.5579928589e+02   -1.5618700027e+01
    1.5589926147e+02   -1.5659700394e+01
    1.5600015259e+02   -1.5701100349e+01
    1.5609878540e+02   -1.5741700172e+01
    1.5619888306e+02   -1.5782999992e+01
    1.5629942322e+02   -1.5824500084e+01
    1.5639901733e+02   -1.5865799904e+01
    1.5649957275e+02   -1.5907500267e+01
    1.5660012817e+02   -1.5949299812e+01
    1.5669960022e+02   -1.5990699768e+01
    1.5679946899e+02   -1.6032300949e+01
    1.5689927673e+02   -1.6073999405e+01
    1.5699975586e+02   -1.6116100311e+01
    1.5710000610e+02   -1.6158199310e+01
    1.5720022583e+02   -1.6200399399e+01
    1.5729936218e+02   -1.6242200851e+01
    1.5739894104e+02   -1.6284299850e+01
    1.5750016785e+02   -1.6327199936e+01
    1.5759985352e+02   -1.6369600296e+01
    1.5769972229e+02   -1.6412099838e+01
    1.5779946899e+02   -1.6454700470e+01
    1.5789932251e+02   -1.6497299194e+01
    1.5799990845e+02   -1.6540300369e+01
    1.5810038757e+02   -1.6583200455e+01
    1.5819903564e+02   -1.6625400543e+01
    1.5829937744e+02   -1.6668199539e+01
    1.5839970398e+02   -1.6711000443e+01
    1.5849948120e+02   -1.6753599167e+01
    1.5859875488e+02   -1.6795999527e+01
    1.5869999695e+02   -1.6839199066e+01
    1.5879963684e+02   -1.6881799698e+01
    1.5890040588e+02   -1.6924800873e+01
    1.5899949646e+02   -1.6967199326e+01
    1.5910040283e+02   -1.7010499954e+01
    1.5919964600e+02   -1.7053100586e+01
    1.5930041504e+02   -1.7096399307e+01
    1.5940042114e+02   -1.7139400482e+01
    1.5950050354e+02   -1.7182600021e+01
    1.5959878540e+02   -1.7225000381e+01
    1.5969964600e+02   -1.7268600464e+01
    1.5979895020e+02   -1.7311599731e+01
    1.5989915466e+02   -1.7354999542e+01
    1.5999942017e+02   -1.7398399353e+01
    1.6009928894e+02   -1.7441799164e+01
    1.6019903564e+02   -1.7485099792e+01
    1.6030056763e+02   -1.7529399872e+01
    1.6040034485e+02   -1.7572900772e+01
    1.6050015259e+02   -1.7616600037e+01
    1.6059918213e+02   -1.7659999847e+01
    1.6069966125e+02   -1.7704099655e+01
    1.6079919434e+02   -1.7747999191e+01
    1.6089901733e+02   -1.7791999817e+01
    1.6100047302e+02   -1.7836900711e+01
    1.6110044861e+02   -1.7881200790e+01
    1.6120060730e+02   -1.7925600052e+01
    1.6129887390e+02   -1.7969200134e+01
    1.6139964294e+02   -1.8013900757e+01
    1.6149909973e+02   -1.8058099747e+01
    1.6159985352e+02   -1.8102800369e+01
    1.6169979858e+02   -1.8147100449e+01
    1.6180056763e+02   -1.8191799164e+01
    1.6189993286e+02   -1.8235799789e+01
    1.6199935913e+02   -1.8279899597e+01
    1.6209970093e+02   -1.8324399948e+01
    1.6219989014e+02   -1.8368799210e+01
    1.6230046082e+02   -1.8413499832e+01
    1.6240029907e+02   -1.8457899094e+01
    1.6250030518e+02   -1.8502399445e+01
    1.6259913635e+02   -1.8546499252e+01
    1.6269990540e+02   -1.8591600418e+01
    1.6279925537e+02   -1.8636100769e+01
    1.6289939880e+02   -1.8680900574e+01
    1.6299954224e+02   -1.8725900650e+01
    1.6309906006e+02   -1.8770599365e+01
    1.6319999695e+02   -1.8815999985e+01
    1.6329914856e+02   -1.8860700607e+01
    1.6340025330e+02   -1.8906400681e+01
    1.6349900818e+02   -1.8951000214e+01
    1.6359950256e+02   -1.8996599197e+01
    1.6370002747e+02   -1.9042200089e+01
    1.6380053711e+02   -1.9087999344e+01
    1.6389897156e+02   -1.9132900238e+01
    1.6400007629e+02   -1.9179199219e+01
    1.6410052490e+02   -1.9225299835e+01
    1.6419906616e+02   -1.9270700455e+01
    1.6430018616e+02   -1.9317300797e+01
    1.6440080261e+02   -1.9363899231e+01
    1.6449943542e+02   -1.9409500122e+01
    1.6459977722e+02   -1.9455999374e+01
    1.6469995117e+02   -1.9502500534e+01
    1.6480000305e+02   -1.9548799515e+01
    1.6490023804e+02   -1.9595300674e+01
    1.6499957275e+02   -1.9641399384e+01
    1.6510061646e+02   -1.9688199997e+01
    1.6519987488e+02   -1.9734199524e+01
    1.6529913330e+02   -1.9780199051e+01
    1.6540014648e+02   -1.9827100754e+01
    1.6549943542e+02   -1.9873100281e+01
    1.6560046387e+02   -1.9920099258e+01
    1.6570045471e+02   -1.9966600418e+01
    1.6580056763e+02   -2.0013200760e+01
    1.6590055847e+02   -2.0059900284e+01
    1.6600018311e+02   -2.0106399536e+01
    1.6609979248e+02   -2.0152999878e+01
    1.6619947815e+02   -2.0199699402e+01
    1.6629971313e+02   -2.0246799469e+01
    1.6640066528e+02   -2.0294200897e+01
    1.6649949646e+02   -2.0340599060e+01
    1.6659971619e+02   -2.0387800217e+01
    1.6669927979e+02   -2.0434600830e+01
    1.6680053711e+02   -2.0482299805e+01
    1.6689997864e+02   -2.0529300690e+01
    1.6700096130e+02   -2.0576999664e+01
    1.6710086060e+02   -2.0624200821e+01
    1.6720069885e+02   -2.0671499252e+01
    1.6729995728e+02   -2.0718599319e+01
    1.6740086365e+02   -2.0766500473e+01
    1.6749993896e+02   -2.0813699722e+01
    1.6759956360e+02   -2.0861099243e+01
    1.6770085144e+02   -2.0909500122e+01
    1.6780020142e+02   -2.0956899643e+01
    1.6790029907e+02   -2.1004600525e+01
    1.6800050354e+02   -2.1052400589e+01
    1.6810055542e+02   -2.1100099564e+01
    1.6820056152e+02   -2.1147699356e+01
    1.6830052185e+02   -2.1195199966e+01
    1.6840049744e+02   -2.1242700577e+01
    1.6850025940e+02   -2.1290000916e+01
    1.6860107422e+02   -2.1337699890e+01
    1.6870018005e+02   -2.1384599686e+01
    1.6879945374e+02   -2.1431600571e+01
    1.6890010071e+02   -2.1479200363e+01
    1.6900076294e+02   -2.1526899338e+01
    1.6909976196e+02   -2.1573699951e+01
    1.6920056152e+02   -2.1621500015e+01
    1.6930029297e+02   -2.1668800354e+01
    1.6940011597e+02   -2.1716199875e+01
    1.6950004578e+02   -2.1763700485e+01
    1.6960002136e+02   -2.1811199188e+01
    1.6970097351e+02   -2.1859300613e+01
    1.6980061340e+02   -2.1906700134e+01
    1.6990060425e+02   -2.1954299927e+01
    1.7000045776e+02   -2.2001899719e+01
    1.7009994507e+02   -2.2049299240e+01
    1.7019947815e+02   -2.2096799850e+01
    1.7030076599e+02   -2.2145200729e+01
    1.7040032959e+02   -2.2192800522e+01
    1.7049989319e+02   -2.2240499496e+01
    1.7059947205e+02   -2.2288200378e+01
    1.7069978333e+02   -2.2336399078e+01
    1.7079995728e+02   -2.2384599686e+01
    1.7090005493e+02   -2.2432800293e+01
    1.7099966431e+02   -2.2480800629e+01
    1.7110067749e+02   -2.2529600143e+01
    1.7119995117e+02   -2.2577499390e+01
    1.7129974365e+02   -2.2625600815e+01
    1.7140124512e+02   -2.2674499512e+01
    1.7150038147e+02   -2.2722299576e+01
    1.7159974670e+02   -2.2770099640e+01
    1.7170123291e+02   -2.2818799973e+01
    1.7180087280e+02   -2.2866600037e+01
    1.7190095520e+02   -2.2914600372e+01
    1.7200013733e+02   -2.2962099075e+01
    1.7210115051e+02   -2.3010499954e+01
    1.7220080566e+02   -2.3058200836e+01
    1.7230050659e+02   -2.3105899811e+01
    1.7240040588e+02   -2.3153799057e+01
    1.7250071716e+02   -2.3201900482e+01
    1.7260116577e+02   -2.3250099182e+01
    1.7269982910e+02   -2.3297599792e+01
    1.7279960632e+02   -2.3345600128e+01
    1.7290127563e+02   -2.3394500732e+01
    1.7300115967e+02   -2.3442600250e+01
    1.7310110474e+02   -2.3490800858e+01
    1.7319952393e+02   -2.3538299561e+01
    1.7330021667e+02   -2.3586900711e+01
    1.7340095520e+02   -2.3635599136e+01
    1.7350119019e+02   -2.3684099197e+01
    1.7360131836e+02   -2.3732700348e+01
    1.7369970703e+02   -2.3780399323e+01
    1.7379986572e+02   -2.3829099655e+01
    1.7390002441e+02   -2.3877899170e+01
    1.7399998474e+02   -2.3926700592e+01
    1.7409965515e+02   -2.3975500107e+01
    1.7420127869e+02   -2.4025299072e+01
    1.7429974365e+02   -2.4073600769e+01
    1.7439985657e+02   -2.4122800827e+01
    1.7449986267e+02   -2.4171899796e+01
    1.7459970093e+02   -2.4221000671e+01
    1.7470120239e+02   -2.4270900726e+01
    1.7480075073e+02   -2.4319799423e+01
    1.7489990234e+02   -2.4368400574e+01
    1.7500047302e+02   -2.4417699814e+01
    1.7510101318e+02   -2.4466899872e+01
    1.7519984436e+02   -2.4515300751e+01
    1.7530043030e+02   -2.4564399719e+01
    1.7540037537e+02   -2.4613300323e+01
    1.7550103760e+02   -2.4662500381e+01
    1.7560104370e+02   -2.4711399078e+01
    1.7570066833e+02   -2.4760099411e+01
    1.7580038452e+02   -2.4808900833e+01
    1.7590130615e+02   -2.4858299255e+01
    1.7600056458e+02   -2.4906900406e+01
    1.7609980774e+02   -2.4955600739e+01
    1.7620022583e+02   -2.5004899979e+01
    1.7630006409e+02   -2.5053899765e+01
    1.7640046692e+02   -2.5103200912e+01
    1.7650146484e+02   -2.5152799606e+01
    1.7660067749e+02   -2.5201499939e+01
    1.7670153809e+02   -2.5251100540e+01
    1.7680061340e+02   -2.5299800873e+01
    1.7690138245e+02   -2.5349300385e+01
    1.7700041199e+02   -2.5397899628e+01
    1.7709988403e+02   -2.5446800232e+01
    1.7720109558e+02   -2.5496599197e+01
    1.7730038452e+02   -2.5545400620e+01
    1.7739999390e+02   -2.5594499588e+01
    1.7750027466e+02   -2.5643800735e+01
    1.7760046387e+02   -2.5693099976e+01
    1.7770028687e+02   -2.5742300034e+01
    1.7780094910e+02   -2.5791799545e+01
    1.7790057373e+02   -2.5840700150e+01
    1.7800030518e+02   -2.5889600754e+01
    1.7810163879e+02   -2.5939199448e+01
    1.7820162964e+02   -2.5988000870e+01
    1.7830009460e+02   -2.6035900116e+01
    1.7840043640e+02   -2.6084699631e+01
    1.7850085449e+02   -2.6133300781e+01
    1.7860139465e+02   -2.6181999207e+01
    1.7870027161e+02   -2.6229700089e+01
    1.7880114746e+02   -2.6278400421e+01
    1.7890049744e+02   -2.6326200485e+01
    1.7900099182e+02   -2.6374599457e+01
    1.7910156250e+02   -2.6423099518e+01
    1.7920046997e+02   -2.6470800400e+01
    1.7930047607e+02   -2.6518899918e+01
    1.7940008545e+02   -2.6566999435e+01
    1.7950166321e+02   -2.6615900040e+01
    1.7960142517e+02   -2.6663999557e+01
    1.7970120239e+02   -2.6712099075e+01
    1.7980097961e+02   -2.6760200500e+01
    1.7990074158e+02   -2.6808300018e+01
    1.8000025940e+02   -2.6856199265e+01
    1.8010125732e+02   -2.6904899597e+01
    1.8020056152e+02   -2.6952800751e+01
    1.8030163574e+02   -2.7001499176e+01
    1.8040095520e+02   -2.7049499512e+01
    1.8050030518e+02   -2.7097499847e+01
    1.8060136414e+02   -2.7146299362e+01
    1.8070065308e+02   -2.7194400787e+01
    1.8080049133e+02   -2.7242700577e+01
    1.8090025330e+02   -2.7291099548e+01
    1.8100134277e+02   -2.7340099335e+01
    1.8110032654e+02   -2.7388000488e+01
    1.8120129395e+02   -2.7436899185e+01
    1.8130076599e+02   -2.7485099792e+01
    1.8140022278e+02   -2.7533100128e+01
    1.8150044250e+02   -2.7581399918e+01
    1.8160144043e+02   -2.7629999161e+01
    1.8170085144e+02   -2.7677799225e+01
    1.8180026245e+02   -2.7725500107e+01
    1.8190159607e+02   -2.7774000168e+01
    1.8200042725e+02   -2.7821199417e+01
    1.8210125732e+02   -2.7869400024e+01
    1.8220042419e+02   -2.7916700363e+01
    1.8230140686e+02   -2.7965000153e+01
    1.8240168762e+02   -2.8012800217e+01
    1.8250169373e+02   -2.8060600281e+01
    1.8260180664e+02   -2.8108499527e+01
    1.8270013428e+02   -2.8155500412e+01
    1.8280165100e+02   -2.8204099655e+01
    1.8290122986e+02   -2.8251800537e+01
    1.8300079346e+02   -2.8299499512e+01
    1.8310035706e+02   -2.8347099304e+01
    1.8320144653e+02   -2.8395599365e+01
    1.8330163574e+02   -2.8443599701e+01
    1.8340187073e+02   -2.8491600037e+01
    1.8350024414e+02   -2.8538700104e+01
    1.8360084534e+02   -2.8586999893e+01
    1.8370045471e+02   -2.8634799957e+01
    1.8380180359e+02   -2.8683500290e+01
    1.8390139771e+02   -2.8731399536e+01
    1.8400177002e+02   -2.8779699326e+01
    1.8410136414e+02   -2.8827699661e+01
    1.8420060730e+02   -2.8875600815e+01
    1.8430139160e+02   -2.8924200058e+01
    1.8440098572e+02   -2.8972200394e+01
    1.8450032043e+02   -2.9020099640e+01
    1.8460136414e+02   -2.9068799973e+01
    1.8470042419e+02   -2.9116399765e+01
    1.8480119324e+02   -2.9164800644e+01
    1.8490170288e+02   -2.9212999344e+01
    1.8500169373e+02   -2.9260799408e+01
    1.8510174561e+02   -2.9308500290e+01
    1.8520181274e+02   -2.9356199265e+01
    1.8530197144e+02   -2.9403799057e+01
    1.8540046692e+02   -2.9450599670e+01
    1.8550074768e+02   -2.9498199463e+01
    1.8560037231e+02   -2.9545400620e+01
    1.8570144653e+02   -2.9593399048e+01
    1.8580078125e+02   -2.9640499115e+01
    1.8590202332e+02   -2.9688499451e+01
    1.8600151062e+02   -2.9735700607e+01
    1.8610208130e+02   -2.9783399582e+01
    1.8620091248e+02   -2.9830299377e+01
    1.8630067444e+02   -2.9877599716e+01
    1.8640193176e+02   -2.9925600052e+01
    1.8650190735e+02   -2.9972900391e+01
    1.8660069275e+02   -3.0019699097e+01
    1.8670115662e+02   -3.0067199707e+01
    1.8680154419e+02   -3.0114599228e+01
    1.8690187073e+02   -3.0161899567e+01
    1.8700091553e+02   -3.0208700180e+01
    1.8710177612e+02   -3.0256200790e+01
    1.8720072937e+02   -3.0302799225e+01
    1.8730137634e+02   -3.0350200653e+01
    1.8740162659e+02   -3.0397300720e+01
    1.8750138855e+02   -3.0444200516e+01
    1.8760107422e+02   -3.0490900040e+01
    1.8770191956e+02   -3.0538200378e+01
    1.8780213928e+02   -3.0584999084e+01
    1.8790101624e+02   -3.0631200790e+01
    1.8800210571e+02   -3.0678199768e+01
    1.8810139465e+02   -3.0724199295e+01
    1.8820152283e+02   -3.0770500183e+01
    1.8830158997e+02   -3.0816499710e+01
    1.8840174866e+02   -3.0862499237e+01
    1.8850202942e+02   -3.0908300400e+01
    1.8860061646e+02   -3.0953300476e+01
    1.8870117188e+02   -3.0999000549e+01
    1.8880192566e+02   -3.1044700623e+01
    1.8890098572e+02   -3.1089599609e+01
    1.8900144958e+02   -3.1135099411e+01
    1.8910189819e+02   -3.1180500031e+01
    1.8920065308e+02   -3.1225200653e+01
    1.8930183411e+02   -3.1270999908e+01
    1.8940127563e+02   -3.1315900803e+01
    1.8950077820e+02   -3.1360900879e+01
    1.8960217285e+02   -3.1406700134e+01
    1.8970173645e+02   -3.1451599121e+01
    1.8980128479e+02   -3.1496500015e+01
    1.8990081787e+02   -3.1541400909e+01
    1.9000222778e+02   -3.1587099075e+01
    1.9010121155e+02   -3.1631599426e+01
    1.9020132446e+02   -3.1676700592e+01
    1.9030212402e+02   -3.1722099304e+01
    1.9040119934e+02   -3.1766599655e+01
    1.9050201416e+02   -3.1812000275e+01
    1.9060107422e+02   -3.1856599808e+01
    1.9070179749e+02   -3.1902000427e+01
    1.9080131531e+02   -3.1946800232e+01
    1.9090075684e+02   -3.1991600037e+01
    1.9100195312e+02   -3.2037200928e+01
    1.9110087585e+02   -3.2081699371e+01
    1.9120201111e+02   -3.2127101898e+01
    1.9130122375e+02   -3.2171600342e+01
    1.9140228271e+02   -3.2216899872e+01
    1.9150099182e+02   -3.2261001587e+01
    1.9160234070e+02   -3.2306098938e+01
    1.9170156860e+02   -3.2350200653e+01
    1.9180082703e+02   -3.2394199371e+01
    1.9190197754e+02   -3.2438999176e+01
    1.9200137329e+02   -3.2482898712e+01
    1.9210078430e+02   -3.2526798248e+01
    1.9220150757e+02   -3.2571201324e+01
    1.9230224609e+02   -3.2615600586e+01
    1.9240168762e+02   -3.2659400940e+01
    1.9250134277e+02   -3.2703399658e+01
    1.9260107422e+02   -3.2747398376e+01
    1.9270085144e+02   -3.2791400909e+01
    1.9280160522e+02   -3.2835899353e+01
    1.9290248108e+02   -3.2880500793e+01
    1.9300160217e+02   -3.2924198151e+01
    1.9310244751e+02   -3.2968700409e+01
    1.9320152283e+02   -3.3012401581e+01
    1.9330120850e+02   -3.3056400299e+01
    1.9340083313e+02   -3.3100299835e+01
    1.9350227356e+02   -3.3144901276e+01
    1.9360185242e+02   -3.3188800812e+01
    1.9370146179e+02   -3.3232601166e+01
    1.9380213928e+02   -3.3276798248e+01
    1.9390101624e+02   -3.3320301056e+01
    1.9400152588e+02   -3.3364498138e+01
    1.9410192871e+02   -3.3408599854e+01
    1.9420217896e+02   -3.3452701569e+01
    1.9430226135e+02   -3.3496601105e+01
    1.9440225220e+02   -3.3540401459e+01
[...]
    2.5130453491e+02   -4.0381500244e+01
    2.5140461731e+02   -4.0355098724e+01
    2.5150466919e+02   -4.0328601837e+01
    2.5160473633e+02   -4.0301799774e+01
    2.5170486450e+02   -4.0274898529e+01
    2.5180505371e+02   -4.0247798920e+01
    2.5190525818e+02   -4.0220600128e+01
    2.5200488281e+02   -4.0193298340e+01
    2.5210456848e+02   -4.0166000366e+01
    2.5220599365e+02   -4.0138000488e+01
    2.5230575562e+02   -4.0110500336e+01
    2.5240556335e+02   -4.0082801819e+01
    2.5250544739e+02   -4.0055099487e+01
    2.5260491943e+02   -4.0027400970e+01
    2.5270553589e+02   -3.9999401093e+01
    2.5280612183e+02   -3.9971298218e+01
    2.5290603638e+02   -3.9943298340e+01
    2.5300527954e+02   -3.9915401459e+01
    2.5310557556e+02   -3.9887100220e+01
    2.5320582581e+02   -3.9858699799e+01
    2.5330604553e+02   -3.9830200195e+01
    2.5340449524e+02   -3.9802101135e+01
    2.5350483704e+02   -3.9773300171e+01
    2.5360528564e+02   -3.9744300842e+01
    2.5370582581e+02   -3.9715099335e+01
    2.5380462646e+02   -3.9686401367e+01
    2.5390539551e+02   -3.9657100677e+01
    2.5400549316e+02   -3.9627799988e+01
    2.5410453796e+02   -3.9598800659e+01
    2.5420501709e+02   -3.9569400787e+01
    2.5430531311e+02   -3.9539901733e+01
    2.5440557861e+02   -3.9510398865e+01
    2.5450579834e+02   -3.9480899811e+01
    2.5460580444e+02   -3.9451400757e+01
    2.5470477295e+02   -3.9422100067e+01
    2.5480552673e+02   -3.9392101288e+01
    2.5490625000e+02   -3.9362098694e+01
    2.5500515747e+02   -3.9332500458e+01
    2.5510589600e+02   -3.9302299500e+01
    2.5520585632e+02   -3.9272201538e+01
    2.5530604553e+02   -3.9242000580e+01
    2.5540628052e+02   -3.9211601257e+01
    2.5550482178e+02   -3.9181701660e+01
    2.5560508728e+02   -3.9151298523e+01
    2.5570535278e+02   -3.9120800018e+01
    2.5580560303e+02   -3.9090301514e+01
    2.5590580750e+02   -3.9059700012e+01
    2.5600595093e+02   -3.9029098511e+01
    2.5610491943e+02   -3.8998901367e+01
    2.5620568848e+02   -3.8967998505e+01
    2.5630639648e+02   -3.8937099457e+01
    2.5640518188e+02   -3.8906600952e+01
    2.5650570679e+02   -3.8875499725e+01
    2.5660617065e+02   -3.8844299316e+01
    2.5670474243e+02   -3.8813499451e+01
    2.5680508423e+02   -3.8782001495e+01
    2.5690628052e+02   -3.8750099182e+01
    2.5700588989e+02   -3.8718498230e+01
    2.5710546875e+02   -3.8686798096e+01
    2.5720501709e+02   -3.8654899597e+01
    2.5730502319e+02   -3.8622898102e+01
    2.5740597534e+02   -3.8590301514e+01
    2.5750619507e+02   -3.8557998657e+01
    2.5760641479e+02   -3.8525501251e+01
    2.5770480347e+02   -3.8493499756e+01
    2.5780502319e+02   -3.8460700989e+01
    2.5790524292e+02   -3.8427898407e+01
    2.5800497437e+02   -3.8395000458e+01
    2.5810614014e+02   -3.8361499786e+01
    2.5820553589e+02   -3.8328498840e+01
    2.5830490112e+02   -3.8295200348e+01
    2.5840502930e+02   -3.8261600494e+01
    2.5850512695e+02   -3.8227699280e+01
    2.5860565186e+02   -3.8193500519e+01
    2.5870520020e+02   -3.8159500122e+01
    2.5880648804e+02   -3.8124801636e+01
    2.5890609741e+02   -3.8090499878e+01
    2.5900576782e+02   -3.8055999756e+01
    2.5910607910e+02   -3.8021301270e+01
    2.5920639038e+02   -3.7986400604e+01
    2.5930554199e+02   -3.7951801300e+01
    2.5940512085e+02   -3.7916900635e+01
    2.5950634766e+02   -3.7881401062e+01
    2.5960574341e+02   -3.7846298218e+01
    2.5970495605e+02   -3.7811199188e+01
    2.5980484009e+02   -3.7775699615e+01
    2.5990649414e+02   -3.7739299774e+01
    2.6000628662e+02   -3.7703498840e+01
    2.6010604858e+02   -3.7667400360e+01
    2.6020584106e+02   -3.7631198883e+01
    2.6030569458e+02   -3.7594799042e+01
    2.6040557861e+02   -3.7558200836e+01
    2.6050598145e+02   -3.7521301270e+01
    2.6060537720e+02   -3.7484600067e+01
    2.6070657349e+02   -3.7447200775e+01
    2.6080551147e+02   -3.7410499573e+01
    2.6090588379e+02   -3.7373100281e+01
    2.6100634766e+02   -3.7335700989e+01
    2.6110510254e+02   -3.7298801422e+01
    2.6120571899e+02   -3.7261100769e+01
    2.6130633545e+02   -3.7223300934e+01
    2.6140515137e+02   -3.7186100006e+01
    2.6150573730e+02   -3.7148101807e+01
    2.6160629272e+02   -3.7110000610e+01
    2.6170501709e+02   -3.7072399139e+01
    2.6180566406e+02   -3.7034000397e+01
    2.6190567017e+02   -3.6995800018e+01
    2.6200570679e+02   -3.6957401276e+01
    2.6210574341e+02   -3.6918899536e+01
    2.6220581055e+02   -3.6880298615e+01
    2.6230587769e+02   -3.6841701508e+01
    2.6240600586e+02   -3.6803001404e+01
    2.6250616455e+02   -3.6764198303e+01
    2.6260632324e+02   -3.6725399017e+01
    2.6270526123e+02   -3.6687099457e+01
    2.6280612183e+02   -3.6647899628e+01
    2.6290509033e+02   -3.6609500885e+01
    2.6300585938e+02   -3.6570201874e+01
    2.6310653687e+02   -3.6530899048e+01
    2.6320538330e+02   -3.6492298126e+01
    2.6330627441e+02   -3.6452701569e+01
    2.6340625000e+02   -3.6413299561e+01
    2.6350634766e+02   -3.6373798370e+01
    2.6360534668e+02   -3.6334701538e+01
    2.6370623779e+02   -3.6294601440e+01
    2.6380627441e+02   -3.6254798889e+01
    2.6390661621e+02   -3.6214801788e+01
    2.6400524902e+02   -3.6175399780e+01
    2.6410562134e+02   -3.6135299683e+01
    2.6420599365e+02   -3.6095100403e+01
    2.6430639648e+02   -3.6054901123e+01
    2.6440676880e+02   -3.6014598846e+01
    2.6450540161e+02   -3.5974998474e+01
    2.6460571289e+02   -3.5934600830e+01
    2.6470593262e+02   -3.5894100189e+01
    2.6480529785e+02   -3.5853900909e+01
    2.6490603638e+02   -3.5812999725e+01
    2.6500671387e+02   -3.5771999359e+01
    2.6510687256e+02   -3.5730998993e+01
    2.6520681763e+02   -3.5689998627e+01
    2.6530679321e+02   -3.5648899078e+01
    2.6540676880e+02   -3.5607700348e+01
    2.6550677490e+02   -3.5566398621e+01
    2.6560678101e+02   -3.5524898529e+01
    2.6570678711e+02   -3.5483398438e+01
    2.6580679321e+02   -3.5441799164e+01
    2.6590609741e+02   -3.5400501251e+01
    2.6600677490e+02   -3.5358398438e+01
    2.6610559082e+02   -3.5317100525e+01
    2.6620623779e+02   -3.5274898529e+01
    2.6630685425e+02   -3.5232601166e+01
    2.6640554810e+02   -3.5191001892e+01
    2.6650604248e+02   -3.5148498535e+01
    2.6660641479e+02   -3.5105899811e+01
    2.6670672607e+02   -3.5063098907e+01
    2.6680630493e+02   -3.5020500183e+01
    2.6690579224e+02   -3.4977798462e+01
    2.6700692749e+02   -3.4934200287e+01
    2.6710635376e+02   -3.4891201019e+01
    2.6720574951e+02   -3.4847999573e+01
    2.6730618286e+02   -3.4804298401e+01
    2.6740628052e+02   -3.4760601044e+01
    2.6750637817e+02   -3.4716800690e+01
    2.6760653687e+02   -3.4672901154e+01
    2.6770669556e+02   -3.4628799438e+01
    2.6780688477e+02   -3.4584598541e+01
    2.6790707397e+02   -3.4540298462e+01
    2.6800653076e+02   -3.4496200562e+01
    2.6810601807e+02   -3.4451900482e+01
    2.6820550537e+02   -3.4407398224e+01
    2.6830664062e+02   -3.4362098694e+01
    2.6840603638e+02   -3.4317298889e+01
    2.6850714111e+02   -3.4271598816e+01
    2.6860656738e+02   -3.4226501465e+01
    2.6870605469e+02   -3.4181198120e+01
    2.6880673218e+02   -3.4135299683e+01
    2.6890701294e+02   -3.4089298248e+01
    2.6900552368e+02   -3.4044101715e+01
    2.6910589600e+02   -3.3997898102e+01
    2.6920632935e+02   -3.3951599121e+01
    2.6930676270e+02   -3.3905200958e+01
    2.6940600586e+02   -3.3859298706e+01
    2.6950564575e+02   -3.3813098907e+01
    2.6960693359e+02   -3.3765998840e+01
    2.6970574951e+02   -3.3719898224e+01
    2.6980587769e+02   -3.3673099518e+01
    2.6990600586e+02   -3.3626201630e+01
    2.7000613403e+02   -3.3579101562e+01
    2.7010629272e+02   -3.3531799316e+01
    2.7020645142e+02   -3.3484401703e+01
    2.7030670166e+02   -3.3436901093e+01
    2.7040707397e+02   -3.3389099121e+01
    2.7050616455e+02   -3.3341899872e+01
    2.7060604858e+02   -3.3294101715e+01
    2.7070608521e+02   -3.3246299744e+01
    2.7080615234e+02   -3.3198299408e+01
    2.7090606689e+02   -3.3150299072e+01
    2.7100701904e+02   -3.3101799011e+01
    2.7110614014e+02   -3.3054100037e+01
    2.7120684814e+02   -3.3005599976e+01
    2.7130718994e+02   -3.2957099915e+01
    2.7140576172e+02   -3.2909400940e+01
    2.7150604248e+02   -3.2860801697e+01
    2.7160601807e+02   -3.2812198639e+01
    2.7170697021e+02   -3.2763000488e+01
    2.7180609131e+02   -3.2714599609e+01
    2.7190722656e+02   -3.2665000916e+01
    2.7200582886e+02   -3.2616699219e+01
    2.7210617065e+02   -3.2567298889e+01
    2.7220654297e+02   -3.2517898560e+01
    2.7230691528e+02   -3.2468399048e+01
    2.7240734863e+02   -3.2418800354e+01
    2.7250607300e+02   -3.2370098114e+01
    2.7260650635e+02   -3.2320400238e+01
    2.7270654297e+02   -3.2270999908e+01
    2.7280587769e+02   -3.2221801758e+01
    2.7290704346e+02   -3.2171699524e+01
    2.7300637817e+02   -3.2122501373e+01
    2.7310574341e+02   -3.2073101044e+01
    2.7320712280e+02   -3.2022701263e+01
    2.7330581665e+02   -3.1973499298e+01
    2.7340621948e+02   -3.1923299789e+01
    2.7350662231e+02   -3.1873100281e+01
    2.7360577393e+02   -3.1823299408e+01
    2.7370690918e+02   -3.1772399902e+01
    2.7380621338e+02   -3.1722400665e+01
    2.7390698242e+02   -3.1671499252e+01
    2.7400738525e+02   -3.1620800018e+01
    2.7410604858e+02   -3.1570800781e+01
    2.7420706177e+02   -3.1519599915e+01
    2.7430737305e+02   -3.1468700409e+01
    2.7440600586e+02   -3.1418600082e+01
    2.7450631714e+02   -3.1367500305e+01
    2.7460659790e+02   -3.1316400528e+01
    2.7470675659e+02   -3.1265199661e+01
    2.7480682373e+02   -3.1214000702e+01
    2.7490676880e+02   -3.1162700653e+01
    2.7500711060e+02   -3.1111000061e+01
    2.7510574341e+02   -3.1059999466e+01
    2.7520620728e+02   -3.1007999420e+01
    2.7530667114e+02   -3.0955900192e+01
    2.7540640259e+02   -3.0903900146e+01
    2.7550604248e+02   -3.0851900101e+01
    2.7560595703e+02   -3.0799699783e+01
    2.7570596313e+02   -3.0747299194e+01
    2.7580593872e+02   -3.0694900513e+01
    2.7590698242e+02   -3.0641799927e+01
    2.7600585938e+02   -3.0589799881e+01
    2.7610653687e+02   -3.0536699295e+01
    2.7620718384e+02   -3.0483600616e+01
    2.7630593872e+02   -3.0431400299e+01
    2.7640689087e+02   -3.0377899170e+01
    2.7650665283e+02   -3.0324899673e+01
    2.7660629272e+02   -3.0271799088e+01
    2.7670739746e+02   -3.0217800140e+01
    2.7680761719e+02   -3.0164100647e+01
    2.7690759277e+02   -3.0110399246e+01
    2.7700701904e+02   -3.0056800842e+01
    2.7710647583e+02   -3.0003099442e+01
    2.7720660400e+02   -2.9948900223e+01
    2.7730676270e+02   -2.9894500732e+01
    2.7740695190e+02   -2.9840000153e+01
    2.7750717163e+02   -2.9785400391e+01
    2.7760742188e+02   -2.9730699539e+01
    2.7770767212e+02   -2.9675899506e+01
    2.7780645752e+02   -2.9621799469e+01
    2.7790612793e+02   -2.9567100525e+01
    2.7800744629e+02   -2.9511299133e+01
    2.7810702515e+02   -2.9456399918e+01
    2.7820663452e+02   -2.9401399612e+01
    2.7830621338e+02   -2.9346200943e+01
    2.7840750122e+02   -2.9289899826e+01
    2.7850708008e+02   -2.9234399796e+01
    2.7860644531e+02   -2.9178899765e+01
    2.7870681763e+02   -2.9122699738e+01
    2.7880728149e+02   -2.9066400528e+01
    2.7890606689e+02   -2.9010900497e+01
    2.7900683594e+02   -2.8954200745e+01
    2.7910769653e+02   -2.8897399902e+01
    2.7920675659e+02   -2.8841499329e+01
    2.7930731201e+02   -2.8784799576e+01
    2.7940750122e+02   -2.8728300095e+01
    2.7950765991e+02   -2.8671699524e+01
    2.7960772705e+02   -2.8615200043e+01
    2.7970751953e+02   -2.8558700562e+01
    2.7980642700e+02   -2.8502599716e+01
    2.7990716553e+02   -2.8445400238e+01
    2.8000610352e+02   -2.8389200211e+01
    2.8010690308e+02   -2.8331699371e+01
    2.8020776367e+02   -2.8274200439e+01
    2.8030718994e+02   -2.8217300415e+01
    2.8040750122e+02   -2.8159799576e+01
    2.8050616455e+02   -2.8103200912e+01
    2.8060665894e+02   -2.8045499802e+01
    2.8070718384e+02   -2.7987699509e+01
    2.8080776978e+02   -2.7929800034e+01
    2.8090667725e+02   -2.7872800827e+01
    2.8100686646e+02   -2.7815099716e+01
    2.8110641479e+02   -2.7757600784e+01
    2.8120782471e+02   -2.7699100494e+01
    2.8130776978e+02   -2.7641300201e+01
    2.8140676880e+02   -2.7583999634e+01
    2.8150747681e+02   -2.7525600433e+01
    2.8160784912e+02   -2.7467300415e+01
    2.8170745850e+02   -2.7409400940e+01
    2.8180706787e+02   -2.7351299286e+01
    2.8190707397e+02   -2.7292900085e+01
    2.8200790405e+02   -2.7233999252e+01
    2.8210702515e+02   -2.7176000595e+01
    2.8220788574e+02   -2.7116899490e+01
    2.8230627441e+02   -2.7059299469e+01
    2.8240789795e+02   -2.6999700546e+01
    2.8250769043e+02   -2.6941099167e+01
    2.8260708618e+02   -2.6882799149e+01
    2.8270745850e+02   -2.6823900223e+01
    2.8280725098e+02   -2.6765399933e+01
    2.8290704346e+02   -2.6706800461e+01
    2.8300683594e+02   -2.6648199081e+01
    2.8310787964e+02   -2.6588699341e+01
    2.8320700073e+02   -2.6530399323e+01
    2.8330773926e+02   -2.6471000671e+01
    2.8340667725e+02   -2.6412500381e+01
    2.8350729370e+02   -2.6353000641e+01
    2.8360696411e+02   -2.6293899536e+01
    2.8370635986e+02   -2.6234800339e+01
    2.8380755615e+02   -2.6174600601e+01
    2.8390692139e+02   -2.6115400314e+01
    2.8400735474e+02   -2.6055500031e+01
    2.8410729980e+02   -2.5995700836e+01
    2.8420654297e+02   -2.5936399460e+01
    2.8430712891e+02   -2.5876199722e+01
    2.8440747070e+02   -2.5815999985e+01
    2.8450778198e+02   -2.5755899429e+01
    2.8460803223e+02   -2.5695699692e+01
    2.8470648193e+02   -2.5636499405e+01
    2.8480715942e+02   -2.5575799942e+01
    2.8490789795e+02   -2.5514999390e+01
    2.8500674438e+02   -2.5455299377e+01
    2.8510739136e+02   -2.5394399643e+01
    2.8520806885e+02   -2.5333299637e+01
    2.8530694580e+02   -2.5273199081e+01
    2.8540771484e+02   -2.5211900711e+01
    2.8550656128e+02   -2.5151699066e+01
    2.8560675049e+02   -2.5090599060e+01
    2.8570700073e+02   -2.5029399872e+01
    2.8580722046e+02   -2.4968200684e+01
    2.8590744019e+02   -2.4906999588e+01
    2.8600765991e+02   -2.4845699310e+01
    2.8610757446e+02   -2.4784599304e+01
    2.8620657349e+02   -2.4724000931e+01
    2.8630734253e+02   -2.4662200928e+01
    2.8640774536e+02   -2.4600599289e+01
    2.8650765991e+02   -2.4539199829e+01
    2.8660647583e+02   -2.4478399277e+01
    2.8670693970e+02   -2.4416400909e+01
    2.8680740356e+02   -2.4354299545e+01
    2.8690783691e+02   -2.4292100906e+01
    2.8700677490e+02   -2.4230800629e+01
    2.8710824585e+02   -2.4167699814e+01
    2.8720800781e+02   -2.4105600357e+01
    2.8730780029e+02   -2.4043399811e+01
    2.8740765381e+02   -2.3981100082e+01
    2.8750753784e+02   -2.3918699265e+01
    2.8760812378e+02   -2.3855899811e+01
    2.8770687866e+02   -2.3794099808e+01
    2.8780749512e+02   -2.3731100082e+01
    2.8790814209e+02   -2.3668100357e+01
    2.8800698853e+02   -2.3606100082e+01
    2.8810769653e+02   -2.3542900085e+01
    2.8820663452e+02   -2.3480699539e+01
    2.8830789185e+02   -2.3416999817e+01
    2.8840805054e+02   -2.3353900909e+01
    2.8850830078e+02   -2.3290599823e+01
    2.8860687256e+02   -2.3228399277e+01
    2.8870834351e+02   -2.3164199829e+01
    2.8880773926e+02   -2.3101400375e+01
    2.8890725708e+02   -2.3038400650e+01
    2.8900692749e+02   -2.2975299835e+01
    2.8910668945e+02   -2.2912200928e+01
    2.8920834351e+02   -2.2847799301e+01
    2.8930728149e+02   -2.2785200119e+01
    2.8940820312e+02   -2.2721399307e+01
    2.8950726318e+02   -2.2658700943e+01
    2.8960803223e+02   -2.2594999313e+01
    2.8970700073e+02   -2.2532300949e+01
    2.8980712891e+02   -2.2468900681e+01
    2.8990670776e+02   -2.2405700684e+01
    2.9000814819e+02   -2.2341299057e+01
    2.9010781860e+02   -2.2277999878e+01
    2.9020797729e+02   -2.2214300156e+01
    2.9030715942e+02   -2.2151100159e+01
    2.9040814209e+02   -2.2086700439e+01
    2.9050741577e+02   -2.2023399353e+01
    2.9060845947e+02   -2.1958900452e+01
    2.9070785522e+02   -2.1895399094e+01
    2.9080725098e+02   -2.1831899643e+01
    2.9090744019e+02   -2.1767900467e+01
    2.9100753784e+02   -2.1704000473e+01
    2.9110769653e+02   -2.1639999390e+01
    2.9120794678e+02   -2.1576099396e+01
    2.9130761719e+02   -2.1512399673e+01
    2.9140734863e+02   -2.1448699951e+01
    2.9150714111e+02   -2.1385000229e+01
    2.9160708618e+02   -2.1321199417e+01
    2.9170748901e+02   -2.1256999969e+01
    2.9180792236e+02   -2.1192699432e+01
    2.9190850830e+02   -2.1128400803e+01
    2.9200836182e+02   -2.1064500809e+01
    2.9210818481e+02   -2.1000499725e+01
    2.9220797729e+02   -2.0936599731e+01
    2.9230795288e+02   -2.0872600555e+01
    2.9240832520e+02   -2.0808300018e+01
    2.9250793457e+02   -2.0744499207e+01
    2.9260763550e+02   -2.0680700302e+01
    2.9270733643e+02   -2.0616899490e+01
    2.9280700684e+02   -2.0553100586e+01
    2.9290838623e+02   -2.0488199234e+01
    2.9300793457e+02   -2.0424400330e+01
    2.9310742188e+02   -2.0360700607e+01
    2.9320852661e+02   -2.0295900345e+01
    2.9330776978e+02   -2.0232200623e+01
    2.9340740967e+02   -2.0168199539e+01
    2.9350711060e+02   -2.0104099274e+01
    2.9360861206e+02   -2.0038700104e+01
    2.9370828247e+02   -1.9974500656e+01
    2.9380792236e+02   -1.9910200119e+01
    2.9390765381e+02   -1.9845800400e+01
    2.9400839233e+02   -1.9780700684e+01
    2.9410739136e+02   -1.9716800690e+01
    2.9420809937e+02   -1.9651699066e+01
    2.9430706787e+02   -1.9587799072e+01
    2.9440774536e+02   -1.9522699356e+01
    2.9450839233e+02   -1.9457700729e+01
    2.9460769653e+02   -1.9393600464e+01
    2.9470712280e+02   -1.9329399109e+01
    2.9480834961e+02   -1.9263999939e+01
    2.9490768433e+02   -1.9199699402e+01
    2.9500698853e+02   -1.9135499954e+01
    2.9510812378e+02   -1.9070100784e+01
    2.9520742798e+02   -1.9005800247e+01
    2.9530810547e+02   -1.8940500259e+01
    2.9540863037e+02   -1.8875400543e+01
    2.9550741577e+02   -1.8811300278e+01
    2.9560794067e+02   -1.8746099472e+01
    2.9570849609e+02   -1.8680900574e+01
    2.9580728149e+02   -1.8616800308e+01
    2.9590780640e+02   -1.8551500320e+01
    2.9600772095e+02   -1.8486700058e+01
    2.9610708618e+02   -1.8422300339e+01
    2.9620828247e+02   -1.8356599808e+01
    2.9630758667e+02   -1.8292200089e+01
    2.9640869141e+02   -1.8226499557e+01
    2.9650790405e+02   -1.8162099838e+01
    2.9660705566e+02   -1.8097700119e+01
    2.9670800781e+02   -1.8031999588e+01
    2.9680822754e+02   -1.7966800690e+01
    2.9690847778e+02   -1.7901500702e+01
    2.9700872803e+02   -1.7836099625e+01
    2.9710726929e+02   -1.7771900177e+01
    2.9720758057e+02   -1.7706399918e+01
    2.9730795288e+02   -1.7641000748e+01
    2.9740774536e+02   -1.7575899124e+01
    2.9750711060e+02   -1.7511100769e+01
    2.9760836792e+02   -1.7445199966e+01
    2.9770785522e+02   -1.7380399704e+01
    2.9780743408e+02   -1.7315700531e+01
    2.9790890503e+02   -1.7249700546e+01
    2.9800860596e+02   -1.7184999466e+01
    2.9810836792e+02   -1.7120199203e+01
    2.9820816040e+02   -1.7055400848e+01
    2.9830767822e+02   -1.6990800858e+01
    2.9840878296e+02   -1.6925199509e+01
    2.9850820923e+02   -1.6860599518e+01
    2.9860769653e+02   -1.6795999527e+01
    2.9870898438e+02   -1.6730300903e+01
    2.9880780029e+02   -1.6666099548e+01
    2.9890808105e+02   -1.6600900650e+01
    2.9900845337e+02   -1.6535800934e+01
    2.9910885620e+02   -1.6470600128e+01
    2.9920745850e+02   -1.6406600952e+01
    2.9930780029e+02   -1.6341600418e+01
    2.9940859985e+02   -1.6276300430e+01
    2.9950894165e+02   -1.6211399078e+01
    2.9960821533e+02   -1.6147100449e+01
    2.9970794678e+02   -1.6082700729e+01
    2.9980770874e+02   -1.6018199921e+01
    2.9990747070e+02   -1.5953700066e+01
endcurve
