Curveplot
LS-DYNA keyword deck by LS-PrePost
Time
Yrot-displ
Rigid Body Ids
300001 #pts=1800
* Minval=    -1.6834443665e+02 at time=       115.1986007690
* Maxval=     4.3763291615e-05 at time=         5.9993038177
    0.0000000000e+00   -9.3476174357e-08
    9.9644668400e-02   -1.1071362849e-07
    1.9928930700e-01   -1.2736403221e-07
    2.9893401265e-01   -1.4238203505e-07
    3.9857870340e-01   -1.5449276702e-07
    4.9822330475e-01   -1.6218929488e-07
    5.9964740276e-01   -1.6374134759e-07
    6.9929212332e-01   -1.5721838054e-07
    7.9893672466e-01   -1.4052996278e-07
    8.9900118113e-01   -1.1148637213e-07
    9.9972569942e-01   -6.7878801246e-08
    1.0981210470e+00   -7.5732460303e-09
    1.1996150017e+00    7.1380426903e-08
    1.2985600233e+00    1.7060531832e-07
    1.3995039463e+00    2.9120192835e-07
    1.4984489679e+00    4.3350974011e-07
    1.5996140242e+00    5.9685237375e-07
    1.6982289553e+00    7.7928194742e-07
    1.7990640402e+00    9.7731799542e-07
    1.8994389772e+00    1.1856768651e-06
    1.9995039701e+00    1.3969995507e-06
    2.0987789631e+00    1.6015973188e-06
    2.1986250877e+00    1.7872428089e-06
    2.2990190983e+00    1.9390324724e-06
    2.3993039131e+00    2.0393542854e-06
    2.4992389679e+00    2.0679844965e-06
    2.5984039307e+00    2.0023383058e-06
    2.6994590759e+00    1.8179154040e-06
    2.7995040417e+00    1.4890008515e-06
    2.8991289139e+00    9.8969553619e-07
    2.9998540878e+00    2.9531980772e-07
    3.0991299152e+00   -6.1581249611e-07
    3.1987349987e+00   -1.7603151719e-06
    3.2988009453e+00   -3.1474737625e-06
    3.3996570110e+00   -4.7769767662e-06
    3.4990429878e+00   -6.6368120315e-06
    3.5997879505e+00   -8.7014950623e-06
    3.6991710663e+00   -1.0930772078e-05
    3.7996520996e+00   -1.3268924704e-05
    3.8993799686e+00   -1.5644776795e-05
    3.9986460209e+00   -1.7972493879e-05
    4.0998859406e+00   -2.0153225705e-05
    4.1987051964e+00   -2.2077625545e-05
    4.2991871834e+00   -2.3629221687e-05
    4.3992037773e+00   -2.4688573831e-05
    4.4985570908e+00   -2.5138118872e-05
    4.5994620323e+00   -2.4867591492e-05
    4.6994609833e+00   -2.3779937692e-05
    4.7999138832e+00   -2.1797621230e-05
    4.8986711502e+00   -1.8869239284e-05
    4.9991102219e+00   -1.4976347302e-05
    5.0991029739e+00   -1.0140433915e-05
    5.1993989944e+00   -4.4298994908e-06
    5.2983689308e+00    2.0330201096e-06
    5.3996610641e+00    9.0655003078e-06
    5.4990592003e+00    1.6417603547e-05
    5.5995688438e+00    2.3766027880e-05
    5.6996150017e+00    3.0708142731e-05
    5.7991070747e+00    3.6756304326e-05
    5.8993830681e+00    4.1332496039e-05
    5.9993038177e+00    4.3763291615e-05
    6.0997710228e+00    4.3275169446e-05
    6.1985688210e+00    3.8990197936e-05
    6.2990298271e+00    2.9922146496e-05
    6.3997077942e+00    1.4972944882e-05
    6.4997072220e+00   -7.0706032602e-06
    6.5991749763e+00   -3.7539910409e-05
    6.6991720200e+00   -7.7887205407e-05
    6.7996268272e+00   -1.2968767260e-04
    6.8996219635e+00   -1.9464145589e-04
    6.9996190071e+00   -2.7457551914e-04
    7.0986299515e+00   -3.7144517410e-04
    7.1986308098e+00   -4.8733450240e-04
    7.2983050346e+00   -6.2445650110e-04
    7.3982210159e+00   -7.8515231144e-04
    7.4982309341e+00   -9.7189127700e-04
    7.5987048149e+00   -1.1872707400e-03
    7.6994028091e+00   -1.4340172056e-03
    7.7994270325e+00   -1.7149887281e-03
    7.8987979889e+00   -2.0331782289e-03
    7.9988341331e+00   -2.3917146027e-03
    8.0988740921e+00   -2.7938643470e-03
    8.1988115311e+00   -3.2430312131e-03
    8.2988662720e+00   -3.7427579518e-03
    8.3989286423e+00   -4.2967284098e-03
    8.4990005493e+00   -4.9087693915e-03
    8.5990819931e+00   -5.5828504264e-03
    8.6991758347e+00   -6.3230874948e-03
    8.7992811203e+00   -7.1337409317e-03
    8.8993997574e+00   -8.0192200840e-03
    8.9995336533e+00   -8.9840758592e-03
    9.0996818542e+00   -1.0033009574e-02
    9.1998462677e+00   -1.1170862243e-02
    9.2981376648e+00   -1.2402613647e-02
    9.3983383179e+00   -1.3733368367e-02
    9.4985589981e+00   -1.5168328770e-02
    9.5987997055e+00   -1.6712775454e-02
    9.6990613937e+00   -1.8372068182e-02
    9.7993421555e+00   -2.0151628181e-02
    9.8996353149e+00   -2.2056950256e-02
    9.9995965958e+00   -2.4093588814e-02
    1.0099909782e+01   -2.6267163455e-02
    1.0198340416e+01   -2.8583340347e-02
    1.0298640251e+01   -3.1047824770e-02
    1.0399000168e+01   -3.3666308969e-02
    1.0499380112e+01   -3.6444466561e-02
    1.0599740028e+01   -3.9387963712e-02
    1.0698280334e+01   -4.2502444237e-02
    1.0798620224e+01   -4.5793537050e-02
    1.0899009705e+01   -4.9266811460e-02
    1.0999460220e+01   -5.2927773446e-02
    1.1099789619e+01   -5.6781888008e-02
    1.1198360443e+01   -6.0834586620e-02
    1.1298830032e+01   -6.5091259778e-02
    1.1399319649e+01   -6.9557234645e-02
    1.1499790192e+01   -7.4237786233e-02
    1.1598270416e+01   -7.9138137400e-02
    1.1698450089e+01   -8.4263451397e-02
    1.1798870087e+01   -8.9618809521e-02
    1.1899230003e+01   -9.5209173858e-02
    1.1999750137e+01   -1.0103945434e-01
    1.2098320007e+01   -1.0711447150e-01
    1.2198880196e+01   -1.1343902349e-01
    1.2299409866e+01   -1.2001781166e-01
    1.2398280144e+01   -1.2685546279e-01
    1.2498740196e+01   -1.3395644724e-01
    1.2599320412e+01   -1.4132519066e-01
    1.2699939728e+01   -1.4896592498e-01
    1.2798669815e+01   -1.5688291192e-01
    1.2899140358e+01   -1.6508029401e-01
    1.2999750137e+01   -1.7356218398e-01
    1.3098660469e+01   -1.8233266473e-01
    1.3199299812e+01   -1.9139568508e-01
    1.3299989700e+01   -2.0075519383e-01
    1.3398570061e+01   -2.1041502059e-01
    1.3499239922e+01   -2.2037902474e-01
    1.3598250389e+01   -2.3065091670e-01
    1.3698860168e+01   -2.4123427272e-01
    1.3799799919e+01   -2.5213250518e-01
    1.3898830414e+01   -2.6334893703e-01
    1.3999779701e+01   -2.7488681674e-01
    1.4098569870e+01   -2.8674936295e-01
    1.4199339867e+01   -2.9893976450e-01
    1.4298319817e+01   -3.1146115065e-01
    1.4399290085e+01   -3.2431656122e-01
    1.4498149872e+01   -3.3750879765e-01
    1.4599120140e+01   -3.5104072094e-01
    1.4699879646e+01   -3.6491495371e-01
    1.4798569679e+01   -3.7913420796e-01
    1.4899559975e+01   -3.9370113611e-01
    1.4998550415e+01   -4.0861859918e-01
    1.5099329948e+01   -4.2388939857e-01
    1.5198419571e+01   -4.3951636553e-01
    1.5299070358e+01   -4.5550236106e-01
    1.5398170471e+01   -4.7185027599e-01
    1.5499179840e+01   -4.8856288195e-01
    1.5598279953e+01   -5.0564295053e-01
    1.5699110031e+01   -5.2309322357e-01
    1.5798219681e+01   -5.4091638327e-01
    1.5899250031e+01   -5.5911523104e-01
    1.5998379707e+01   -5.7769232988e-01
    1.6099420547e+01   -5.9665048122e-01
    1.6198560715e+01   -6.1599248648e-01
    1.6299329758e+01   -6.3572114706e-01
    1.6398410797e+01   -6.5583944321e-01
    1.6499490738e+01   -6.7635047436e-01
    1.6598680496e+01   -6.9725739956e-01
    1.6699779510e+01   -7.1856349707e-01
    1.6798990250e+01   -7.4027204514e-01
    1.6898199081e+01   -7.6238679886e-01
    1.6999349594e+01   -7.8491133451e-01
    1.7098590851e+01   -8.0784928799e-01
    1.7199760437e+01   -8.3120441437e-01
    1.7299030304e+01   -8.5498058796e-01
    1.7398319244e+01   -8.7918192148e-01
    1.7499530792e+01   -9.0381258726e-01
    1.7598850250e+01   -9.2887693644e-01
    1.7698179245e+01   -9.5437937975e-01
    1.7799440384e+01   -9.8032432795e-01
    1.7898809433e+01   -1.0067161322e+00
    1.7998189926e+01   -1.0335592031e+00
    1.8099510193e+01   -1.0608581305e+00
    1.8198930740e+01   -1.0886174440e+00
    1.8298379898e+01   -1.1168415546e+00
    1.8399759293e+01   -1.1455352306e+00
    1.8499259949e+01   -1.1747032404e+00
    1.8598770142e+01   -1.2043503523e+00
    1.8698320389e+01   -1.2344820499e+00
    1.8799800873e+01   -1.2651032209e+00
    1.8899400711e+01   -1.2962195873e+00
    1.8999029160e+01   -1.3278362751e+00
    1.9098680496e+01   -1.3599593639e+00
    1.9198299408e+01   -1.3925948143e+00
    1.9299800873e+01   -1.4257483482e+00
    1.9399370193e+01   -1.4594261646e+00
    1.9498910904e+01   -1.4936342239e+00
    1.9598430634e+01   -1.5283790827e+00
    1.9699840546e+01   -1.5636671782e+00
    1.9799320221e+01   -1.5995050669e+00
    1.9898780823e+01   -1.6358997822e+00
    1.9998229980e+01   -1.6728582382e+00
    2.0099569321e+01   -1.7103873491e+00
    2.0198980331e+01   -1.7484940290e+00
    2.0298379898e+01   -1.7871850729e+00
    2.0399669647e+01   -1.8264672756e+00
    2.0499029160e+01   -1.8663471937e+00
    2.0598369598e+01   -1.9068315029e+00
    2.0699600220e+01   -1.9479269981e+00
    2.0798900604e+01   -1.9896399975e+00
    2.0898180008e+01   -2.0319769382e+00
    2.0999340057e+01   -2.0749442577e+00
    2.1098569870e+01   -2.1185476780e+00
    2.1199680328e+01   -2.1627926826e+00
    2.1298849106e+01   -2.2076842785e+00
    2.1399900436e+01   -2.2532284260e+00
    2.1499010086e+01   -2.2994298935e+00
    2.1600000381e+01   -2.3462944031e+00
    2.1699050903e+01   -2.3938274384e+00
    2.1799980164e+01   -2.4420354366e+00
    2.1898969650e+01   -2.4909236431e+00
    2.1999830246e+01   -2.5404989719e+00
    2.2098760605e+01   -2.5907671452e+00
    2.2199560165e+01   -2.6417350769e+00
    2.2298419952e+01   -2.6934084892e+00
    2.2399150848e+01   -2.7457935810e+00
    2.2499849319e+01   -2.7988960743e+00
    2.2598600388e+01   -2.8527212143e+00
    2.2699230194e+01   -2.9072747231e+00
    2.2799810410e+01   -2.9625616074e+00
    2.2898460388e+01   -3.0185871124e+00
    2.2998970032e+01   -3.0753562450e+00
    2.3099430084e+01   -3.1328742504e+00
    2.3199850082e+01   -3.1911456585e+00
    2.3298330307e+01   -3.2501754761e+00
    2.3398660660e+01   -3.3099682331e+00
    2.3498929977e+01   -3.3705282211e+00
    2.3599159241e+01   -3.4318592548e+00
    2.3699319839e+01   -3.4939644337e+00
    2.3799430847e+01   -3.5568466187e+00
    2.3899480820e+01   -3.6205089092e+00
    2.3999460220e+01   -3.6849546432e+00
    2.4099380493e+01   -3.7501873970e+00
    2.4199230194e+01   -3.8162107468e+00
    2.4299009323e+01   -3.8830287457e+00
    2.4398710251e+01   -3.9506456852e+00
    2.4498329163e+01   -4.0190649033e+00
    2.4599760056e+01   -4.0882883072e+00
    2.4699220657e+01   -4.1583185196e+00
    2.4798599243e+01   -4.2291574478e+00
    2.4899770737e+01   -4.3008069992e+00
    2.4998970032e+01   -4.3732681274e+00
    2.5099960327e+01   -4.4465436935e+00
    2.5198989868e+01   -4.5206356049e+00
    2.5299800873e+01   -4.5955457687e+00
    2.5398649216e+01   -4.6712770462e+00
    2.5499269485e+01   -4.7478327751e+00
    2.5599800110e+01   -4.8252158165e+00
    2.5698379517e+01   -4.9034295082e+00
    2.5798730850e+01   -4.9824771881e+00
    2.5898990631e+01   -5.0623607635e+00
    2.5999170303e+01   -5.1430830956e+00
    2.6099250793e+01   -5.2246460915e+00
    2.6199249268e+01   -5.3070521355e+00
    2.6299169540e+01   -5.3903021812e+00
    2.6398990631e+01   -5.4743986130e+00
    2.6498739243e+01   -5.5593447685e+00
    2.6598400116e+01   -5.6451416016e+00
    2.6699829102e+01   -5.7317914963e+00
    2.6799329758e+01   -5.8192949295e+00
    2.6898740768e+01   -5.9076538086e+00
    2.6999919891e+01   -5.9968695641e+00
    2.7099170685e+01   -6.0869450569e+00
    2.7198339462e+01   -6.1778826714e+00
    2.7299270630e+01   -6.2696847916e+00
    2.7398279190e+01   -6.3623547554e+00
    2.7499050140e+01   -6.4558935165e+00
    2.7599729538e+01   -6.5503020287e+00
    2.7698499680e+01   -6.6455821991e+00
    2.7799020767e+01   -6.7417354584e+00
    2.7899459839e+01   -6.8387646675e+00
    2.7999820709e+01   -6.9366736412e+00
    2.8098279953e+01   -7.0354657173e+00
    2.8198490143e+01   -7.1351475716e+00
    2.8298629761e+01   -7.2357234955e+00
    2.8398689270e+01   -7.3371982574e+00
    2.8498680115e+01   -7.4395747185e+00
    2.8598609924e+01   -7.5428562164e+00
    2.8698469162e+01   -7.6470446587e+00
    2.8798269272e+01   -7.7521419525e+00
    2.8899829865e+01   -7.8581490517e+00
    2.8999509811e+01   -7.9650654793e+00
    2.9099130630e+01   -8.0728921890e+00
    2.9198709488e+01   -8.1816301346e+00
    2.9300050735e+01   -8.2912807465e+00
    2.9399530411e+01   -8.4018449783e+00
    2.9498960495e+01   -8.5133256912e+00
    2.9598350525e+01   -8.6257266998e+00
    2.9699499130e+01   -8.7390527725e+00
    2.9798809052e+01   -8.8533067703e+00
    2.9899890900e+01   -8.9684915543e+00
    2.9999109268e+01   -9.0846147537e+00
    3.0098300934e+01   -9.2016801834e+00
    3.0199260712e+01   -9.3196954727e+00
    3.0298379898e+01   -9.4386672974e+00
    3.0399259567e+01   -9.5585994720e+00
    3.0498310089e+01   -9.6794967651e+00
    3.0599119186e+01   -9.8013620377e+00
    3.0699890137e+01   -9.9241981506e+00
    3.0798820496e+01   -1.0048007965e+01
    3.0899520874e+01   -1.0172795296e+01
    3.0998380661e+01   -1.0298564911e+01
    3.1099000931e+01   -1.0425322533e+01
    3.1199579239e+01   -1.0553072929e+01
    3.1298330307e+01   -1.0681819916e+01
    3.1398839951e+01   -1.0811567307e+01
    3.1499300003e+01   -1.0942319870e+01
    3.1599729538e+01   -1.1074079514e+01
    3.1698320389e+01   -1.1206848145e+01
    3.1798669815e+01   -1.1340628624e+01
    3.1898969650e+01   -1.1475419998e+01
    3.1999240875e+01   -1.1611225128e+01
    3.2099460602e+01   -1.1748039246e+01
    3.2199649811e+01   -1.1885864258e+01
    3.2299800873e+01   -1.2024696350e+01
    3.2399898529e+01   -1.2164536476e+01
    3.2499969482e+01   -1.2305382729e+01
    3.2599998474e+01   -1.2447237968e+01
    3.2699989319e+01   -1.2590102196e+01
    3.2799930573e+01   -1.2733978271e+01
    3.2899848938e+01   -1.2878871918e+01
    3.2999710083e+01   -1.3024785995e+01
    3.3099540710e+01   -1.3171730042e+01
    3.3199329376e+01   -1.3319707870e+01
    3.3299068451e+01   -1.3468729019e+01
    3.3398769379e+01   -1.3618798256e+01
    3.3498420715e+01   -1.3769922256e+01
    3.3599800110e+01   -1.3922101974e+01
    3.3699359894e+01   -1.4075340271e+01
    3.3798858643e+01   -1.4229637146e+01
    3.3898311615e+01   -1.4384994507e+01
    3.3999469757e+01   -1.4541411400e+01
    3.4098800659e+01   -1.4698885918e+01
    3.4199840546e+01   -1.4857417107e+01
    3.4299041748e+01   -1.5017000198e+01
    3.4399940491e+01   -1.5177633286e+01
    3.4499000549e+01   -1.5339315414e+01
    3.4599750519e+01   -1.5502047539e+01
    3.4698661804e+01   -1.5665827751e+01
    3.4799259186e+01   -1.5830657005e+01
    3.4899780273e+01   -1.5996535301e+01
    3.4998439789e+01   -1.6163465500e+01
    3.5098789215e+01   -1.6331445694e+01
    3.5199050903e+01   -1.6500480652e+01
    3.5299221039e+01   -1.6670566559e+01
    3.5399311066e+01   -1.6841705322e+01
    3.5499298096e+01   -1.7013893127e+01
    3.5599208832e+01   -1.7187133789e+01
    3.5699020386e+01   -1.7361425400e+01
    3.5798751831e+01   -1.7536766052e+01
    3.5898391724e+01   -1.7713157654e+01
    3.5999679565e+01   -1.7890600204e+01
    3.6099140167e+01   -1.8069089890e+01
    3.6198509216e+01   -1.8248626709e+01
    3.6299530029e+01   -1.8429204941e+01
    3.6398719788e+01   -1.8610824585e+01
    3.6499549866e+01   -1.8793483734e+01
    3.6598560333e+01   -1.8977178574e+01
    3.6699211121e+01   -1.9161907196e+01
    3.6799781799e+01   -1.9347667694e+01
    3.6898521423e+01   -1.9534452438e+01
    3.6998901367e+01   -1.9722261429e+01
    3.7099178314e+01   -1.9911090851e+01
    3.7199378967e+01   -2.0100934982e+01
    3.7299480438e+01   -2.0291790009e+01
    3.7399490356e+01   -2.0483648300e+01
    3.7499408722e+01   -2.0676511765e+01
    3.7599239349e+01   -2.0870376587e+01
    3.7698978424e+01   -2.1065238953e+01
    3.7798618317e+01   -2.1261098862e+01
    3.7899890900e+01   -2.1457952499e+01
    3.7999359131e+01   -2.1655796051e+01
    3.8098739624e+01   -2.1854629517e+01
    3.8199748993e+01   -2.2054445267e+01
    3.8298950195e+01   -2.2255243301e+01
    3.8399780273e+01   -2.2457021713e+01
    3.8498828888e+01   -2.2659780502e+01
    3.8599491119e+01   -2.2863515854e+01
    3.8698360443e+01   -2.3068227768e+01
    3.8798870087e+01   -2.3273916245e+01
    3.8899299622e+01   -2.3480575562e+01
    3.8999649048e+01   -2.3688205719e+01
    3.9099929810e+01   -2.3896804810e+01
    3.9198448181e+01   -2.4106370926e+01
    3.9298599243e+01   -2.4316905975e+01
    3.9398681641e+01   -2.4528408051e+01
    3.9498710632e+01   -2.4740880966e+01
    3.9598670959e+01   -2.4954319000e+01
    3.9698589325e+01   -2.5168720245e+01
    3.9798450470e+01   -2.5384077072e+01
    3.9899948120e+01   -2.5600383759e+01
    3.9999710083e+01   -2.5817628860e+01
    4.0099430084e+01   -2.6035808563e+01
    4.0199108124e+01   -2.6254919052e+01
    4.0298740387e+01   -2.6474958420e+01
    4.0398349762e+01   -2.6695924759e+01
    4.0499591827e+01   -2.6917814255e+01
    4.0599121094e+01   -2.7140621185e+01
    4.0698608398e+01   -2.7364345551e+01
    4.0799758911e+01   -2.7588979721e+01
    4.0899181366e+01   -2.7814521790e+01
    4.0998569489e+01   -2.8040964127e+01
    4.1099609375e+01   -2.8268308640e+01
    4.1198940277e+01   -2.8496549606e+01
    4.1299930573e+01   -2.8725683212e+01
    4.1399188995e+01   -2.8955711365e+01
    4.1498428345e+01   -2.9186630249e+01
    4.1599330902e+01   -2.9418443680e+01
    4.1698509216e+01   -2.9651153564e+01
    4.1799350739e+01   -2.9884759903e+01
    4.1898479462e+01   -3.0119256973e+01
    4.1999259949e+01   -3.0354644775e+01
    4.2098339081e+01   -3.0590921402e+01
    4.2198791504e+01   -3.0828083038e+01
    4.2299510956e+01   -3.1066127777e+01
    4.2399429321e+01   -3.1305047989e+01
    4.2498428345e+01   -3.1544845581e+01
    4.2599090576e+01   -3.1785512924e+01
    4.2698471069e+01   -3.2027050018e+01
    4.2798820496e+01   -3.2269458771e+01
    4.2898860931e+01   -3.2512729645e+01
    4.2998901367e+01   -3.2756858826e+01
    4.3099510193e+01   -3.3001842499e+01
    4.3199420929e+01   -3.3247673035e+01
    4.3298339844e+01   -3.3494346619e+01
    4.3398929596e+01   -3.3741859436e+01
    4.3499519348e+01   -3.3990211487e+01
    4.3598419189e+01   -3.4239387512e+01
    4.3698989868e+01   -3.4489391327e+01
    4.3799549103e+01   -3.4740211487e+01
    4.3899620056e+01   -3.4991840363e+01
    4.3999191284e+01   -3.5244270325e+01
    4.4098949432e+01   -3.5497501373e+01
    4.4199470520e+01   -3.5751533508e+01
    4.4298320770e+01   -3.6006359100e+01
    4.4398818970e+01   -3.6261981964e+01
    4.4499111176e+01   -3.6518398285e+01
    4.4599590302e+01   -3.6775600433e+01
    4.4698371887e+01   -3.7033580780e+01
    4.4798801422e+01   -3.7292335510e+01
    4.4899021149e+01   -3.7551860809e+01
    4.4999420166e+01   -3.7812149048e+01
    4.5099788666e+01   -3.8073188782e+01
    4.5198459625e+01   -3.8334972382e+01
    4.5298778534e+01   -3.8597492218e+01
    4.5399070740e+01   -3.8860748291e+01
    4.5499340057e+01   -3.9124732971e+01
    4.5599578857e+01   -3.9389438629e+01
    4.5699790955e+01   -3.9654861450e+01
    4.5798290253e+01   -3.9920997620e+01
    4.5898441315e+01   -4.0187850952e+01
    4.5998561859e+01   -4.0455425262e+01
    4.6098640442e+01   -4.0723709106e+01
    4.6198699951e+01   -4.0992706299e+01
    4.6298728943e+01   -4.1262409210e+01
    4.6398330688e+01   -4.1532814026e+01
    4.6498291016e+01   -4.1803909302e+01
    4.6598220825e+01   -4.2075679779e+01
    4.6699790955e+01   -4.2348114014e+01
    4.6799659729e+01   -4.2621196747e+01
    4.6899501801e+01   -4.2894916534e+01
    4.6999309540e+01   -4.3169254303e+01
    4.7099090576e+01   -4.3444210052e+01
    4.7198848724e+01   -4.3719776154e+01
    4.7298568726e+01   -4.3995941162e+01
    4.7398269653e+01   -4.4272712708e+01
    4.7499599457e+01   -4.4550071716e+01
    4.7599239349e+01   -4.4828018188e+01
    4.7698841095e+01   -4.5106536865e+01
    4.7798431396e+01   -4.5385623932e+01
    4.7899639130e+01   -4.5665271759e+01
    4.7998588562e+01   -4.5945468903e+01
    4.8099449158e+01   -4.6226203918e+01
    4.8198638916e+01   -4.6507472992e+01
    4.8299739838e+01   -4.6789272308e+01
    4.8399158478e+01   -4.7071586609e+01
    4.8498550415e+01   -4.7354415894e+01
    4.8598911285e+01   -4.7637756348e+01
    4.8698261261e+01   -4.7921604156e+01
    4.8799240112e+01   -4.8205947876e+01
    4.8898559570e+01   -4.8490783691e+01
    4.8999500275e+01   -4.8776096344e+01
    4.9098300934e+01   -4.9061885834e+01
    4.9199230194e+01   -4.9348133087e+01
    4.9299568176e+01   -4.9634834290e+01
    4.9398349762e+01   -4.9921981812e+01
    4.9498779297e+01   -5.0209564209e+01
    4.9598918915e+01   -5.0497581482e+01
    4.9698871613e+01   -5.0786018372e+01
    4.9799030304e+01   -5.1074871063e+01
    4.9899509430e+01   -5.1364128113e+01
    4.9998561859e+01   -5.1653785706e+01
    5.0098690033e+01   -5.1943836212e+01
    5.0199550629e+01   -5.2234279633e+01
    5.0298370361e+01   -5.2525096893e+01
    5.0398311615e+01   -5.2816287994e+01
    5.0498378754e+01   -5.3107849121e+01
    5.0599571228e+01   -5.3399761200e+01
    5.0699230194e+01   -5.3692016602e+01
    5.0799331665e+01   -5.3984600067e+01
    5.0898498535e+01   -5.4277507782e+01
    5.0999378204e+01   -5.4570716858e+01
    5.1099231720e+01   -5.4864227295e+01
    5.1199440002e+01   -5.5158023834e+01
    5.1299701691e+01   -5.5452110291e+01
    5.1398448944e+01   -5.5746471405e+01
    5.1498920441e+01   -5.6041110992e+01
    5.1599338531e+01   -5.6336029053e+01
    5.1698261261e+01   -5.6631217957e+01
    5.1798801422e+01   -5.6926677704e+01
    5.1899410248e+01   -5.7222404480e+01
    5.1998500824e+01   -5.7518390656e+01
    5.2099239349e+01   -5.7814628601e+01
    5.2198459625e+01   -5.8111114502e+01
    5.2299320221e+01   -5.8407836914e+01
    5.2398681641e+01   -5.8704795837e+01
    5.2499679565e+01   -5.9001968384e+01
    5.2599178314e+01   -5.9299362183e+01
    5.2698749542e+01   -5.9596969604e+01
    5.2798400879e+01   -5.9894779205e+01
    5.2898319244e+01   -6.0192794800e+01
    5.2999698639e+01   -6.0491001129e+01
    5.3099590302e+01   -6.0789394379e+01
    5.3199550629e+01   -6.1087955475e+01
    5.3299598694e+01   -6.1386676788e+01
    5.3399738312e+01   -6.1685546875e+01
    5.3498371124e+01   -6.1984565735e+01
    5.3598670959e+01   -6.2283729553e+01
    5.3699069977e+01   -6.2583034515e+01
    5.3799549103e+01   -6.2882480621e+01
    5.3898521423e+01   -6.3182052612e+01
    5.3999179840e+01   -6.3481758118e+01
    5.4098331451e+01   -6.3781589508e+01
    5.4199169159e+01   -6.4081550598e+01
    5.4298488617e+01   -6.4381637573e+01
    5.4399501801e+01   -6.4681838989e+01
    5.4499000549e+01   -6.4982131958e+01
    5.4598579407e+01   -6.5282524109e+01
    5.4698238373e+01   -6.5583007812e+01
    5.4799591064e+01   -6.5883575439e+01
    5.4899410248e+01   -6.6184204102e+01
    5.4999320984e+01   -6.6484878540e+01
    5.5099288940e+01   -6.6785575867e+01
    5.5199340820e+01   -6.7086296082e+01
    5.5299468994e+01   -6.7387023926e+01
    5.5399658203e+01   -6.7687759399e+01
    5.5498710632e+01   -6.7988487244e+01
    5.5599040985e+01   -6.8289215088e+01
    5.5699428558e+01   -6.8589920044e+01
    5.5798679352e+01   -6.8890609741e+01
    5.5899391174e+01   -6.9191268921e+01
    5.5998359680e+01   -6.9491897583e+01
    5.6098999023e+01   -6.9792472839e+01
    5.6199710846e+01   -7.0092987061e+01
    5.6298839569e+01   -7.0393440247e+01
    5.6398338318e+01   -7.0693801880e+01
    5.6499320984e+01   -7.0994079590e+01
    5.6598640442e+01   -7.1294265747e+01
    5.6699630737e+01   -7.1594345093e+01
    5.6799060822e+01   -7.1894317627e+01
    5.6898540497e+01   -7.2194190979e+01
    5.6998088837e+01   -7.2493965149e+01
    5.7098289490e+01   -7.2793632507e+01
    5.7198360443e+01   -7.3093193054e+01
    5.7298080444e+01   -7.3392646790e+01
    5.7398170471e+01   -7.3691970825e+01
    5.7498828888e+01   -7.3991165161e+01
    5.7599239349e+01   -7.4290206909e+01
    5.7699211121e+01   -7.4589073181e+01
    5.7799251556e+01   -7.4887756348e+01
    5.7899349213e+01   -7.5186218262e+01
    5.7999519348e+01   -7.5484458923e+01
    5.8098098755e+01   -7.5782463074e+01
    5.8198390961e+01   -7.6080223083e+01
    5.8299060822e+01   -7.6377723694e+01
    5.8399478912e+01   -7.6674964905e+01
    5.8498630524e+01   -7.6971939087e+01
    5.8599189758e+01   -7.7268615723e+01
    5.8698158264e+01   -7.7565010071e+01
    5.8798858643e+01   -7.7861099243e+01
    5.8899620056e+01   -7.8156867981e+01
    5.8998809814e+01   -7.8452331543e+01
    5.9098068237e+01   -7.8747467041e+01
    5.9199069977e+01   -7.9042289734e+01
    5.9298480988e+01   -7.9336776733e+01
    5.9399639130e+01   -7.9630928040e+01
    5.9499229431e+01   -7.9924743652e+01
    5.9598911285e+01   -8.0218215942e+01
    5.9698680878e+01   -8.0511344910e+01
    5.9798538208e+01   -8.0804122925e+01
    5.9898509979e+01   -8.1096557617e+01
    5.9998588562e+01   -8.1388641357e+01
    6.0098770142e+01   -8.1680374146e+01
    6.0199069977e+01   -8.1971740723e+01
    6.0299491882e+01   -8.2262725830e+01
    6.0398349762e+01   -8.2553337097e+01
    6.0499008179e+01   -8.2843559265e+01
    6.0598121643e+01   -8.3133399963e+01
    6.0699039459e+01   -8.3422836304e+01
    6.0798408508e+01   -8.3711875916e+01
    6.0899600983e+01   -8.4000495911e+01
    6.0999248505e+01   -8.4288703918e+01
    6.1099029541e+01   -8.4576477051e+01
    6.1198951721e+01   -8.4863807678e+01
    6.1299018860e+01   -8.5150688171e+01
    6.1399230957e+01   -8.5437110901e+01
    6.1499591827e+01   -8.5723052979e+01
    6.1598388672e+01   -8.6008499146e+01
    6.1699039459e+01   -8.6293441772e+01
    6.1798130035e+01   -8.6577865601e+01
    6.1899078369e+01   -8.6861763000e+01
    6.1998470306e+01   -8.7145118713e+01
    6.2097999573e+01   -8.7427940369e+01
    6.2199409485e+01   -8.7710212708e+01
    6.2299240112e+01   -8.7991928101e+01
    6.2399219513e+01   -8.8273094177e+01
    6.2499351501e+01   -8.8553703308e+01
    6.2597888947e+01   -8.8833763123e+01
    6.2698310852e+01   -8.9113281250e+01
    6.2798870087e+01   -8.9392250061e+01
    6.2899578094e+01   -8.9670677185e+01
    6.2998699188e+01   -8.9948554993e+01
    6.3097961426e+01   -9.0225883484e+01
    6.3199100494e+01   -9.0502662659e+01
    6.3298641205e+01   -9.0778900146e+01
    6.3398319244e+01   -9.1054588318e+01
    6.3498149872e+01   -9.1329719543e+01
    6.3598110199e+01   -9.1604309082e+01
    6.3698211670e+01   -9.1878356934e+01
    6.3798450470e+01   -9.2151855469e+01
    6.3898830414e+01   -9.2424797058e+01
    6.3999340057e+01   -9.2697174072e+01
    6.4098228455e+01   -9.2968994141e+01
    6.4199012756e+01   -9.3240234375e+01
    6.4298156738e+01   -9.3510902405e+01
    6.4399223328e+01   -9.3780990601e+01
    6.4498626709e+01   -9.4050483704e+01
    6.4598159790e+01   -9.4319389343e+01
    6.4697807312e+01   -9.4587692261e+01
    6.4799369812e+01   -9.4855384827e+01
    6.4899269104e+01   -9.5122444153e+01
    6.4999282837e+01   -9.5388854980e+01
    6.5099403381e+01   -9.5654617310e+01
    6.5197853088e+01   -9.5919723511e+01
    6.5298187256e+01   -9.6184165955e+01
    6.5398643494e+01   -9.6447944641e+01
    6.5499198914e+01   -9.6711051941e+01
    6.5598060608e+01   -9.6973487854e+01
    6.5698822021e+01   -9.7235244751e+01
    6.5797882080e+01   -9.7496322632e+01
    6.5898841858e+01   -9.7756721497e+01
    6.5998100281e+01   -9.8016426086e+01
    6.6099258423e+01   -9.8275444031e+01
    6.6198722839e+01   -9.8533760071e+01
    6.6298263550e+01   -9.8791374207e+01
    6.6397918701e+01   -9.9048286438e+01
    6.6499488831e+01   -9.9304489136e+01
    6.6599349976e+01   -9.9559959412e+01
    6.6699310303e+01   -9.9814712524e+01
    6.6799377441e+01   -1.0006873322e+02
    6.6897727966e+01   -1.0032202148e+02
    6.6998016357e+01   -1.0057458496e+02
    6.7098411560e+01   -1.0082640839e+02
    6.7198860168e+01   -1.0107749939e+02
    6.7299308777e+01   -1.0132784271e+02
    6.7397926331e+01   -1.0157743073e+02
    6.7498390198e+01   -1.0182624817e+02
    6.7598838806e+01   -1.0207429504e+02
    6.7699287415e+01   -1.0232156372e+02
    6.7798019409e+01   -1.0256804657e+02
    6.7898490906e+01   -1.0281373596e+02
    6.7998962402e+01   -1.0305863953e+02
    6.8097778320e+01   -1.0330273438e+02
    6.8198661804e+01   -1.0354603577e+02
    6.8298309326e+01   -1.0378852844e+02
    6.8399307251e+01   -1.0403023529e+02
    6.8499183655e+01   -1.0427115631e+02
    6.8599372864e+01   -1.0451129150e+02
    6.8697799683e+01   -1.0475064850e+02
    6.8798522949e+01   -1.0498922729e+02
    6.8899398804e+01   -1.0522702026e+02
    6.8998268127e+01   -1.0546402740e+02
    6.9099426270e+01   -1.0570023346e+02
    6.9198883057e+01   -1.0593563080e+02
    6.9298469543e+01   -1.0617021942e+02
    6.9398208618e+01   -1.0640399170e+02
    6.9498100281e+01   -1.0663695526e+02
    6.9598136902e+01   -1.0686911011e+02
    6.9698348999e+01   -1.0710045624e+02
    6.9798713684e+01   -1.0733099365e+02
    6.9899238586e+01   -1.0756072998e+02
    6.9998016357e+01   -1.0778965759e+02
    7.0098861694e+01   -1.0801778412e+02
    7.0197967529e+01   -1.0824511719e+02
    7.0299148560e+01   -1.0847167206e+02
    7.0398567200e+01   -1.0869744873e+02
    7.0498008728e+01   -1.0892244720e+02
    7.0599273682e+01   -1.0914669037e+02
    7.0698539734e+01   -1.0937016296e+02
    7.0797721863e+01   -1.0959288025e+02
    7.0898742676e+01   -1.0981483459e+02
    7.0997756958e+01   -1.1003603363e+02
    7.1098587036e+01   -1.1025647736e+02
    7.1199348450e+01   -1.1047615814e+02
    7.1298110962e+01   -1.1069507599e+02
    7.1398681641e+01   -1.1091323090e+02
    7.1499160767e+01   -1.1113063049e+02
    7.1597640991e+01   -1.1134727478e+02
    7.1697921753e+01   -1.1156317902e+02
    7.1798103333e+01   -1.1177834320e+02
    7.1898170471e+01   -1.1199276733e+02
    7.1998130798e+01   -1.1220645905e+02
    7.2097900391e+01   -1.1241941071e+02
    7.2199302673e+01   -1.1263161469e+02
    7.2298896790e+01   -1.1284306335e+02
    7.2397872925e+01   -1.1305374146e+02
    7.2497932434e+01   -1.1326364899e+02
    7.2598030090e+01   -1.1347278595e+02
    7.2698272705e+01   -1.1368114471e+02
    7.2798233032e+01   -1.1388871765e+02
    7.2898200989e+01   -1.1409550476e+02
    7.2998222351e+01   -1.1430150604e+02
    7.3098220825e+01   -1.1450672150e+02
    7.3198249817e+01   -1.1471115875e+02
    7.3298263550e+01   -1.1491481018e+02
    7.3398139954e+01   -1.1511769104e+02
    7.3497863770e+01   -1.1531978607e+02
    7.3599273682e+01   -1.1552112579e+02
    7.3698677063e+01   -1.1572168732e+02
    7.3797927856e+01   -1.1592147827e+02
    7.3898857117e+01   -1.1612049103e+02
    7.3997810364e+01   -1.1631873322e+02
    7.4098426819e+01   -1.1651621246e+02
    7.4198913574e+01   -1.1671291351e+02
    7.4299263000e+01   -1.1690884399e+02
    7.4397636414e+01   -1.1710401154e+02
    7.4497718811e+01   -1.1729841614e+02
    7.4597671509e+01   -1.1749207306e+02
    7.4699317932e+01   -1.1768497467e+02
    7.4798263550e+01   -1.1787712097e+02
    7.4898117065e+01   -1.1806851959e+02
    7.4998847961e+01   -1.1825916290e+02
    7.5098953247e+01   -1.1844904327e+02
    7.5198707581e+01   -1.1863815308e+02
    7.5298362732e+01   -1.1882652283e+02
    7.5399261475e+01   -1.1901412964e+02
    7.5498863220e+01   -1.1920098877e+02
    7.5598426819e+01   -1.1938710785e+02
    7.5697982788e+01   -1.1957250977e+02
    7.5797500610e+01   -1.1975717926e+02
    7.5898948669e+01   -1.1994113922e+02
    7.5998481750e+01   -1.2012439728e+02
    7.6098030090e+01   -1.2030693817e+02
    7.6197608948e+01   -1.2048876190e+02
    7.6299133301e+01   -1.2066988373e+02
    7.6398780823e+01   -1.2085029602e+02
    7.6498481750e+01   -1.2103000641e+02
    7.6598243713e+01   -1.2120901489e+02
    7.6698051453e+01   -1.2138735962e+02
    7.6797927856e+01   -1.2156504059e+02
    7.6897880554e+01   -1.2174205780e+02
    7.6997901917e+01   -1.2191843414e+02
    7.7097999573e+01   -1.2209418488e+02
    7.7198173523e+01   -1.2226931763e+02
    7.7298431396e+01   -1.2244383240e+02
    7.7398773193e+01   -1.2261775208e+02
    7.7499183655e+01   -1.2279106140e+02
    7.7597732544e+01   -1.2296379089e+02
    7.7698303223e+01   -1.2313593292e+02
    7.7798927307e+01   -1.2330747986e+02
    7.7897712708e+01   -1.2347846222e+02
    7.7998481750e+01   -1.2364886475e+02
    7.8099319458e+01   -1.2381869507e+02
    7.8198272705e+01   -1.2398795319e+02
    7.8299217224e+01   -1.2415663147e+02
    7.8398277283e+01   -1.2432475281e+02
    7.8499336243e+01   -1.2449233246e+02
    7.8598472595e+01   -1.2465935516e+02
    7.8697647095e+01   -1.2482586670e+02
    7.8798393250e+01   -1.2499185181e+02
    7.8898483276e+01   -1.2515734100e+02
    7.8997566223e+01   -1.2532233429e+02
    7.9097503662e+01   -1.2548683167e+02
    7.9198478699e+01   -1.2565084076e+02
    7.9298988342e+01   -1.2581435394e+02
    7.9397628784e+01   -1.2597737885e+02
    7.9498626709e+01   -1.2613990784e+02
    7.9597610474e+01   -1.2630194855e+02
    7.9698226929e+01   -1.2646349335e+02
    7.9798858643e+01   -1.2662456512e+02
    7.9897621155e+01   -1.2678515625e+02
    7.9998298645e+01   -1.2694526672e+02
    8.0099006653e+01   -1.2710490417e+02
    8.0197837830e+01   -1.2726407623e+02
    8.0298591614e+01   -1.2742277527e+02
    8.0397476196e+01   -1.2758101654e+02
    8.0498283386e+01   -1.2773879242e+02
    8.0599113464e+01   -1.2789610291e+02
    8.0698066711e+01   -1.2805296326e+02
    8.0798950195e+01   -1.2820935059e+02
    8.0897956848e+01   -1.2836529541e+02
    8.0998908997e+01   -1.2852075195e+02
    8.1097976685e+01   -1.2867575073e+02
    8.1199218750e+01   -1.2883029175e+02
    8.1298851013e+01   -1.2898435974e+02
    8.1398429871e+01   -1.2913798523e+02
    8.1497482300e+01   -1.2929116821e+02
    8.1598480225e+01   -1.2944390869e+02
    8.1699203491e+01   -1.2959623718e+02
    8.1798622131e+01   -1.2974815369e+02
    8.1898750305e+01   -1.2989964294e+02
    8.1998062134e+01   -1.3005075073e+02
    8.2098098755e+01   -1.3020149231e+02
    8.2197647095e+01   -1.3035186768e+02
    8.2297470093e+01   -1.3050190735e+02
    8.2399116516e+01   -1.3065161133e+02
    8.2498718262e+01   -1.3080097961e+02
    8.2598197937e+01   -1.3095001221e+02
    8.2697578430e+01   -1.3109869385e+02
    8.2798812866e+01   -1.3124705505e+02
    8.2897979736e+01   -1.3139508057e+02
    8.2999000549e+01   -1.3154280090e+02
    8.3097976685e+01   -1.3169021606e+02
    8.3198799133e+01   -1.3183734131e+02
    8.3297576904e+01   -1.3198420715e+02
    8.3398208618e+01   -1.3213082886e+02
    8.3498733521e+01   -1.3227722168e+02
    8.3599166870e+01   -1.3242340088e+02
    8.3697593689e+01   -1.3256936646e+02
    8.3797836304e+01   -1.3271514893e+02
    8.3898010254e+01   -1.3286076355e+02
    8.3998092651e+01   -1.3300621033e+02
    8.4098083496e+01   -1.3315150452e+02
    8.4198013306e+01   -1.3329661560e+02
    8.4297836304e+01   -1.3344157410e+02
    8.4397613525e+01   -1.3358634949e+02
    8.4499206543e+01   -1.3373095703e+02
    8.4598823547e+01   -1.3387536621e+02
    8.4698379517e+01   -1.3401957703e+02
    8.4797866821e+01   -1.3416360474e+02
    8.4899223328e+01   -1.3430743408e+02
    8.4998596191e+01   -1.3445108032e+02
    8.5097938538e+01   -1.3459452820e+02
    8.5199142456e+01   -1.3473780823e+02
    8.5298393250e+01   -1.3488092041e+02
    8.5397613525e+01   -1.3502386475e+02
    8.5498703003e+01   -1.3516665649e+02
    8.5597862244e+01   -1.3530932617e+02
    8.5698913574e+01   -1.3545185852e+02
    8.5798027039e+01   -1.3559428406e+02
    8.5899040222e+01   -1.3573660278e+02
    8.5998130798e+01   -1.3587881470e+02
    8.6099121094e+01   -1.3602093506e+02
    8.6198196411e+01   -1.3616294861e+02
    8.6299171448e+01   -1.3630487061e+02
    8.6398239136e+01   -1.3644670105e+02
    8.6499206543e+01   -1.3658842468e+02
    8.6598289490e+01   -1.3673007202e+02
    8.6697357178e+01   -1.3687165833e+02
    8.6798347473e+01   -1.3701316833e+02
    8.6897422791e+01   -1.3715461731e+02
    8.6998420715e+01   -1.3729602051e+02
    8.7097511292e+01   -1.3743739319e+02
    8.7198509216e+01   -1.3757870483e+02
    8.7297622681e+01   -1.3771998596e+02
    8.7398620605e+01   -1.3786123657e+02
    8.7497726440e+01   -1.3800245667e+02
    8.7598739624e+01   -1.3814366150e+02
    8.7697837830e+01   -1.3828483582e+02
    8.7799179077e+01   -1.3842596436e+02
    8.7898048401e+01   -1.3856709290e+02
    8.7998336792e+01   -1.3870817566e+02
    8.8098510742e+01   -1.3884922791e+02
    8.8197898865e+01   -1.3899028015e+02
    8.8299011230e+01   -1.3913131714e+02
    8.8398048401e+01   -1.3927233887e+02
    8.8497291565e+01   -1.3941339111e+02
    8.8598411560e+01   -1.3955447388e+02
    8.8697547913e+01   -1.3969557190e+02
    8.8798477173e+01   -1.3983671570e+02
    8.8898193359e+01   -1.3997792053e+02
    8.8999046326e+01   -1.4011921692e+02
    8.9098373413e+01   -1.4026058960e+02
    8.9197288513e+01   -1.4040205383e+02
    8.9298316956e+01   -1.4054362488e+02
    8.9397567749e+01   -1.4068528748e+02
    8.9498802185e+01   -1.4082705688e+02
    8.9598442078e+01   -1.4096893311e+02
    8.9698272705e+01   -1.4111093140e+02
    8.9797317505e+01   -1.4125302124e+02
    8.9898468018e+01   -1.4139523315e+02
    8.9998657227e+01   -1.4153755188e+02
    9.0098777771e+01   -1.4167996216e+02
    9.0198806763e+01   -1.4182247925e+02
    9.0298820496e+01   -1.4196508789e+02
    9.0398971558e+01   -1.4210781860e+02
    9.0499183655e+01   -1.4225065613e+02
    9.0597396851e+01   -1.4239361572e+02
    9.0697456360e+01   -1.4253668213e+02
    9.0797508240e+01   -1.4267988586e+02
    9.0897567749e+01   -1.4282319641e+02
    9.0997627258e+01   -1.4296662903e+02
    9.1097717285e+01   -1.4311019897e+02
    9.1197822571e+01   -1.4325387573e+02
    9.1297958374e+01   -1.4339768982e+02
    9.1398117065e+01   -1.4354161072e+02
    9.1498336792e+01   -1.4368566895e+02
    9.1598587036e+01   -1.4382986450e+02
    9.1698913574e+01   -1.4397418213e+02
    9.1797370911e+01   -1.4411866760e+02
    9.1897796631e+01   -1.4426330566e+02
    9.1998283386e+01   -1.4440811157e+02
    9.2098838806e+01   -1.4455308533e+02
    9.2197578430e+01   -1.4469827271e+02
    9.2298423767e+01   -1.4484365845e+02
    9.2398292542e+01   -1.4498928833e+02
    9.2498367310e+01   -1.4513516235e+02
    9.2598556519e+01   -1.4528129578e+02
    9.2698356628e+01   -1.4542774963e+02
    9.2797279358e+01   -1.4557450867e+02
    9.2897689819e+01   -1.4572160339e+02
    9.2998138428e+01   -1.4586907959e+02
    9.3097976685e+01   -1.4601693726e+02
    9.3198318481e+01   -1.4616523743e+02
    9.3298698425e+01   -1.4631399536e+02
    9.3399131775e+01   -1.4646325684e+02
    9.3497688293e+01   -1.4661305237e+02
    9.3598228455e+01   -1.4676345825e+02
    9.3698638916e+01   -1.4691448975e+02
    9.3798652649e+01   -1.4706620789e+02
    9.3897422791e+01   -1.4721865845e+02
    9.3998191833e+01   -1.4737185669e+02
    9.4099006653e+01   -1.4752583313e+02
    9.4197959900e+01   -1.4768060303e+02
    9.4298896790e+01   -1.4783616638e+02
    9.4397949219e+01   -1.4799256897e+02
    9.4498992920e+01   -1.4814976501e+02
    9.4598152161e+01   -1.4830775452e+02
    9.4697357178e+01   -1.4846653748e+02
    9.4798576355e+01   -1.4862605286e+02
    9.4897903442e+01   -1.4878630066e+02
    9.4997276306e+01   -1.4894721985e+02
    9.5098670959e+01   -1.4910876465e+02
    9.5198150635e+01   -1.4927088928e+02
    9.5297683716e+01   -1.4943351746e+02
    9.5397247314e+01   -1.4959663391e+02
    9.5498802185e+01   -1.4976013184e+02
    9.5598350525e+01   -1.4992396545e+02
    9.5697807312e+01   -1.5008804321e+02
    9.5797187805e+01   -1.5025227356e+02
    9.5898406982e+01   -1.5041661072e+02
    9.5997596741e+01   -1.5058096313e+02
    9.6098648071e+01   -1.5074525452e+02
    9.6197669983e+01   -1.5090942383e+02
    9.6298576355e+01   -1.5107342529e+02
    9.6397468567e+01   -1.5123716736e+02
    9.6498207092e+01   -1.5140061951e+02
    9.6598838806e+01   -1.5156370544e+02
    9.6697402954e+01   -1.5172640991e+02
    9.6797760010e+01   -1.5188865662e+02
    9.6897972107e+01   -1.5205039978e+02
    9.6998046875e+01   -1.5221162415e+02
    9.7098060608e+01   -1.5237226868e+02
    9.7198013306e+01   -1.5253230286e+02
    9.7297889709e+01   -1.5269168091e+02
    9.7397666931e+01   -1.5285041809e+02
    9.7498191833e+01   -1.5300848389e+02
    9.7597320557e+01   -1.5316584778e+02
    9.7698677063e+01   -1.5332250977e+02
    9.7798210144e+01   -1.5347846985e+02
    9.7898857117e+01   -1.5363371277e+02
    9.7997528076e+01   -1.5378820801e+02
    9.8097793579e+01   -1.5394195557e+02
    9.8198226929e+01   -1.5409497070e+02
    9.8298492432e+01   -1.5424722290e+02
    9.8398620605e+01   -1.5439872742e+02
    9.8498626709e+01   -1.5454945374e+02
    9.8598060608e+01   -1.5469944763e+02
    9.8698951721e+01   -1.5484867859e+02
    9.8798713684e+01   -1.5499714661e+02
    9.8897972107e+01   -1.5514486694e+02
    9.8998970032e+01   -1.5529180908e+02
    9.9097938538e+01   -1.5543798828e+02
    9.9198593140e+01   -1.5558343506e+02
    9.9299026489e+01   -1.5572811890e+02
    9.9399002075e+01   -1.5587205505e+02
    9.9497688293e+01   -1.5601527405e+02
    9.9598831177e+01   -1.5615779114e+02
    9.9698532104e+01   -1.5629959106e+02
    9.9798179626e+01   -1.5644071960e+02
    9.9897712708e+01   -1.5658117676e+02
    9.9998939514e+01   -1.5672099304e+02
    1.0009819794e+02   -1.5686015320e+02
    1.0019740295e+02   -1.5699867249e+02
    1.0029759979e+02   -1.5713658142e+02
    1.0039759827e+02   -1.5727384949e+02
    1.0049819946e+02   -1.5741050720e+02
    1.0059870148e+02   -1.5754652405e+02
    1.0069899750e+02   -1.5768190002e+02
    1.0079730225e+02   -1.5781661987e+02
    1.0089749908e+02   -1.5795066833e+02
    1.0099770355e+02   -1.5808407593e+02
    1.0109750366e+02   -1.5821678162e+02
    1.0119730377e+02   -1.5834880066e+02
    1.0129879761e+02   -1.5848014832e+02
    1.0139839935e+02   -1.5861080933e+02
    1.0149780273e+02   -1.5874078369e+02
    1.0159889984e+02   -1.5887007141e+02
    1.0169819641e+02   -1.5899868774e+02
    1.0179740143e+02   -1.5912661743e+02
    1.0189830017e+02   -1.5925386047e+02
    1.0199720001e+02   -1.5938044739e+02
    1.0209790039e+02   -1.5950636292e+02
    1.0219840240e+02   -1.5963157654e+02
    1.0229900360e+02   -1.5975611877e+02
    1.0239759827e+02   -1.5987995911e+02
    1.0249890137e+02   -1.6000309753e+02
    1.0259839630e+02   -1.6012553406e+02
    1.0269789886e+02   -1.6024726868e+02
    1.0279889679e+02   -1.6036830139e+02
    1.0289759827e+02   -1.6048860168e+02
    1.0299739838e+02   -1.6060815430e+02
    1.0309899902e+02   -1.6072698975e+02
    1.0319860077e+02   -1.6084506226e+02
    1.0329820251e+02   -1.6096241760e+02
    1.0339769745e+02   -1.6107901001e+02
    1.0349900055e+02   -1.6119487000e+02
    1.0359839630e+02   -1.6130999756e+02
    1.0369770050e+02   -1.6142436218e+02
    1.0379869843e+02   -1.6153797913e+02
    1.0389790344e+02   -1.6165083313e+02
    1.0399870300e+02   -1.6176293945e+02
    1.0409760284e+02   -1.6187426758e+02
    1.0419809723e+02   -1.6198483276e+02
    1.0429840088e+02   -1.6209460449e+02
    1.0439880371e+02   -1.6220359802e+02
    1.0449720001e+02   -1.6231179810e+02
    1.0459739685e+02   -1.6241921997e+02
    1.0469799805e+02   -1.6252581787e+02
    1.0479869843e+02   -1.6263160706e+02
    1.0489769745e+02   -1.6273655701e+02
    1.0499819946e+02   -1.6284066772e+02
    1.0509870148e+02   -1.6294392395e+02
    1.0519850159e+02   -1.6304629517e+02
    1.0529810333e+02   -1.6314781189e+02
    1.0539769745e+02   -1.6324841309e+02
    1.0549890137e+02   -1.6334811401e+02
    1.0559839630e+02   -1.6344689941e+02
    1.0569789886e+02   -1.6354476929e+02
    1.0579730225e+02   -1.6364172363e+02
    1.0589839935e+02   -1.6373776245e+02
    1.0599859619e+02   -1.6383288574e+02
    1.0609870148e+02   -1.6392710876e+02
    1.0619850159e+02   -1.6402040100e+02
    1.0629759979e+02   -1.6411277771e+02
    1.0639839935e+02   -1.6420423889e+02
    1.0649729919e+02   -1.6429478455e+02
    1.0659790039e+02   -1.6438442993e+02
    1.0669850159e+02   -1.6447315979e+02
    1.0679730225e+02   -1.6456100464e+02
    1.0689769745e+02   -1.6464793396e+02
    1.0699800110e+02   -1.6473393250e+02
    1.0709829712e+02   -1.6481903076e+02
    1.0719850159e+02   -1.6490319824e+02
    1.0729859924e+02   -1.6498641968e+02
    1.0739869690e+02   -1.6506867981e+02
    1.0749880219e+02   -1.6514997864e+02
    1.0759809875e+02   -1.6523033142e+02
    1.0769879913e+02   -1.6530972290e+02
    1.0779799652e+02   -1.6538815308e+02
    1.0789839935e+02   -1.6546560669e+02
    1.0799859619e+02   -1.6554208374e+02
    1.0809860229e+02   -1.6561761475e+02
    1.0819779968e+02   -1.6569218445e+02
    1.0829850006e+02   -1.6576579285e+02
    1.0839749908e+02   -1.6583843994e+02
    1.0849819946e+02   -1.6591011047e+02
    1.0859880066e+02   -1.6598078918e+02
    1.0869750214e+02   -1.6605049133e+02
    1.0879869843e+02   -1.6611920166e+02
    1.0889779663e+02   -1.6618690491e+02
    1.0899839783e+02   -1.6625361633e+02
    1.0909880066e+02   -1.6631932068e+02
    1.0919799805e+02   -1.6638400269e+02
    1.0929759979e+02   -1.6644766235e+02
    1.0939869690e+02   -1.6651029968e+02
    1.0949790192e+02   -1.6657189941e+02
    1.0959870148e+02   -1.6663246155e+02
    1.0969770050e+02   -1.6669198608e+02
    1.0979830170e+02   -1.6675047302e+02
    1.0989849854e+02   -1.6680790710e+02
    1.0999819946e+02   -1.6686431885e+02
    1.1009860229e+02   -1.6691969299e+02
    1.1019879913e+02   -1.6697404480e+02
    1.1029730225e+02   -1.6702737427e+02
    1.1039739990e+02   -1.6707968140e+02
    1.1049739838e+02   -1.6713098145e+02
    1.1059790039e+02   -1.6718125916e+02
    1.1069809723e+02   -1.6723052979e+02
    1.1079730225e+02   -1.6727877808e+02
    1.1089869690e+02   -1.6732600403e+02
    1.1099849701e+02   -1.6737219238e+02
    1.1109819794e+02   -1.6741735840e+02
    1.1119779968e+02   -1.6746150208e+02
    1.1129740143e+02   -1.6750459290e+02
    1.1139849854e+02   -1.6754664612e+02
    1.1149800110e+02   -1.6758764648e+02
    1.1159739685e+02   -1.6762757874e+02
    1.1169850159e+02   -1.6766644287e+02
    1.1179799652e+02   -1.6770425415e+02
    1.1189739990e+02   -1.6774099731e+02
    1.1199839783e+02   -1.6777665710e+02
    1.1209780121e+02   -1.6781126404e+02
    1.1219879913e+02   -1.6784480286e+02
    1.1229740143e+02   -1.6787727356e+02
    1.1239869690e+02   -1.6790864563e+02
    1.1249839783e+02   -1.6793894958e+02
    1.1259809875e+02   -1.6796817017e+02
    1.1269760132e+02   -1.6799630737e+02
    1.1279720306e+02   -1.6802337646e+02
    1.1289769745e+02   -1.6804934692e+02
    1.1299819946e+02   -1.6807424927e+02
    1.1309860229e+02   -1.6809808350e+02
    1.1319750214e+02   -1.6812081909e+02
    1.1329799652e+02   -1.6814248657e+02
    1.1339869690e+02   -1.6816307068e+02
    1.1349770355e+02   -1.6818257141e+02
    1.1359860229e+02   -1.6820097351e+02
    1.1369789886e+02   -1.6821829224e+02
    1.1379850006e+02   -1.6823449707e+02
    1.1389739990e+02   -1.6824960327e+02
    1.1399790192e+02   -1.6826359558e+02
    1.1409819794e+02   -1.6827644348e+02
    1.1419860077e+02   -1.6828819275e+02
    1.1429779816e+02   -1.6829881287e+02
    1.1439790344e+02   -1.6830831909e+02
    1.1449790192e+02   -1.6831672668e+02
    1.1459790039e+02   -1.6832402039e+02
    1.1469850159e+02   -1.6833021545e+02
    1.1479879761e+02   -1.6833529663e+02
    1.1489730072e+02   -1.6833926392e+02
    1.1499780273e+02   -1.6834210205e+02
    1.1509739685e+02   -1.6834382629e+02
    1.1519860077e+02   -1.6834443665e+02
    1.1529810333e+02   -1.6834390259e+02
    1.1539769745e+02   -1.6834222412e+02
    1.1549720001e+02   -1.6833943176e+02
    1.1559829712e+02   -1.6833549500e+02
    1.1569789886e+02   -1.6833041382e+02
    1.1579769897e+02   -1.6832421875e+02
    1.1589869690e+02   -1.6831687927e+02
    1.1599729919e+02   -1.6830841064e+02
    1.1609739685e+02   -1.6829879761e+02
    1.1619740295e+02   -1.6828804016e+02
    1.1629730225e+02   -1.6827613831e+02
    1.1639830017e+02   -1.6826307678e+02
    1.1649770355e+02   -1.6824888611e+02
    1.1659719849e+02   -1.6823353577e+02
    1.1669840240e+02   -1.6821705627e+02
    1.1679799652e+02   -1.6819943237e+02
    1.1689759827e+02   -1.6818069458e+02
    1.1699720001e+02   -1.6816084290e+02
    1.1709839630e+02   -1.6813989258e+02
    1.1719799805e+02   -1.6811785889e+02
    1.1729779816e+02   -1.6809474182e+02
    1.1739759827e+02   -1.6807057190e+02
    1.1749729919e+02   -1.6804533386e+02
    1.1759819794e+02   -1.6801907349e+02
    1.1769799805e+02   -1.6799176025e+02
    1.1779769897e+02   -1.6796340942e+02
    1.1789749908e+02   -1.6793403625e+02
    1.1799870300e+02   -1.6790362549e+02
    1.1809829712e+02   -1.6787217712e+02
    1.1819869995e+02   -1.6783967590e+02
    1.1829740143e+02   -1.6780613708e+02
    1.1839839935e+02   -1.6777151489e+02
    1.1849770355e+02   -1.6773580933e+02
    1.1859829712e+02   -1.6769903564e+02
    1.1869730377e+02   -1.6766117859e+02
    1.1879789734e+02   -1.6762223816e+02
    1.1889849854e+02   -1.6758221436e+02
    1.1899739838e+02   -1.6754112244e+02
    1.1909850311e+02   -1.6749894714e+02
    1.1919779968e+02   -1.6745570374e+02
    1.1929850006e+02   -1.6741139221e+02
    1.1939769745e+02   -1.6736601257e+02
    1.1949819946e+02   -1.6731958008e+02
    1.1959850311e+02   -1.6727210999e+02
    1.1969730377e+02   -1.6722357178e+02
    1.1979730225e+02   -1.6717399597e+02
    1.1989720154e+02   -1.6712335205e+02
    1.1999859619e+02   -1.6707165527e+02
    1.2009850311e+02   -1.6701893616e+02
    1.2019840240e+02   -1.6696517944e+02
    1.2029769897e+02   -1.6691040039e+02
    1.2039769745e+02   -1.6685461426e+02
    1.2049759674e+02   -1.6679782104e+02
    1.2059739685e+02   -1.6674003601e+02
    1.2069869995e+02   -1.6668127441e+02
    1.2079850006e+02   -1.6662152100e+02
    1.2089830017e+02   -1.6656079102e+02
    1.2099759674e+02   -1.6649909973e+02
    1.2109860229e+02   -1.6643643188e+02
    1.2119799805e+02   -1.6637280273e+02
    1.2129730225e+02   -1.6630821228e+02
    1.2139820099e+02   -1.6624266052e+02
    1.2149839783e+02   -1.6617614746e+02
    1.2159790039e+02   -1.6610868835e+02
    1.2169740295e+02   -1.6604026794e+02
    1.2179830170e+02   -1.6597090149e+02
    1.2189820099e+02   -1.6590055847e+02
    1.2199739838e+02   -1.6582926941e+02
    1.2209829712e+02   -1.6575703430e+02
    1.2219760132e+02   -1.6568382263e+02
    1.2229859924e+02   -1.6560966492e+02
    1.2239800262e+02   -1.6553456116e+02
    1.2249739838e+02   -1.6545852661e+02
    1.2259850311e+02   -1.6538154602e+02
    1.2269819641e+02   -1.6530364990e+02
    1.2279789734e+02   -1.6522482300e+02
    1.2289759827e+02   -1.6514511108e+02
    1.2299720001e+02   -1.6506449890e+02
    1.2309839630e+02   -1.6498301697e+02
    1.2319809723e+02   -1.6490065002e+02
    1.2329779816e+02   -1.6481742859e+02
    1.2339749908e+02   -1.6473336792e+02
    1.2349720001e+02   -1.6464846802e+02
    1.2359860229e+02   -1.6456274414e+02
    1.2369840240e+02   -1.6447619629e+02
    1.2379779816e+02   -1.6438883972e+02
    1.2389790344e+02   -1.6430065918e+02
    1.2399790192e+02   -1.6421165466e+02
    1.2409799957e+02   -1.6412182617e+02
    1.2419819641e+02   -1.6403118896e+02
    1.2429840088e+02   -1.6393972778e+02
    1.2439859772e+02   -1.6384744263e+02
    1.2449720001e+02   -1.6375434875e+02
    1.2459829712e+02   -1.6366043091e+02
    1.2469819641e+02   -1.6356570435e+02
    1.2479769897e+02   -1.6347016907e+02
    1.2489790344e+02   -1.6337384033e+02
    1.2499819946e+02   -1.6327673340e+02
    1.2509839630e+02   -1.6317884827e+02
    1.2519719696e+02   -1.6308020020e+02
    1.2529750061e+02   -1.6298075867e+02
    1.2539779663e+02   -1.6288055420e+02
    1.2549819946e+02   -1.6277958679e+02
    1.2559709930e+02   -1.6267784119e+02
    1.2569760132e+02   -1.6257533264e+02
    1.2579810333e+02   -1.6247206116e+02
    1.2589859772e+02   -1.6236804199e+02
    1.2599749756e+02   -1.6226329041e+02
    1.2609799957e+02   -1.6215779114e+02
    1.2619779968e+02   -1.6205155945e+02
    1.2629850006e+02   -1.6194462585e+02
    1.2639759827e+02   -1.6183700562e+02
    1.2649810028e+02   -1.6172866821e+02
    1.2659729767e+02   -1.6161965942e+02
    1.2669799805e+02   -1.6150996399e+02
    1.2679730225e+02   -1.6139961243e+02
    1.2689810181e+02   -1.6128857422e+02
    1.2699810028e+02   -1.6117687988e+02
    1.2709860229e+02   -1.6106454468e+02
    1.2719770050e+02   -1.6095155334e+02
    1.2729720306e+02   -1.6083792114e+02
    1.2739820099e+02   -1.6072366333e+02
    1.2749780273e+02   -1.6060879517e+02
    1.2759729767e+02   -1.6049330139e+02
    1.2769840240e+02   -1.6037719727e+02
    1.2779730225e+02   -1.6026048279e+02
    1.2789839935e+02   -1.6014315796e+02
    1.2799759674e+02   -1.6002525330e+02
    1.2809750366e+02   -1.5990676880e+02
    1.2819749451e+02   -1.5978771973e+02
    1.2829750061e+02   -1.5966813660e+02
    1.2839750671e+02   -1.5954801941e+02
    1.2849839783e+02   -1.5942736816e+02
    1.2859800720e+02   -1.5930622864e+02
    1.2869760132e+02   -1.5918457031e+02
    1.2879719543e+02   -1.5906242371e+02
    1.2889779663e+02   -1.5893978882e+02
    1.2899769592e+02   -1.5881666565e+02
    1.2909770203e+02   -1.5869305420e+02
    1.2919760132e+02   -1.5856896973e+02
    1.2929760742e+02   -1.5844442749e+02
    1.2939750671e+02   -1.5831941223e+02
    1.2949740601e+02   -1.5819393921e+02
    1.2959759521e+02   -1.5806802368e+02
    1.2969859314e+02   -1.5794165039e+02
    1.2979820251e+02   -1.5781484985e+02
    1.2989799500e+02   -1.5768760681e+02
    1.2999780273e+02   -1.5755992126e+02
    1.3009710693e+02   -1.5743180847e+02
    1.3019769287e+02   -1.5730325317e+02
    1.3029750061e+02   -1.5717427063e+02
    1.3039860535e+02   -1.5704487610e+02
    1.3049809265e+02   -1.5691506958e+02
    1.3059770203e+02   -1.5678483582e+02
    1.3069729614e+02   -1.5665422058e+02
    1.3079730225e+02   -1.5652320862e+02
    1.3089830017e+02   -1.5639181519e+02
    1.3099850464e+02   -1.5626004028e+02
    1.3109829712e+02   -1.5612791443e+02
    1.3119790649e+02   -1.5599545288e+02
    1.3129809570e+02   -1.5586267090e+02
    1.3139810181e+02   -1.5572955322e+02
    1.3149789429e+02   -1.5559616089e+02
    1.3159829712e+02   -1.5546246338e+02
    1.3169779968e+02   -1.5532849121e+02
    1.3179739380e+02   -1.5519425964e+02
    1.3189720154e+02   -1.5505981445e+02
    1.3199879456e+02   -1.5492510986e+02
    1.3209779358e+02   -1.5479020691e+02
    1.3219839478e+02   -1.5465509033e+02
    1.3229750061e+02   -1.5451977539e+02
    1.3239799500e+02   -1.5438426208e+02
    1.3249850464e+02   -1.5424855042e+02
    1.3259759521e+02   -1.5411267090e+02
    1.3269819641e+02   -1.5397662354e+02
    1.3279870605e+02   -1.5384037781e+02
    1.3289750671e+02   -1.5370396423e+02
    1.3299819946e+02   -1.5356738281e+02
    1.3309869385e+02   -1.5343060303e+02
    1.3319850159e+02   -1.5329367065e+02
    1.3329829407e+02   -1.5315660095e+02
    1.3339779663e+02   -1.5301936340e+02
    1.3349740601e+02   -1.5288198853e+02
    1.3359779358e+02   -1.5274449158e+02
    1.3369799805e+02   -1.5260688782e+02
    1.3379849243e+02   -1.5246919250e+02
    1.3389819336e+02   -1.5233142090e+02
    1.3399749756e+02   -1.5219357300e+02
    1.3409790039e+02   -1.5205564880e+02
    1.3419850159e+02   -1.5191766357e+02
    1.3429760742e+02   -1.5177963257e+02
    1.3439830017e+02   -1.5164152527e+02
    1.3449749756e+02   -1.5150335693e+02
    1.3459809875e+02   -1.5136514282e+02
    1.3469790649e+02   -1.5122686768e+02
    1.3479879761e+02   -1.5108854675e+02
    1.3489819336e+02   -1.5095016479e+02
    1.3499870300e+02   -1.5081178284e+02
    1.3509790039e+02   -1.5067333984e+02
    1.3519760132e+02   -1.5053488159e+02
    1.3529760742e+02   -1.5039639282e+02
    1.3539779663e+02   -1.5025787354e+02
    1.3549740601e+02   -1.5011932373e+02
    1.3559890747e+02   -1.4998075867e+02
    1.3569760132e+02   -1.4984219360e+02
    1.3579789734e+02   -1.4970361328e+02
    1.3589810181e+02   -1.4956506348e+02
    1.3599870300e+02   -1.4942652893e+02
    1.3609860229e+02   -1.4928802490e+02
    1.3619889832e+02   -1.4914955139e+02
    1.3629809570e+02   -1.4901116943e+02
    1.3639750671e+02   -1.4887284851e+02
    1.3649800110e+02   -1.4873461914e+02
    1.3659809875e+02   -1.4859648132e+02
    1.3669779968e+02   -1.4845845032e+02
    1.3679760742e+02   -1.4832054138e+02
    1.3689759827e+02   -1.4818275452e+02
    1.3699850464e+02   -1.4804508972e+02
    1.3709899902e+02   -1.4790756226e+02
    1.3719790649e+02   -1.4777020264e+02
    1.3729859924e+02   -1.4763299561e+02
    1.3739869690e+02   -1.4749597168e+02
    1.3749839783e+02   -1.4735911560e+02
    1.3759770203e+02   -1.4722245789e+02
    1.3769869995e+02   -1.4708599854e+02
    1.3779809570e+02   -1.4694975281e+02
    1.3789849854e+02   -1.4681373596e+02
    1.3799899292e+02   -1.4667794800e+02
    1.3809779358e+02   -1.4654240417e+02
    1.3819850159e+02   -1.4640713501e+02
    1.3829829407e+02   -1.4627210999e+02
    1.3839840698e+02   -1.4613735962e+02
    1.3849819946e+02   -1.4600285339e+02
    1.3859800720e+02   -1.4586860657e+02
    1.3869779968e+02   -1.4573463440e+02
    1.3879820251e+02   -1.4560090637e+02
    1.3889869690e+02   -1.4546746826e+02
    1.3899780273e+02   -1.4533428955e+02
    1.3909800720e+02   -1.4520138550e+02
    1.3919819641e+02   -1.4506877136e+02
    1.3929849243e+02   -1.4493643188e+02
    1.3939900208e+02   -1.4480436707e+02
    1.3949920654e+02   -1.4467257690e+02
    1.3959880066e+02   -1.4454106140e+02
    1.3969799805e+02   -1.4440985107e+02
    1.3979890442e+02   -1.4427893066e+02
    1.3989849854e+02   -1.4414831543e+02
    1.3999899292e+02   -1.4401799011e+02
    1.4009790039e+02   -1.4388798523e+02
    1.4019830322e+02   -1.4375830078e+02
    1.4029859924e+02   -1.4362892151e+02
    1.4039860535e+02   -1.4349986267e+02
    1.4049859619e+02   -1.4337112427e+02
    1.4059899902e+02   -1.4324267578e+02
    1.4069880676e+02   -1.4311453247e+02
    1.4079879761e+02   -1.4298666382e+02
    1.4089909363e+02   -1.4285910034e+02
    1.4099940491e+02   -1.4273179626e+02
    1.4109919739e+02   -1.4260478210e+02
    1.4119869995e+02   -1.4247799683e+02
    1.4129789734e+02   -1.4235145569e+02
    1.4139909363e+02   -1.4222512817e+02
    1.4149929810e+02   -1.4209901428e+02
    1.4159820557e+02   -1.4197311401e+02
    1.4169790649e+02   -1.4184741211e+02
    1.4179780579e+02   -1.4172192383e+02
    1.4189819336e+02   -1.4159663391e+02
    1.4199879456e+02   -1.4147155762e+02
    1.4209820557e+02   -1.4134667969e+02
    1.4219920349e+02   -1.4122198486e+02
    1.4229890442e+02   -1.4109748840e+02
    1.4239860535e+02   -1.4097319031e+02
    1.4249879456e+02   -1.4084907532e+02
    1.4259939575e+02   -1.4072517395e+02
    1.4269869995e+02   -1.4060147095e+02
    1.4279820251e+02   -1.4047796631e+02
    1.4289950562e+02   -1.4035467529e+02
    1.4299929810e+02   -1.4023156738e+02
    1.4309800720e+02   -1.4010865784e+02
    1.4319819641e+02   -1.3998593140e+02
    1.4329789734e+02   -1.3986337280e+02
    1.4339790344e+02   -1.3974099731e+02
    1.4349929810e+02   -1.3961880493e+02
    1.4359939575e+02   -1.3949679565e+02
    1.4369830322e+02   -1.3937496948e+02
    1.4379939270e+02   -1.3925335693e+02
    1.4389799500e+02   -1.3913197327e+02
    1.4399870300e+02   -1.3901078796e+02
    1.4409829712e+02   -1.3888984680e+02
    1.4419819641e+02   -1.3876914978e+02
    1.4429800415e+02   -1.3864871216e+02
    1.4439790344e+02   -1.3852851868e+02
    1.4449839783e+02   -1.3840859985e+02
    1.4459869385e+02   -1.3828895569e+02
    1.4469900513e+02   -1.3816960144e+02
    1.4479849243e+02   -1.3805053711e+02
    1.4489930725e+02   -1.3793174744e+02
    1.4499960327e+02   -1.3781324768e+02
    1.4509790039e+02   -1.3769503784e+02
    1.4519790649e+02   -1.3757711792e+02
    1.4529849243e+02   -1.3745950317e+02
    1.4539880371e+02   -1.3734217834e+02
    1.4549839783e+02   -1.3722517395e+02
    1.4559899902e+02   -1.3710848999e+02
    1.4569949341e+02   -1.3699212646e+02
    1.4579919434e+02   -1.3687608337e+02
    1.4589900208e+02   -1.3676037598e+02
    1.4599940491e+02   -1.3664500427e+02
    1.4609919739e+02   -1.3652998352e+02
    1.4619830322e+02   -1.3641529846e+02
    1.4629910278e+02   -1.3630096436e+02
    1.4639819336e+02   -1.3618696594e+02
    1.4649809265e+02   -1.3607331848e+02
    1.4659840393e+02   -1.3596005249e+02
    1.4669900513e+02   -1.3584713745e+02
    1.4679840088e+02   -1.3573461914e+02
    1.4689889526e+02   -1.3562249756e+02
    1.4699909973e+02   -1.3551075745e+02
    1.4709820557e+02   -1.3539944458e+02
    1.4719940186e+02   -1.3528852844e+02
    1.4729910278e+02   -1.3517802429e+02
    1.4739810181e+02   -1.3506794739e+02
    1.4749949646e+02   -1.3495826721e+02
    1.4759919739e+02   -1.3484898376e+02
    1.4769810486e+02   -1.3474012756e+02
    1.4779879761e+02   -1.3463168335e+02
    1.4789959717e+02   -1.3452363586e+02
    1.4799830627e+02   -1.3441601562e+02
    1.4809869385e+02   -1.3430879211e+02
    1.4819869995e+02   -1.3420196533e+02
    1.4829890442e+02   -1.3409553528e+02
    1.4839939880e+02   -1.3398950195e+02
    1.4849890137e+02   -1.3388383484e+02
    1.4859849548e+02   -1.3377854919e+02
    1.4869960022e+02   -1.3367364502e+02
    1.4879890442e+02   -1.3356910706e+02
    1.4889869690e+02   -1.3346492004e+02
    1.4899940491e+02   -1.3336108398e+02
    1.4909970093e+02   -1.3325761414e+02
    1.4919819641e+02   -1.3315449524e+02
    1.4929829407e+02   -1.3305172729e+02
    1.4939930725e+02   -1.3294932556e+02
    1.4949960327e+02   -1.3284730530e+02
    1.4959899902e+02   -1.3274566650e+02
    1.4969880676e+02   -1.3264439392e+02
    1.4979969788e+02   -1.3254353333e+02
    1.4989819336e+02   -1.3244306946e+02
    1.4999819946e+02   -1.3234298706e+02
    1.5009869385e+02   -1.3224333191e+02
    1.5019839478e+02   -1.3214407349e+02
    1.5029879761e+02   -1.3204524231e+02
    1.5039959717e+02   -1.3194682312e+02
    1.5049920654e+02   -1.3184883118e+02
    1.5059979248e+02   -1.3175126648e+02
    1.5069889832e+02   -1.3165414429e+02
    1.5079960632e+02   -1.3155746460e+02
    1.5089849854e+02   -1.3146122742e+02
    1.5099929810e+02   -1.3136541748e+02
    1.5109890747e+02   -1.3127005005e+02
    1.5119850159e+02   -1.3117515564e+02
    1.5129930115e+02   -1.3108068848e+02
    1.5139999390e+02   -1.3098670959e+02
    1.5149890137e+02   -1.3089318848e+02
    1.5159950256e+02   -1.3080017090e+02
    1.5169830322e+02   -1.3070764160e+02
    1.5180000305e+02   -1.3061561584e+02
    1.5189849854e+02   -1.3052407837e+02
    1.5199870300e+02   -1.3043304443e+02
    1.5209860229e+02   -1.3034251404e+02
    1.5219850159e+02   -1.3025247192e+02
    1.5229859924e+02   -1.3016291809e+02
    1.5239869690e+02   -1.3007386780e+02
    1.5250000000e+02   -1.2998530579e+02
    1.5259840393e+02   -1.2989723206e+02
    1.5269970703e+02   -1.2980964661e+02
    1.5279890442e+02   -1.2972256470e+02
    1.5289950562e+02   -1.2963597107e+02
    1.5300000000e+02   -1.2954986572e+02
    1.5310000610e+02   -1.2946423340e+02
    1.5319929504e+02   -1.2937907410e+02
    1.5329890442e+02   -1.2929435730e+02
    1.5339849854e+02   -1.2921009827e+02
    1.5350010681e+02   -1.2912628174e+02
    1.5359910583e+02   -1.2904289246e+02
    1.5369920349e+02   -1.2895994568e+02
    1.5379939270e+02   -1.2887744141e+02
    1.5389939880e+02   -1.2879536438e+02
    1.5400010681e+02   -1.2871372986e+02
    1.5409860229e+02   -1.2863253784e+02
    1.5419889832e+02   -1.2855175781e+02
    1.5430020142e+02   -1.2847142029e+02
    1.5439849854e+02   -1.2839149475e+02
    1.5449879456e+02   -1.2831198120e+02
    1.5460009766e+02   -1.2823291016e+02
    1.5469850159e+02   -1.2815425110e+02
    1.5479899597e+02   -1.2807601929e+02
    1.5489930725e+02   -1.2799819946e+02
    1.5499879456e+02   -1.2792079926e+02
    1.5509890747e+02   -1.2784382629e+02
    1.5519990540e+02   -1.2776727295e+02
    1.5529989624e+02   -1.2769114685e+02
    1.5539860535e+02   -1.2761544800e+02
    1.5549899292e+02   -1.2754015350e+02
    1.5559890747e+02   -1.2746528625e+02
    1.5570030212e+02   -1.2739082336e+02
    1.5579969788e+02   -1.2731677246e+02
    1.5589909363e+02   -1.2724311829e+02
    1.5599859619e+02   -1.2716986084e+02
    1.5610020447e+02   -1.2709699249e+02
    1.5619859314e+02   -1.2702449799e+02
    1.5629910278e+02   -1.2695237732e+02
    1.5639990234e+02   -1.2688060760e+02
    1.5649980164e+02   -1.2680919647e+02
    1.5659849548e+02   -1.2673812866e+02
    1.5669880676e+02   -1.2666739655e+02
    1.5679859924e+02   -1.2659700012e+02
    1.5689869690e+02   -1.2652692413e+02
    1.5699899292e+02   -1.2645718384e+02
    1.5709930420e+02   -1.2638777924e+02
    1.5719999695e+02   -1.2631871796e+02
    1.5729899597e+02   -1.2625000000e+02
    1.5739979553e+02   -1.2618162537e+02
    1.5750030518e+02   -1.2611358643e+02
    1.5759890747e+02   -1.2604587555e+02
    1.5769940186e+02   -1.2597848511e+02
    1.5779939270e+02   -1.2591139221e+02
    1.5790010071e+02   -1.2584459686e+02
    1.5799909973e+02   -1.2577809143e+02
    1.5809899902e+02   -1.2571187592e+02
    1.5819949341e+02   -1.2564593506e+02
    1.5829939270e+02   -1.2558024597e+02
    1.5840010071e+02   -1.2551480865e+02
    1.5849899292e+02   -1.2544960022e+02
    1.5859869385e+02   -1.2538462830e+02
    1.5869960022e+02   -1.2531987000e+02
    1.5879910278e+02   -1.2525531769e+02
    1.5889959717e+02   -1.2519096375e+02
    1.5899879456e+02   -1.2512677765e+02
    1.5909880066e+02   -1.2506274414e+02
    1.5919990540e+02   -1.2499885559e+02
    1.5929919434e+02   -1.2493508148e+02
    1.5939880371e+02   -1.2487142944e+02
    1.5950030518e+02   -1.2480790710e+02
    1.5959979248e+02   -1.2474449158e+02
    1.5969999695e+02   -1.2468118286e+02
    1.5979870605e+02   -1.2461798859e+02
    1.5990029907e+02   -1.2455490112e+02
    1.6000019836e+02   -1.2449192047e+02
    1.6009930420e+02   -1.2442904663e+02
    1.6019970703e+02   -1.2436627197e+02
    1.6029969788e+02   -1.2430358124e+02
    1.6039979553e+02   -1.2424097443e+02
    1.6050039673e+02   -1.2417842865e+02
    1.6059989929e+02   -1.2411592865e+02
    1.6069940186e+02   -1.2405345917e+02
    1.6080039978e+02   -1.2399099731e+02
    1.6089939880e+02   -1.2392852783e+02
    1.6099899292e+02   -1.2386602783e+02
    1.6109910583e+02   -1.2380349731e+02
    1.6119889832e+02   -1.2374094391e+02
    1.6130009460e+02   -1.2367835999e+02
    1.6139990234e+02   -1.2361574554e+02
    1.6149879456e+02   -1.2355310822e+02
    1.6159930420e+02   -1.2349044800e+02
    1.6170050049e+02   -1.2342775726e+02
    1.6179899597e+02   -1.2336503601e+02
    1.6190029907e+02   -1.2330227661e+02
    1.6199960327e+02   -1.2323947144e+02
    1.6210000610e+02   -1.2317662048e+02
    1.6219949341e+02   -1.2311369324e+02
    1.6229939270e+02   -1.2305068970e+02
    1.6240010071e+02   -1.2298758698e+02
    1.6249969482e+02   -1.2292438507e+02
    1.6259950256e+02   -1.2286108398e+02
    1.6270019531e+02   -1.2279766846e+02
    1.6279899597e+02   -1.2273411560e+02
    1.6289939880e+02   -1.2267041016e+02
    1.6299949646e+02   -1.2260654449e+02
    1.6309970093e+02   -1.2254249573e+02
    1.6319999695e+02   -1.2247827148e+02
    1.6330000305e+02   -1.2241385651e+02
    1.6339979553e+02   -1.2234925079e+02
    1.6349960327e+02   -1.2228444672e+02
    1.6359970093e+02   -1.2221941376e+02
    1.6370010376e+02   -1.2215415192e+02
    1.6380020142e+02   -1.2208866119e+02
    1.6390049744e+02   -1.2202291870e+02
    1.6399890137e+02   -1.2195691681e+02
    1.6409970093e+02   -1.2189064789e+02
    1.6419900513e+02   -1.2182410431e+02
    1.6429989624e+02   -1.2175727081e+02
    1.6440020752e+02   -1.2169014740e+02
    1.6450000000e+02   -1.2162272644e+02
    1.6460049438e+02   -1.2155499268e+02
    1.6469929504e+02   -1.2148694611e+02
    1.6480000305e+02   -1.2141857910e+02
    1.6490020752e+02   -1.2134988403e+02
    1.6500070190e+02   -1.2128085327e+02
    1.6509970093e+02   -1.2121146393e+02
    1.6519979858e+02   -1.2114172363e+02
    1.6530029297e+02   -1.2107159424e+02
    1.6540020752e+02   -1.2100108337e+02
    1.6549940491e+02   -1.2093017578e+02
    1.6559989929e+02   -1.2085886383e+02
    1.6570039368e+02   -1.2078712463e+02
    1.6580070496e+02   -1.2071494293e+02
    1.6589979553e+02   -1.2064231873e+02
    1.6600079346e+02   -1.2056922150e+02
    1.6609970093e+02   -1.2049566650e+02
    1.6620010376e+02   -1.2042163086e+02
    1.6629989624e+02   -1.2034711456e+02
    1.6639920044e+02   -1.2027210999e+02
    1.6650079346e+02   -1.2019660187e+02
    1.6660029602e+02   -1.2012058258e+02
    1.6669999695e+02   -1.2004405975e+02
    1.6679969788e+02   -1.1996701813e+02
    1.6690020752e+02   -1.1988945007e+02
    1.6699929810e+02   -1.1981135559e+02
    1.6710040283e+02   -1.1973272705e+02
    1.6719949341e+02   -1.1965355682e+02
    1.6730029297e+02   -1.1957383728e+02
    1.6740089417e+02   -1.1949355316e+02
    1.6749949646e+02   -1.1941269684e+02
    1.6759979248e+02   -1.1933126831e+02
    1.6770010376e+02   -1.1924925995e+02
    1.6780039978e+02   -1.1916668701e+02
    1.6790049744e+02   -1.1908351898e+02
    1.6800039673e+02   -1.1899976349e+02
    1.6810009766e+02   -1.1891542816e+02
    1.6819990540e+02   -1.1883049774e+02
    1.6829969788e+02   -1.1874496460e+02
    1.6839930725e+02   -1.1865882111e+02
    1.6849960327e+02   -1.1857205963e+02
    1.6859979248e+02   -1.1848465729e+02
    1.6870019531e+02   -1.1839659882e+02
    1.6879989624e+02   -1.1830786896e+02
    1.6889990234e+02   -1.1821846008e+02
    1.6900030518e+02   -1.1812834930e+02
    1.6909989929e+02   -1.1803752136e+02
    1.6919940186e+02   -1.1794594574e+02
    1.6930059814e+02   -1.1785362244e+02
    1.6940100098e+02   -1.1776053619e+02
    1.6950100708e+02   -1.1766668701e+02
    1.6960110474e+02   -1.1757206726e+02
    1.6969970703e+02   -1.1747666931e+02
    1.6979960632e+02   -1.1738047791e+02
    1.6990020752e+02   -1.1728349304e+02
    1.7000010681e+02   -1.1718571472e+02
    1.7009989929e+02   -1.1708713531e+02
    1.7020100403e+02   -1.1698774719e+02
    1.7029969788e+02   -1.1688755035e+02
    1.7040069580e+02   -1.1678653717e+02
    1.7050109863e+02   -1.1668468475e+02
    1.7060000610e+02   -1.1658199310e+02
    1.7070069885e+02   -1.1647844696e+02
    1.7080110168e+02   -1.1637404633e+02
    1.7089970398e+02   -1.1626877594e+02
    1.7100019836e+02   -1.1616263580e+02
    1.7110000610e+02   -1.1605562592e+02
    1.7120109558e+02   -1.1594772339e+02
    1.7129960632e+02   -1.1583892822e+02
    1.7139959717e+02   -1.1572924805e+02
    1.7150070190e+02   -1.1561868286e+02
    1.7160069275e+02   -1.1550722504e+02
    1.7170089722e+02   -1.1539487457e+02
    1.7180050659e+02   -1.1528163147e+02
    1.7190089417e+02   -1.1516748047e+02
    1.7200120544e+02   -1.1505242920e+02
    1.7209970093e+02   -1.1493647766e+02
    1.7219990540e+02   -1.1481960297e+02
    1.7230029297e+02   -1.1470182037e+02
    1.7239970398e+02   -1.1458312988e+02
    1.7250019836e+02   -1.1446350861e+02
    1.7260079956e+02   -1.1434297180e+02
    1.7269970703e+02   -1.1422151947e+02
    1.7280050659e+02   -1.1409915161e+02
    1.7290109253e+02   -1.1397586060e+02
    1.7300100708e+02   -1.1385166931e+02
    1.7309970093e+02   -1.1372656250e+02
    1.7320010376e+02   -1.1360055542e+02
    1.7330079651e+02   -1.1347364044e+02
    1.7340130615e+02   -1.1334580994e+02
    1.7350050354e+02   -1.1321706390e+02
    1.7360119629e+02   -1.1308737946e+02
    1.7370129395e+02   -1.1295674896e+02
    1.7380110168e+02   -1.1282518005e+02
    1.7390089417e+02   -1.1269264221e+02
    1.7400129700e+02   -1.1255912781e+02
    1.7409970093e+02   -1.1242464447e+02
    1.7419990540e+02   -1.1228916931e+02
    1.7429980469e+02   -1.1215268707e+02
    1.7440109253e+02   -1.1201519012e+02
    1.7449949646e+02   -1.1187667847e+02
    1.7460099792e+02   -1.1173715973e+02
    1.7469970703e+02   -1.1159663391e+02
    1.7479989624e+02   -1.1145510864e+02
    1.7489990234e+02   -1.1131259918e+02
    1.7499989319e+02   -1.1116911316e+02
    1.7510110474e+02   -1.1102465820e+02
    1.7520060730e+02   -1.1087925720e+02
    1.7529989624e+02   -1.1073291779e+02
    1.7540100098e+02   -1.1058564758e+02
    1.7550030518e+02   -1.1043746185e+02
    1.7560069275e+02   -1.1028836823e+02
    1.7569990540e+02   -1.1013837433e+02
    1.7580079651e+02   -1.0998748016e+02
    1.7590130615e+02   -1.0983567047e+02
    1.7600100708e+02   -1.0968292999e+02
    1.7610060120e+02   -1.0952921295e+02
    1.7619979858e+02   -1.0937446594e+02
    1.7630000305e+02   -1.0921864319e+02
    1.7640080261e+02   -1.0906165314e+02
    1.7650129700e+02   -1.0890341187e+02
    1.7660150146e+02   -1.0874380493e+02
    1.7670089722e+02   -1.0858269501e+02
    1.7680009460e+02   -1.0841992188e+02
    1.7690010071e+02   -1.0825531006e+02
    1.7700019836e+02   -1.0808866119e+02
    1.7710150146e+02   -1.0791979980e+02
    1.7720100403e+02   -1.0774852753e+02
    1.7730110168e+02   -1.0757468414e+02
    1.7740020752e+02   -1.0739813232e+02
    1.7750090027e+02   -1.0721879578e+02
    1.7760130310e+02   -1.0703662109e+02
    1.7770060730e+02   -1.0685166168e+02
    1.7780099487e+02   -1.0666405487e+02
    1.7790049744e+02   -1.0647408295e+02
    1.7799989319e+02   -1.0628215027e+02
    1.7810110474e+02   -1.0608885956e+02
    1.7820030212e+02   -1.0589499664e+02
    1.7830110168e+02   -1.0570155334e+02
    1.7840080261e+02   -1.0550973511e+02
    1.7850039673e+02   -1.0532099915e+02
    1.7860159302e+02   -1.0513699341e+02
    1.7870120239e+02   -1.0495958710e+02
    1.7880020142e+02   -1.0479078674e+02
    1.7890010071e+02   -1.0463272858e+02
    1.7900129700e+02   -1.0448754883e+02
    1.7910060120e+02   -1.0435732269e+02
    1.7920120239e+02   -1.0424392700e+02
    1.7930059814e+02   -1.0414884949e+02
    1.7940029907e+02   -1.0407301331e+02
    1.7950100708e+02   -1.0401657104e+02
    1.7960090637e+02   -1.0397863770e+02
    1.7970019531e+02   -1.0395704651e+02
    1.7980149841e+02   -1.0394808197e+02
    1.7990080261e+02   -1.0394618225e+02
endcurve
