Curveplot
LS-DYNA keyword deck by LS-PrePost
Yrot-displ
phi moment-stiffness
Joint Stiff
300001 #pts=1000
* Minval= -1.344434375000e+004 at time=       0.113049544394
* Maxval=  1.010879199219e+004 at time=       2.319976568222
 1.987499276268e-009 -1.187728811055e-002
 2.725889736155e-009 -2.431293018162e-002
 3.393145542319e-009 -3.961861133575e-002
 3.824492278426e-009 -5.661556124687e-002
 3.810352477984e-009 -7.331329584122e-002
 3.093168832180e-009 -8.664338290691e-002
 1.304827468296e-009 -9.129934012890e-002
-1.815966488294e-009 -8.043718338013e-002
-6.413036324204e-009 -4.502966627479e-002
-1.256566939389e-008  2.356315404177e-002
-2.000313337192e-008  1.296083033085e-001
-2.814513777594e-008  2.779159545898e-001
-3.573937945589e-008  4.652050137520e-001
-4.105294593160e-008  6.818436384201e-001
-4.173613987746e-008  9.048376679420e-001
-3.487312838502e-008  1.097380399704e+000
-1.624541923206e-008  1.191445469856e+000
 1.713669561809e-008  1.096728205681e+000
 6.773434080287e-008  6.891008615494e-001
 1.369121775951e-007 -2.013747990131e-001
 2.236384943899e-007 -1.790147066116e+000
 3.230814513699e-007 -4.369559764862e+000
 4.262725497028e-007 -8.200433731079e+000
 5.206068749430e-007 -1.352665519714e+001
 5.931712507845e-007 -2.075123405457e+001
 6.273306212279e-007 -3.012264251709e+001
 6.050414071979e-007 -4.211051559448e+001
 5.163192327018e-007 -5.699793624878e+001
 3.552986527211e-007 -7.521864318848e+001
 1.247274639127e-007 -9.711584472656e+001
-1.581611996926e-007 -1.227862319946e+002
-4.683559495788e-007 -1.532339782715e+002
-7.507165946663e-007 -1.883257904053e+002
-9.404409411218e-007 -2.287316284180e+002
-9.474917987973e-007 -2.746005859375e+002
-6.588290943910e-007 -3.265895080566e+002
 8.446335186818e-008 -3.846859436035e+002
 1.455203005207e-006 -4.498726196289e+002
 3.634450877144e-006 -5.218703613281e+002
 6.851743819425e-006 -6.012159423828e+002
 1.135539605457e-005 -6.880351562500e+002
 1.749088551151e-005 -7.825220336914e+002
 2.557883999543e-005 -8.851293945313e+002
 3.591984932427e-005 -9.954793090820e+002
 4.885251109954e-005 -1.113301513672e+003
 6.483385368483e-005 -1.239007202148e+003
 8.451589383185e-005 -1.372837158203e+003
 1.081305817934e-004 -1.513232910156e+003
 1.363133633276e-004 -1.660820190430e+003
 1.695209357422e-004 -1.814668579102e+003
 2.084250882035e-004 -1.974680175781e+003
 2.535581879783e-004 -2.139112060547e+003
 3.057196445297e-004 -2.308427246094e+003
 3.657266497612e-004 -2.482622314453e+003
 4.339472798165e-004 -2.660054199219e+003
 5.105609307066e-004 -2.839054931641e+003
 5.981989088468e-004 -3.022284667969e+003
 6.963300984353e-004 -3.206593261719e+003
 8.050322066993e-004 -3.390756103516e+003
 9.258437203243e-004 -3.575724365234e+003
 1.060190144926e-003 -3.761746582031e+003
 1.207190565765e-003 -3.945145751953e+003
 1.369394129142e-003 -4.128265625000e+003
 1.546632032841e-003 -4.309683593750e+003
 1.739615225233e-003 -4.488792480469e+003
 1.948406687006e-003 -4.664643066406e+003
 2.174349501729e-003 -4.836579101563e+003
 2.417296171188e-003 -5.004171386719e+003
 2.680810168386e-003 -5.169125000000e+003
 2.962807193398e-003 -5.329296386719e+003
 3.261300968006e-003 -5.483318847656e+003
 3.583053359762e-003 -5.633576660156e+003
 3.923824988306e-003 -5.778022460938e+003
 4.285596311092e-003 -5.917705566406e+003
 4.670201335102e-003 -6.053182617188e+003
 5.077519454062e-003 -6.184235839844e+003
 5.505645181984e-003 -6.309981445313e+003
 5.957546643913e-003 -6.431811035156e+003
 6.432671099901e-003 -6.549940429688e+003
 6.930704228580e-003 -6.664559082031e+003
 7.452699821442e-003 -6.776198242188e+003
 8.002812042832e-003 -6.885794921875e+003
 8.573411963880e-003 -6.992244140625e+003
 9.170591831207e-003 -7.097394531250e+003
 9.794849902391e-003 -7.201663085938e+003
 1.044383551925e-002 -7.304969238281e+003
 1.111329905689e-002 -7.407031738281e+003
 1.181555632502e-002 -7.510044921875e+003
 1.254393439740e-002 -7.613507812500e+003
 1.329883467406e-002 -7.717813476563e+003
 1.408053748310e-002 -7.823267578125e+003
 1.488416641951e-002 -7.929564941406e+003
 1.572116836905e-002 -8.038512695313e+003
 1.658695377409e-002 -8.149836425781e+003
 1.748093776405e-002 -8.263748046875e+003
 1.840359903872e-002 -8.380550781250e+003
 1.935627125204e-002 -8.500559570313e+003
 2.033209800720e-002 -8.623236328125e+003
 2.134112082422e-002 -8.749859375000e+003
 2.238347008824e-002 -8.880627929688e+003
 2.345623821020e-002 -9.015012695313e+003
 2.456106245518e-002 -9.153166015625e+003
 2.569835074246e-002 -9.294939453125e+003
 2.686781436205e-002 -9.440037109375e+003
 2.807012386620e-002 -9.588280273438e+003
 2.930453233421e-002 -9.739019531250e+003
 3.056311421096e-002 -9.890926757813e+003
 3.186905756593e-002 -1.004626757813e+004
 3.321028873324e-002 -1.020292089844e+004
 3.458752483130e-002 -1.036065234375e+004
 3.600198775530e-002 -1.051879882813e+004
 3.744871169329e-002 -1.067616210938e+004
 3.893060982227e-002 -1.083241210938e+004
 4.045683518052e-002 -1.098807812500e+004
 4.202859103680e-002 -1.114258984375e+004
 4.362338781357e-002 -1.129317187500e+004
 4.527728259563e-002 -1.144255761719e+004
 4.696127399802e-002 -1.158733007813e+004
 4.869437217712e-002 -1.172902441406e+004
 5.047022551298e-002 -1.186650781250e+004
 5.228216573596e-002 -1.199892578125e+004
 5.413547158241e-002 -1.212618750000e+004
 5.605059862137e-002 -1.224920312500e+004
 5.799298360944e-002 -1.236559863281e+004
 5.999435111880e-002 -1.247711425781e+004
 6.203251704574e-002 -1.258222460938e+004
 6.411333382130e-002 -1.268074218750e+004
 6.626158952713e-002 -1.277359765625e+004
 6.843604147434e-002 -1.285908398438e+004
 7.067336887121e-002 -1.293855273438e+004
 7.294718921185e-002 -1.301106542969e+004
 7.526820152998e-002 -1.307680078125e+004
 7.764315605164e-002 -1.313600488281e+004
 8.006918430328e-002 -1.318901855469e+004
 8.255360275507e-002 -1.323623046875e+004
 8.507158607244e-002 -1.327745214844e+004
 8.765095472336e-002 -1.331330371094e+004
 9.026619046926e-002 -1.334369531250e+004
 9.294227510691e-002 -1.336951855469e+004
 9.567103534937e-002 -1.339092773438e+004
 9.844464808702e-002 -1.340820996094e+004
 1.012605428696e-001 -1.342160253906e+004
 1.041371077299e-001 -1.343151171875e+004
 1.070607751608e-001 -1.343836621094e+004
 1.100387424231e-001 -1.344252929688e+004
 1.130495443940e-001 -1.344434375000e+004
 1.161269247532e-001 -1.344414355469e+004
 1.192734465003e-001 -1.344225097656e+004
 1.224365234375e-001 -1.343908300781e+004
 1.256640404463e-001 -1.343488281250e+004
 1.289339363575e-001 -1.342991894531e+004
 1.322770267725e-001 -1.342434179688e+004
 1.356582641602e-001 -1.341838378906e+004
 1.390680223703e-001 -1.341222753906e+004
 1.425630301237e-001 -1.340590332031e+004
 1.460725367069e-001 -1.339965234375e+004
 1.496461480856e-001 -1.339349218750e+004
 1.532855629921e-001 -1.338753417969e+004
 1.569696217775e-001 -1.338189746094e+004
 1.607072949409e-001 -1.337663574219e+004
 1.644728481770e-001 -1.337182128906e+004
 1.683017760515e-001 -1.336741796875e+004
 1.721952706575e-001 -1.336339257813e+004
 1.761147975922e-001 -1.335967089844e+004
 1.800955981016e-001 -1.335608007813e+004
 1.841328293085e-001 -1.335244726563e+004
 1.882078051567e-001 -1.334858300781e+004
 1.923464685678e-001 -1.334421875000e+004
 1.965257674456e-001 -1.333916699219e+004
 2.007692307234e-001 -1.333318457031e+004
 2.050486654043e-001 -1.332611816406e+004
 2.093719393015e-001 -1.331774804688e+004
 2.137923389673e-001 -1.330771679688e+004
 2.182335853577e-001 -1.329605957031e+004
 2.226955592632e-001 -1.328262792969e+004
 2.272596955299e-001 -1.326697949219e+004
 2.318435311317e-001 -1.324916015625e+004
 2.365076541901e-001 -1.322865136719e+004
 2.411873042583e-001 -1.320561425781e+004
 2.459700256586e-001 -1.317943457031e+004
 2.507730722427e-001 -1.315038378906e+004
 2.555979788303e-001 -1.311832714844e+004
 2.605054378510e-001 -1.308268066406e+004
 2.654729783535e-001 -1.304365722656e+004
 2.704917192459e-001 -1.300133496094e+004
 2.755497395992e-001 -1.295580078125e+004
 2.806867659092e-001 -1.290672363281e+004
 2.858407199383e-001 -1.285459179688e+004
 2.910544872284e-001 -1.279924511719e+004
 2.963269352913e-001 -1.274068457031e+004
 3.016597926617e-001 -1.267896386719e+004
 3.070225417614e-001 -1.261445117188e+004
 3.124243915081e-001 -1.254711132813e+004
 3.179067969322e-001 -1.247655468750e+004
 3.234258890152e-001 -1.240351953125e+004
 3.290063440800e-001 -1.232777148438e+004
 3.346412777901e-001 -1.224959179688e+004
 3.403058648109e-001 -1.216942285156e+004
 3.460331261158e-001 -1.208712500000e+004
 3.517931997776e-001 -1.200326074219e+004
 3.576311469078e-001 -1.191733300781e+004
 3.635021448135e-001 -1.183020312500e+004
 3.693898022175e-001 -1.174211816406e+004
 3.753632009029e-001 -1.165224414063e+004
 3.813591897488e-001 -1.156161621094e+004
 3.874290585518e-001 -1.146957031250e+004
 3.935302793980e-001 -1.137683203125e+004
 3.996574878693e-001 -1.128364160156e+004
 4.058454632759e-001 -1.118962304688e+004
 4.121013879776e-001 -1.109484375000e+004
 4.183598458767e-001 -1.100044433594e+004
 4.246795177460e-001 -1.090578710938e+004
 4.310627281666e-001 -1.081110449219e+004
 4.374516606331e-001 -1.071733398438e+004
 4.438997209072e-001 -1.062393554688e+004
 4.503961503506e-001 -1.053112792969e+004
 4.569173455238e-001 -1.043936523438e+004
 4.634984433651e-001 -1.034825195313e+004
 4.700801670551e-001 -1.025855468750e+004
 4.767499864101e-001 -1.016906738281e+004
 4.834053516388e-001 -1.008109082031e+004
 4.901235401630e-001 -9.993626953125e+003
 4.968739748001e-001 -9.907093750000e+003
 5.036919713020e-001 -9.820957031250e+003
 5.105274915695e-001 -9.735809570313e+003
 5.173820257187e-001 -9.651651367188e+003
 5.242727398872e-001 -9.568340820313e+003
 5.312170386314e-001 -9.485776367188e+003
 5.382094383240e-001 -9.403922851563e+003
 5.451841950417e-001 -9.323603515625e+003
 5.522100925446e-001 -9.244009765625e+003
 5.593129992485e-001 -9.164861328125e+003
 5.663917064667e-001 -9.087310546875e+003
 5.735450983047e-001 -9.010160156250e+003
 5.806840062141e-001 -8.934304687500e+003
 5.878908634186e-001 -8.858820312500e+003
 5.950876474380e-001 -8.784474609375e+003
 6.023793816566e-001 -8.710139648438e+003
 6.096597909927e-001 -8.636796875000e+003
 6.169654130936e-001 -8.563967773438e+003
 6.242833733559e-001 -8.491632812500e+003
 6.316983699799e-001 -8.418916015625e+003
 6.390764117241e-001 -8.346992187500e+003
 6.464843153954e-001 -8.275088867188e+003
 6.539344787598e-001 -8.202999023438e+003
 6.614306569099e-001 -8.130611328125e+003
 6.688926219940e-001 -8.058618164063e+003
 6.764661669731e-001 -7.985599609375e+003
 6.839831471443e-001 -7.913153808594e+003
 6.915717720985e-001 -7.840034667969e+003
 6.991723775864e-001 -7.766852539063e+003
 7.068127989769e-001 -7.693392089844e+003
 7.144405841827e-001 -7.620126953125e+003
 7.221018671989e-001 -7.546712402344e+003
 7.297819256783e-001 -7.473211425781e+003
 7.374854683876e-001 -7.399584472656e+003
 7.452002167702e-001 -7.325923339844e+003
 7.529525756836e-001 -7.251844726563e+003
 7.607136368752e-001 -7.177569824219e+003
 7.685214281082e-001 -7.102634277344e+003
 7.763212323189e-001 -7.027468750000e+003
 7.841330170631e-001 -6.951820800781e+003
 7.919690608978e-001 -6.875436035156e+003
 7.997978925705e-001 -6.798610351563e+003
 8.076800704002e-001 -6.720708007813e+003
 8.155258893967e-001 -6.642624023438e+003
 8.234232664108e-001 -6.563548339844e+003
 8.313423991203e-001 -6.483752441406e+003
 8.392626047134e-001 -6.403652832031e+003
 8.471570014954e-001 -6.323558593750e+003
 8.551223874092e-001 -6.242684082031e+003
 8.630859851837e-001 -6.161885253906e+003
 8.710094690323e-001 -6.081653320313e+003
 8.789902329445e-001 -6.001133300781e+003
 8.869354724884e-001 -5.921288085938e+003
 8.949496746063e-001 -5.841207031250e+003
 9.029046893120e-001 -5.762116210938e+003
 9.109039902687e-001 -5.683083007813e+003
 9.189051389694e-001 -5.604474121094e+003
 9.268909096718e-001 -5.526416992188e+003
 9.348938465118e-001 -5.448599609375e+003
 9.429330229759e-001 -5.370823730469e+003
 9.509354233742e-001 -5.293912597656e+003
 9.589208364487e-001 -5.217613769531e+003
 9.669693708420e-001 -5.141316406250e+003
 9.749434590340e-001 -5.066407226563e+003
 9.829869270325e-001 -4.991634277344e+003
 9.909844994545e-001 -4.918188964844e+003
 9.990156888962e-001 -4.845482421875e+003
 1.007001161575e+000 -4.774279296875e+003
 1.015028357506e+000 -4.703870605469e+003
 1.023000717163e+000 -4.635074218750e+003
 1.031002759933e+000 -4.567288085938e+003
 1.039020299911e+000 -4.500546386719e+003
 1.046996355057e+000 -4.435324707031e+003
 1.054980278015e+000 -4.371095214844e+003
 1.062960863113e+000 -4.307897460938e+003
 1.070921540260e+000 -4.245770996094e+003
 1.078886628151e+000 -4.184337402344e+003
 1.086862802505e+000 -4.123399414063e+003
 1.094826579094e+000 -4.062978271484e+003
 1.102763891220e+000 -4.002969726563e+003
 1.110709071159e+000 -3.942988281250e+003
 1.118634104729e+000 -3.883008789063e+003
 1.126547932625e+000 -3.822791259766e+003
 1.134470939636e+000 -3.762064208984e+003
 1.142346858978e+000 -3.701035644531e+003
 1.150268793106e+000 -3.638855957031e+003
 1.158167123795e+000 -3.575899414063e+003
 1.166039466858e+000 -3.512103515625e+003
 1.173893690109e+000 -3.447236572266e+003
 1.181727051735e+000 -3.381247558594e+003
 1.189571499825e+000 -3.313582031250e+003
 1.197398781776e+000 -3.244420898438e+003
 1.205188035965e+000 -3.173782714844e+003
 1.213017106056e+000 -3.100751953125e+003
 1.220808982849e+000 -3.025861328125e+003
 1.228563666344e+000 -2.948779052734e+003
 1.236301302910e+000 -2.869201660156e+003
 1.244053244591e+000 -2.786590087891e+003
 1.251777648926e+000 -2.701299316406e+003
 1.259510517120e+000 -2.612692382813e+003
 1.267176508904e+000 -2.521536376953e+003
 1.274847865105e+000 -2.426978271484e+003
 1.282513976097e+000 -2.329264648438e+003
 1.290185451508e+000 -2.228311523438e+003
 1.297792077065e+000 -2.125205810547e+003
 1.305379629135e+000 -2.019516357422e+003
 1.312979102135e+000 -1.911149780273e+003
 1.320539951324e+000 -1.801135986328e+003
 1.328106999397e+000 -1.689075439453e+003
 1.335646390915e+000 -1.575924194336e+003
 1.343151450157e+000 -1.461889892578e+003
 1.350628852844e+000 -1.347333740234e+003
 1.358069539070e+000 -1.232613647461e+003
 1.365538835526e+000 -1.117028198242e+003
 1.372983694077e+000 -1.001541564941e+003
 1.380354285240e+000 -8.872091064453e+002
 1.387751460075e+000 -7.727452392578e+002
 1.395090103149e+000 -6.597511596680e+002
 1.402413129807e+000 -5.478538208008e+002
 1.409722089767e+000 -4.374198303223e+002
 1.417011260986e+000 -3.289329223633e+002
 1.424272775650e+000 -2.230197753906e+002
 1.431525230408e+000 -1.197985000610e+002
 1.438761949539e+000 -1.990648651123e+001
 1.445968031883e+000  7.599159240723e+001
 1.453137993813e+000  1.672542877197e+002
 1.460269927979e+000  2.534800720215e+002
 1.467388629913e+000  3.348285827637e+002
 1.474481463432e+000  4.110192565918e+002
 1.481529116631e+000  4.820355529785e+002
 1.488582253456e+000  5.485622558594e+002
 1.495585441589e+000  6.109093627930e+002
 1.502565503120e+000  6.701097412109e+002
 1.509511351585e+000  7.262967529297e+002
 1.516453981400e+000  7.797460937500e+002
 1.523301720619e+000  8.301223144531e+002
 1.530143022537e+000  8.790322265625e+002
 1.536983609200e+000  9.270731201172e+002
 1.543770551682e+000  9.738489990234e+002
 1.550508856773e+000  1.019556701660e+003
 1.557228326797e+000  1.065013183594e+003
 1.563892841339e+000  1.110619262695e+003
 1.570556402206e+000  1.156857910156e+003
 1.577183842659e+000  1.203493286133e+003
 1.583785653114e+000  1.250831542969e+003
 1.590335369110e+000  1.298838134766e+003
 1.596834063530e+000  1.347395019531e+003
 1.603308558464e+000  1.396761352539e+003
 1.609783887863e+000  1.447630493164e+003
 1.616188049316e+000  1.499853393555e+003
 1.622574567795e+000  1.554106445313e+003
 1.628906369209e+000  1.610273803711e+003
 1.635184884071e+000  1.668871459961e+003
 1.641460299492e+000  1.730803955078e+003
 1.647680759430e+000  1.795562377930e+003
 1.653841018677e+000  1.862856689453e+003
 1.659987092018e+000  1.933239013672e+003
 1.666051506996e+000  2.005931396484e+003
 1.672075986862e+000  2.081226318359e+003
 1.678085446358e+000  2.158841796875e+003
 1.684002876282e+000  2.236950195313e+003
 1.689896464348e+000  2.315198486328e+003
 1.695734858513e+000  2.391498779297e+003
 1.701516747475e+000  2.464017578125e+003
 1.707240462303e+000  2.531148193359e+003
 1.712950110435e+000  2.591895263672e+003
 1.718549132347e+000  2.643981689453e+003
 1.724131584167e+000  2.687526855469e+003
 1.729648709297e+000  2.721525146484e+003
 1.735098004341e+000  2.746097900391e+003
 1.740517497063e+000  2.761944335938e+003
 1.745822429657e+000  2.769522460938e+003
 1.751095175743e+000  2.769456298828e+003
 1.756308197975e+000  2.761328369141e+003
 1.761425614357e+000  2.745132080078e+003
 1.766512751579e+000  2.720641113281e+003
 1.771527171135e+000  2.687684570313e+003
 1.776515960693e+000  2.645202148438e+003
 1.781411528587e+000  2.592622070313e+003
 1.786262154579e+000  2.529109375000e+003
 1.791089534760e+000  2.454291259766e+003
 1.795851230621e+000  2.369602783203e+003
 1.800549745560e+000  2.276970458984e+003
 1.805197715759e+000  2.178203369141e+003
 1.809799909592e+000  2.075522216797e+003
 1.814338445663e+000  1.971371826172e+003
 1.818845868111e+000  1.866509765625e+003
 1.823293566704e+000  1.762591186523e+003
 1.827681779861e+000  1.660544555664e+003
 1.832014799118e+000  1.561515625000e+003
 1.836330771446e+000  1.466070678711e+003
 1.840592503548e+000  1.376983642578e+003
 1.844814658165e+000  1.295998535156e+003
 1.849041581154e+000  1.225513305664e+003
 1.853208422661e+000  1.170061035156e+003
 1.857400178909e+000  1.131621459961e+003
 1.861596465111e+000  1.112949584961e+003
 1.865815520287e+000  1.113731445313e+003
 1.870074391365e+000  1.133424316406e+003
 1.874418973923e+000  1.170106567383e+003
 1.878826856613e+000  1.220164916992e+003
 1.883347868919e+000  1.280689208984e+003
 1.887989521027e+000  1.348517944336e+003
 1.892759442329e+000  1.420511352539e+003
 1.897647142410e+000  1.492270874023e+003
 1.902669072151e+000  1.559817871094e+003
 1.907833099365e+000  1.621159301758e+003
 1.913066387177e+000  1.676364624023e+003
 1.918420553207e+000  1.727593139648e+003
 1.923802137375e+000  1.776698852539e+003
 1.929226160049e+000  1.828516967773e+003
 1.934652209282e+000  1.888951538086e+003
 1.940056443214e+000  1.960939086914e+003
 1.945404052734e+000  2.043991455078e+003
 1.950731277466e+000  2.137163085938e+003
 1.955985307693e+000  2.237594726563e+003
 1.961163282394e+000  2.341715820313e+003
 1.966287493706e+000  2.443684082031e+003
 1.971347332001e+000  2.536968017578e+003
 1.976359844208e+000  2.617933105469e+003
 1.981330394745e+000  2.685301269531e+003
 1.986281991005e+000  2.739061767578e+003
 1.991200327873e+000  2.781247802734e+003
 1.996090650558e+000  2.815517822266e+003
 2.000965118408e+000  2.847036376953e+003
 2.005802392960e+000  2.880204589844e+003
 2.010615348816e+000  2.918638183594e+003
 2.015438079834e+000  2.965728515625e+003
 2.020215988159e+000  3.025192138672e+003
 2.024954795837e+000  3.100481201172e+003
 2.029714584351e+000  3.194525878906e+003
 2.034434795380e+000  3.307941406250e+003
 2.039134979248e+000  3.440833496094e+003
 2.043838262558e+000  3.594019775391e+003
 2.048503160477e+000  3.764146240234e+003
 2.053143739700e+000  3.948741943359e+003
 2.057798385620e+000  4.147788085938e+003
 2.062398195267e+000  4.356080566406e+003
 2.067010879517e+000  4.574177246094e+003
 2.071588039398e+000  4.796301269531e+003
 2.076132297516e+000  5.019742675781e+003
 2.080698966980e+000  5.244811035156e+003
 2.085211277008e+000  5.464613281250e+003
 2.089702367783e+000  5.676853515625e+003
 2.094170093536e+000  5.877731933594e+003
 2.098615646362e+000  6.064742187500e+003
 2.103028297424e+000  6.233385253906e+003
 2.107446908951e+000  6.382268554688e+003
 2.111799240112e+000  6.505716796875e+003
 2.116099834442e+000  6.602834472656e+003
 2.120423555374e+000  6.673562011719e+003
 2.124657392502e+000  6.713069824219e+003
 2.128895521164e+000  6.723605957031e+003
 2.133080720901e+000  6.706062500000e+003
 2.137226581573e+000  6.663066406250e+003
 2.141362428665e+000  6.596772460938e+003
 2.145448923111e+000  6.509681640625e+003
 2.149466276169e+000  6.407748535156e+003
 2.153472900391e+000  6.293767578125e+003
 2.157444000244e+000  6.171839355469e+003
 2.161369562149e+000  6.045263671875e+003
 2.165249824524e+000  5.917462890625e+003
 2.169094800949e+000  5.792276855469e+003
 2.172890663147e+000  5.673895996094e+003
 2.176662683487e+000  5.564862792969e+003
 2.180403232574e+000  5.469141601563e+003
 2.184079647064e+000  5.392935058594e+003
 2.187718391418e+000  5.338934082031e+003
 2.191321372986e+000  5.309952636719e+003
 2.194884777069e+000  5.308463867188e+003
 2.198399305344e+000  5.336336425781e+003
 2.201880693436e+000  5.396696777344e+003
 2.205312967300e+000  5.487365234375e+003
 2.208683729172e+000  5.606201171875e+003
 2.212027072906e+000  5.752750000000e+003
 2.215343475342e+000  5.925917968750e+003
 2.218591690063e+000  6.122594726563e+003
 2.221814632416e+000  6.341241699219e+003
 2.224986314774e+000  6.577827148438e+003
 2.228125333786e+000  6.831236328125e+003
 2.231222152710e+000  7.097966308594e+003
 2.234265089035e+000  7.373448242188e+003
 2.237254142761e+000  7.652508300781e+003
 2.240200996399e+000  7.931895019531e+003
 2.243104934692e+000  8.207000000000e+003
 2.245972156525e+000  8.473130859375e+003
 2.248779058456e+000  8.722269531250e+003
 2.251534223557e+000  8.950500000000e+003
 2.254244327545e+000  9.153753906250e+003
 2.256890296936e+000  9.326541015625e+003
 2.259496927261e+000  9.466611328125e+003
 2.262047052383e+000  9.568204101563e+003
 2.264552831650e+000  9.631664062500e+003
 2.266995668411e+000  9.656250976563e+003
 2.269379377365e+000  9.642943359375e+003
 2.271714925766e+000  9.593265625000e+003
 2.273999929428e+000  9.508044921875e+003
 2.276212692261e+000  9.393020507813e+003
 2.278371095657e+000  9.251590820313e+003
 2.280467987061e+000  9.088190429688e+003
 2.282518863678e+000  8.905877929688e+003
 2.284506082535e+000  8.709816406250e+003
 2.286447525024e+000  8.503714843750e+003
 2.288321733475e+000  8.294227539063e+003
 2.290144443512e+000  8.083980957031e+003
 2.291926383972e+000  7.875733886719e+003
 2.293643236160e+000  7.676063476563e+003
 2.295307636261e+000  7.487233398438e+003
 2.296915531158e+000  7.312960937500e+003
 2.298477649689e+000  7.155296875000e+003
 2.299983024597e+000  7.018400878906e+003
 2.301429748535e+000  6.906257812500e+003
 2.302830457687e+000  6.820229003906e+003
 2.304176568985e+000  6.763067871094e+003
 2.305475711823e+000  6.736367187500e+003
 2.306714296341e+000  6.741347656250e+003
 2.307906389236e+000  6.780261718750e+003
 2.309049606323e+000  6.852541503906e+003
 2.310133934021e+000  6.956261718750e+003
 2.311171531677e+000  7.091184082031e+003
 2.312148571014e+000  7.253212890625e+003
 2.313075542450e+000  7.442959960938e+003
 2.313944578171e+000  7.654583984375e+003
 2.314754724503e+000  7.882757812500e+003
 2.315509319305e+000  8.123758300781e+003
 2.316210269928e+000  8.373342773438e+003
 2.316845417023e+000  8.622627929688e+003
 2.317425489426e+000  8.869101562500e+003
 2.317945241928e+000  9.104601562500e+003
 2.318405151367e+000  9.324144531250e+003
 2.318808078766e+000  9.523907226563e+003
 2.319148540497e+000  9.696949218750e+003
 2.319428920746e+000  9.840927734375e+003
 2.319651842117e+000  9.954903320313e+003
 2.319817304611e+000  1.003757714844e+004
 2.319926261902e+000  1.008893554688e+004
 2.319976568222e+000  1.010879199219e+004
 2.319970130920e+000  1.009919335938e+004
 2.319907903671e+000  1.006202148438e+004
 2.319791793823e+000  9.999416992188e+003
 2.319620132446e+000  9.911615234375e+003
 2.319394826889e+000  9.800286132813e+003
 2.319114685059e+000  9.664666992188e+003
 2.318784236908e+000  9.508525390625e+003
 2.318405151367e+000  9.332790039063e+003
 2.317978858948e+000  9.140558593750e+003
 2.317502021790e+000  8.932155273438e+003
 2.316977024078e+000  8.713267578125e+003
 2.316406488419e+000  8.488138671875e+003
 2.315792560577e+000  8.262924804688e+003
 2.315136909485e+000  8.045266113281e+003
 2.314434289932e+000  7.838519042969e+003
 2.313684463501e+000  7.648631835938e+003
 2.312896966934e+000  7.482352050781e+003
 2.312059640884e+000  7.340749023438e+003
 2.311180114746e+000  7.227838867188e+003
 2.310249567032e+000  7.145878417969e+003
 2.309275627136e+000  7.095632324219e+003
 2.308260917664e+000  7.076303710938e+003
 2.307196140289e+000  7.087117675781e+003
 2.306088447571e+000  7.127398437500e+003
 2.304939508438e+000  7.195877441406e+003
 2.303744554520e+000  7.289834960938e+003
 2.302513122559e+000  7.404656250000e+003
 2.301232814789e+000  7.537315429688e+003
 2.299910545349e+000  7.681784179688e+003
 2.298550128937e+000  7.832510742188e+003
 2.297143697739e+000  7.982194335938e+003
 2.295693397522e+000  8.124549316406e+003
 2.294206857681e+000  8.253140625000e+003
 2.292678356171e+000  8.362874023438e+003
 2.291105985641e+000  8.447753906250e+003
 2.289503097534e+000  8.502753906250e+003
 2.287876129150e+000  8.526631835938e+003
 2.286210298538e+000  8.518095703125e+003
 2.284512996674e+000  8.476567382813e+003
 2.282787799835e+000  8.402355468750e+003
 2.281016588211e+000  8.295413085938e+003
 2.279211759567e+000  8.160185058594e+003
 2.277369260788e+000  7.999656250000e+003
 2.275468587875e+000  7.819069824219e+003
 2.273512363434e+000  7.625558593750e+003
 2.271468162537e+000  7.424245117188e+003
 2.269343852997e+000  7.227147460938e+003
 2.267117023468e+000  7.039733886719e+003
 2.264791727066e+000  6.872250488281e+003
 2.262352705002e+000  6.728891113281e+003
 2.259804010391e+000  6.611806640625e+003
 2.257171869278e+000  6.518326660156e+003
 2.254467487335e+000  6.442738769531e+003
 2.251693964005e+000  6.379305664063e+003
 2.248892068863e+000  6.322956542969e+003
 2.246059417725e+000  6.271093261719e+003
 2.243211746216e+000  6.225841308594e+003
 2.240370035172e+000  6.192309082031e+003
 2.237534761429e+000  6.174376464844e+003
 2.234713315964e+000  6.175527832031e+003
 2.231890439987e+000  6.198871582031e+003
 2.229057550430e+000  6.245638671875e+003
 2.226236343384e+000  6.315294433594e+003
 2.223411083221e+000  6.405421875000e+003
 2.220583915710e+000  6.513206054688e+003
 2.217729806900e+000  6.637409179688e+003
 2.214844465256e+000  6.773931640625e+003
 2.211953401566e+000  6.915770019531e+003
 2.209039688110e+000  7.060096679688e+003
 2.206108093262e+000  7.202197265625e+003
 2.203125953674e+000  7.340534667969e+003
 2.200147628784e+000  7.468730468750e+003
 2.197118997574e+000  7.585441406250e+003
 2.194069623947e+000  7.687827636719e+003
 2.190989971161e+000  7.774618652344e+003
 2.187865257263e+000  7.842941894531e+003
 2.184730768204e+000  7.891078613281e+003
 2.181549549103e+000  7.917885742188e+003
 2.178341865540e+000  7.923074218750e+003
 2.175097942352e+000  7.905956054688e+003
 2.171831607819e+000  7.866163085938e+003
 2.168527126312e+000  7.806734375000e+003
 2.165196418762e+000  7.730740722656e+003
 2.161838054657e+000  7.641118164063e+003
 2.158437490463e+000  7.538805175781e+003
 2.155032634735e+000  7.425780273438e+003
 2.151588201523e+000  7.303500488281e+003
 2.148107767105e+000  7.172447753906e+003
 2.144603729248e+000  7.032431152344e+003
 2.141077041626e+000  6.883450195313e+003
 2.137544155121e+000  6.726097656250e+003
 2.133975028992e+000  6.562191894531e+003
 2.130392313004e+000  6.392747558594e+003
 2.126781702042e+000  6.222107910156e+003
 2.123169422150e+000  6.054519531250e+003
 2.119528055191e+000  5.896353515625e+003
 2.115872859955e+000  5.752486816406e+003
 2.112203359604e+000  5.629229980469e+003
 2.108510732651e+000  5.530039062500e+003
 2.104805469513e+000  5.461065429688e+003
 2.101048946381e+000  5.425450195313e+003
 2.097296953201e+000  5.423941406250e+003
 2.093507051468e+000  5.456433105469e+003
 2.089703321457e+000  5.521231445313e+003
 2.085868358612e+000  5.614587402344e+003
 2.081976413727e+000  5.732887207031e+003
 2.078089475632e+000  5.865885253906e+003
 2.074158430099e+000  6.008267089844e+003
 2.070209026337e+000  6.151491210938e+003
 2.066230535507e+000  6.290471191406e+003
 2.062242984772e+000  6.418333496094e+003
 2.058191776276e+000  6.533992675781e+003
 2.054137229919e+000  6.634373535156e+003
 2.050071239471e+000  6.718555175781e+003
 2.045949220657e+000  6.787541503906e+003
 2.041837692261e+000  6.840223632813e+003
 2.037680864334e+000  6.878203613281e+003
 2.033508062363e+000  6.901488769531e+003
 2.029311418533e+000  6.909656738281e+003
 2.025092601776e+000  6.902453613281e+003
 2.020874261856e+000  6.879205566406e+003
 2.016608238220e+000  6.840701660156e+003
 2.012311220169e+000  6.786561523438e+003
 2.008020877838e+000  6.717427734375e+003
 2.003688335419e+000  6.632704589844e+003
 1.999354600906e+000  6.531943359375e+003
 1.994977831841e+000  6.414347656250e+003
 1.990587711334e+000  6.280030761719e+003
 1.986193656921e+000  6.128947265625e+003
 1.981771349907e+000  5.960877929688e+003
 1.977313637733e+000  5.776483886719e+003
 1.972838282585e+000  5.579784667969e+003
 1.968359231949e+000  5.378652832031e+003
 1.963880300522e+000  5.179921386719e+003
 1.959347486496e+000  4.990869628906e+003
 1.954821825027e+000  4.825943359375e+003
 1.950298190117e+000  4.693748046875e+003
 1.945736527443e+000  4.599405761719e+003
 1.941167473793e+000  4.549229003906e+003
 1.936578273773e+000  4.544512207031e+003
 1.931994557381e+000  4.585073242188e+003
 1.927397251129e+000  4.662194824219e+003
 1.922780513763e+000  4.767654785156e+003
 1.918150424957e+000  4.890557617188e+003
 1.913485884666e+000  5.021254882813e+003
 1.908820271492e+000  5.148071777344e+003
 1.904150843620e+000  5.261734863281e+003
 1.899462342262e+000  5.357026855469e+003
 1.894765973091e+000  5.430360839844e+003
 1.890060663223e+000  5.480871582031e+003
 1.885306954384e+000  5.508849609375e+003
 1.880550503731e+000  5.518270996094e+003
 1.875792980194e+000  5.512154785156e+003
 1.871029257774e+000  5.494448730469e+003
 1.866243720055e+000  5.469542968750e+003
 1.861421585083e+000  5.441560058594e+003
 1.856600761414e+000  5.414368164063e+003
 1.851799726486e+000  5.390071777344e+003
 1.846954226494e+000  5.369380859375e+003
 1.842079639435e+000  5.351635253906e+003
 1.837214350700e+000  5.333992187500e+003
 1.832342147827e+000  5.312080566406e+003
 1.827449679375e+000  5.282425292969e+003
 1.822532653809e+000  5.241735351563e+003
 1.817596435547e+000  5.186839843750e+003
 1.812673211098e+000  5.114313964844e+003
 1.807726502419e+000  5.024916503906e+003
 1.802776932716e+000  4.920291503906e+003
 1.797810316086e+000  4.802166015625e+003
 1.792841553688e+000  4.675234375000e+003
 1.787881851196e+000  4.543347656250e+003
 1.782885432243e+000  4.412015136719e+003
 1.777927279472e+000  4.287808593750e+003
 1.772933125496e+000  4.173141601563e+003
 1.767943978310e+000  4.074128662109e+003
 1.762945413589e+000  3.996357421875e+003
 1.757978081703e+000  3.943790527344e+003
 1.753003120422e+000  3.917220458984e+003
 1.748027443886e+000  3.917405273438e+003
 1.743086099625e+000  3.943120117188e+003
 1.738101601601e+000  3.992947021484e+003
 1.733142256737e+000  4.059592285156e+003
 1.728188991547e+000  4.137708984375e+003
 1.723229050636e+000  4.221208984375e+003
 1.718281745911e+000  4.305043945313e+003
 1.713342308998e+000  4.383747558594e+003
 1.708354711533e+000  4.455300292969e+003
 1.703412532806e+000  4.516506347656e+003
 1.698456645012e+000  4.567560546875e+003
 1.693472504616e+000  4.608525390625e+003
 1.688518047333e+000  4.638380371094e+003
 1.683529973030e+000  4.657979003906e+003
 1.678552746773e+000  4.668215332031e+003
 1.673562169075e+000  4.669737792969e+003
 1.668535947800e+000  4.663215332031e+003
 1.663545250893e+000  4.649476074219e+003
 1.658524394035e+000  4.630043945313e+003
 1.653487801552e+000  4.605421875000e+003
 1.648427248001e+000  4.575383300781e+003
 1.643386363983e+000  4.539414062500e+003
 1.638314366341e+000  4.496347656250e+003
 1.633264064789e+000  4.445582519531e+003
 1.628185153008e+000  4.386066406250e+003
 1.623134136200e+000  4.318160644531e+003
 1.618057608604e+000  4.241934570313e+003
 1.612970709801e+000  4.158457519531e+003
 1.607920169830e+000  4.071884521484e+003
 1.602861523628e+000  3.985226074219e+003
 1.597801923752e+000  3.902995849609e+003
 1.592744231224e+000  3.829749267578e+003
 1.587685227394e+000  3.771803222656e+003
 1.582665801048e+000  3.733055664063e+003
 1.577618122101e+000  3.716437988281e+003
 1.572615742683e+000  3.724345458984e+003
 1.567584753036e+000  3.757569335938e+003
 1.562547206879e+000  3.816782470703e+003
 1.557551741600e+000  3.897646484375e+003
 1.552518129349e+000  3.997587158203e+003
 1.547523140907e+000  4.109004882813e+003
 1.542493343353e+000  4.227721679688e+003
 1.537512660027e+000  4.344119628906e+003
 1.532488107681e+000  4.454204101563e+003
 1.527510523796e+000  4.551729980469e+003
 1.522490859032e+000  4.636281250000e+003
 1.517503261566e+000  4.705961425781e+003
 1.512485861778e+000  4.762837890625e+003
 1.507470488548e+000  4.810383789063e+003
 1.502477526665e+000  4.851178222656e+003
 1.497489690781e+000  4.887899902344e+003
 1.492471694946e+000  4.922060546875e+003
 1.487450838089e+000  4.952871093750e+003
 1.482477664948e+000  4.978678710938e+003
 1.477452993393e+000  4.997729980469e+003
 1.472477555275e+000  5.007998046875e+003
 1.467452049255e+000  5.009088867188e+003
 1.462472200394e+000  5.000853515625e+003
 1.457443952560e+000  4.984173828125e+003
 1.452446103096e+000  4.960551757813e+003
 1.447452425957e+000  4.931457031250e+003
 1.442447900772e+000  4.897262695313e+003
 1.437470197678e+000  4.858634765625e+003
 1.432487010956e+000  4.815879882813e+003
 1.427522659302e+000  4.770828125000e+003
 1.422529697418e+000  4.726354492188e+003
 1.417587161064e+000  4.686916015625e+003
 1.412656307220e+000  4.657327148438e+003
 1.407694101334e+000  4.643959472656e+003
 1.402773857117e+000  4.651969726563e+003
 1.397858023643e+000  4.684857910156e+003
 1.392919063568e+000  4.744884765625e+003
 1.388016581535e+000  4.831615234375e+003
 1.383081674576e+000  4.941871582031e+003
 1.378157734871e+000  5.069495117188e+003
 1.373246431351e+000  5.208564453125e+003
 1.368340134621e+000  5.353586425781e+003
 1.363434553146e+000  5.498667480469e+003
 1.358525753021e+000  5.639897460938e+003
 1.353613972664e+000  5.771167480469e+003
 1.348694324493e+000  5.889706054688e+003
 1.343767881393e+000  5.990533691406e+003
 1.338829755783e+000  6.068459960938e+003
 1.333933830261e+000  6.121623046875e+003
 1.329006791115e+000  6.151155761719e+003
 1.324073910713e+000  6.159812011719e+003
 1.319167375565e+000  6.152617675781e+003
 1.314213991165e+000  6.136589355469e+003
 1.309313535690e+000  6.121510742188e+003
 1.304369091988e+000  6.115876953125e+003
 1.299432039261e+000  6.126656250000e+003
 1.294499635696e+000  6.157727050781e+003
 1.289530873299e+000  6.210476562500e+003
 1.284594535828e+000  6.280139648438e+003
 1.279636025429e+000  6.360013671875e+003
 1.274678468704e+000  6.441317382813e+003
 1.269714236259e+000  6.515988769531e+003
 1.264710426331e+000  6.577528808594e+003
 1.259741067886e+000  6.620634277344e+003
 1.254719138145e+000  6.645451171875e+003
 1.249732255936e+000  6.652722167969e+003
 1.244730234146e+000  6.646005859375e+003
 1.239714503288e+000  6.629271972656e+003
 1.234684944153e+000  6.607586914063e+003
 1.229644060135e+000  6.585584960938e+003
 1.224605798721e+000  6.567033691406e+003
 1.219552874565e+000  6.554829101563e+003
 1.214500188828e+000  6.551139648438e+003
 1.209446787834e+000  6.556929687500e+003
 1.204374074936e+000  6.571909667969e+003
 1.199304342270e+000  6.594640625000e+003
 1.194254279137e+000  6.621949218750e+003
 1.189168214798e+000  6.650487304688e+003
 1.184023618698e+000  6.676179687500e+003
 1.178926110268e+000  6.695791015625e+003
 1.173804283142e+000  6.708136230469e+003
 1.168651938438e+000  6.713605468750e+003
 1.163523435593e+000  6.714385253906e+003
 1.158343553543e+000  6.714304687500e+003
 1.153173327446e+000  6.717018554688e+003
 1.148009181023e+000  6.725313476563e+003
 1.142811536789e+000  6.741202148438e+003
 1.137595653534e+000  6.765498046875e+003
 1.132374405861e+000  6.796531250000e+003
 1.127124905586e+000  6.832087890625e+003
 1.121871590614e+000  6.869944824219e+003
 1.116586327553e+000  6.908893554688e+003
 1.111309766769e+000  6.948213378906e+003
 1.105974912643e+000  6.988916015625e+003
 1.100634574890e+000  7.031273925781e+003
 1.095301747322e+000  7.075771484375e+003
 1.089920878410e+000  7.121123535156e+003
 1.084519982338e+000  7.163975585938e+003
 1.079097270966e+000  7.199466796875e+003
 1.073645234108e+000  7.223465820313e+003
 1.068160295486e+000  7.232663085938e+003
 1.062684535980e+000  7.224996582031e+003
 1.057130455971e+000  7.199160156250e+003
 1.051618814468e+000  7.156003906250e+003
 1.046064019203e+000  7.097043457031e+003
 1.040483832359e+000  7.023191894531e+003
 1.034880280495e+000  6.935593750000e+003
 1.029254913330e+000  6.835522460938e+003
 1.023617863655e+000  6.724885253906e+003
 1.017966389656e+000  6.606136718750e+003
 1.012308239937e+000  6.481533691406e+003
 1.006587862968e+000  6.353276855469e+003
 1.000925302505e+000  6.227024414063e+003
 9.952061176300e-001  6.104628417969e+003
 9.894551634789e-001  5.990350585938e+003
 9.836881160736e-001  5.887585449219e+003
 9.779121875763e-001  5.799756347656e+003
 9.721001386642e-001  5.728729980469e+003
 9.662810564041e-001  5.675746582031e+003
 9.604471921921e-001  5.639501464844e+003
 9.545402526855e-001  5.617788085938e+003
 9.486735463142e-001  5.608238769531e+003
 9.427287578583e-001  5.606615722656e+003
 9.367717504501e-001  5.607857421875e+003
 9.308174252510e-001  5.606870117188e+003
 9.247984886169e-001  5.599361328125e+003
 9.187528491020e-001  5.581387207031e+003
 9.126864671707e-001  5.549973632813e+003
 9.065988659859e-001  5.502839843750e+003
 9.004974365234e-001  5.441028808594e+003
 8.943418264389e-001  5.364869628906e+003
 8.881634473801e-001  5.277375488281e+003
 8.819670081139e-001  5.181139160156e+003
 8.757496476173e-001  5.080069824219e+003
 8.694427013397e-001  4.976869628906e+003
 8.631678819656e-001  4.874642089844e+003
 8.568476438522e-001  4.773188964844e+003
 8.505396246910e-001  4.674781738281e+003
 8.441717028618e-001  4.577543457031e+003
 8.377715349197e-001  4.482602050781e+003
 8.313704729080e-001  4.391106445313e+003
 8.249283432961e-001  4.303768554688e+003
 8.184643387794e-001  4.221165527344e+003
 8.120167851448e-001  4.145246582031e+003
 8.055566549301e-001  4.073933349609e+003
 7.990621328354e-001  4.006427246094e+003
 7.925442457199e-001  3.939823486328e+003
 7.859974503517e-001  3.870713134766e+003
 7.794220447540e-001  3.795259277344e+003
 7.728444933891e-001  3.710001464844e+003
 7.662521004677e-001  3.612650634766e+003
 7.596118450165e-001  3.500993164063e+003
 7.529746890068e-001  3.376393066406e+003
 7.463227510452e-001  3.240891357422e+003
 7.396031618118e-001  3.100611816406e+003
 7.328522801399e-001  2.962861816406e+003
 7.261050939560e-001  2.835771240234e+003
 7.193322181702e-001  2.725666259766e+003
 7.124587297440e-001  2.635583251953e+003
 7.056213021278e-001  2.565990478516e+003
 6.987463235855e-001  2.511992919922e+003
 6.918355226517e-001  2.467179931641e+003
 6.848859786987e-001  2.423375976563e+003
 6.779697537422e-001  2.372495605469e+003
 6.709570884705e-001  2.306899902344e+003
 6.639468669891e-001  2.222008056641e+003
 6.569206118584e-001  2.114754882813e+003
 6.498861312866e-001  1.983038696289e+003
 6.428058147430e-001  1.824951660156e+003
 6.356992125511e-001  1.644325683594e+003
 6.286208033562e-001  1.447914306641e+003
 6.214509606361e-001  1.238561523438e+003
 6.143255233765e-001  1.030725341797e+003
 6.071830987930e-001  8.330772094727e+002
 6.000081896782e-001  6.572012939453e+002
 5.928176641464e-001  5.111017761230e+002
 5.856078267097e-001  3.983977355957e+002
 5.783745050430e-001  3.203201293945e+002
 5.712043046951e-001  2.735020446777e+002
 5.639454126358e-001  2.477772674561e+002
 5.566938519478e-001  2.346575622559e+002
 5.494441986084e-001  2.247663421631e+002
 5.421904325485e-001  2.102665710449e+002
 5.349301099777e-001  1.844591827393e+002
 5.276579856873e-001  1.443277740479e+002
 5.203378796577e-001  8.727448272705e+001
 5.129864811897e-001  1.251514720917e+001
 5.056824088097e-001 -7.942285919189e+001
 4.982942640781e-001 -1.918062133789e+002
 4.909266829491e-001 -3.223129272461e+002
 4.835526645184e-001 -4.711958007813e+002
 4.760906994343e-001 -6.380218505859e+002
 4.686374962330e-001 -8.179940795898e+002
 4.611980617046e-001 -1.006434814453e+003
 4.537640810013e-001 -1.195147460938e+003
 4.462254345417e-001 -1.378246459961e+003
 4.387282431126e-001 -1.544435668945e+003
 4.311975240707e-001 -1.687869628906e+003
 4.236908853054e-001 -1.802001708984e+003
 4.161550998688e-001 -1.888747680664e+003
 4.085940122604e-001 -1.949807495117e+003
 4.010829925537e-001 -1.990149414063e+003
 3.935583531857e-001 -2.016989624023e+003
 3.860086798668e-001 -2.038205078125e+003
 3.785033226013e-001 -2.062576904297e+003
 3.709929287434e-001 -2.097926025391e+003
 3.634257614613e-001 -2.151292480469e+003
 3.559655249119e-001 -2.226987304688e+003
 3.484419286251e-001 -2.329713378906e+003
 3.409049808979e-001 -2.456569580078e+003
 3.333310484886e-001 -2.604176025391e+003
 3.257020413876e-001 -2.765939208984e+003
 3.179979026318e-001 -2.932413330078e+003
 3.101139962673e-001 -3.097145996094e+003
 3.022165596485e-001 -3.245938720703e+003
 2.941095829010e-001 -3.377519287109e+003
 2.859504818916e-001 -3.485559082031e+003
 2.777096331120e-001 -3.570618652344e+003
 2.695399224758e-001 -3.632442871094e+003
 2.615649402142e-001 -3.677106689453e+003
 2.539595067501e-001 -3.709728027344e+003
 2.469570934772e-001 -3.735083496094e+003
 2.407668828964e-001 -3.757154052734e+003
 2.358150780201e-001 -3.777325195313e+003
 2.321465462446e-001 -3.795338867188e+003
 2.298763394356e-001 -3.808873046875e+003
 2.288617491722e-001 -3.815969726563e+003
 2.286646217108e-001 -3.817532714844e+003
endcurve
