Curveplot
LS-DYNA keyword deck by LS-PrePost
Yrot-displ
phi moment-stiffness
Joint Stiff
300001 #pts=1000
* Minval= -1.947627539063e+004 at time=      -2.935639858246
* Maxval=  1.080491601563e+004 at time=      -0.156320735812
-1.630639956396e-009  1.325033511966e-002
-2.165803536514e-009  2.556518092752e-002
-2.613589566991e-009  4.044179990888e-002
-2.840518931180e-009  5.660286545753e-002
-2.681142197147e-009  7.197112590075e-002
-1.934219895361e-009  8.343543857336e-002
-3.206637733122e-010  8.588774502277e-002
 2.311459690318e-009  7.526767998934e-002
 6.112117478807e-009  4.815240949392e-002
 1.109312375291e-008 -4.665800370276e-004
 1.711195274368e-008 -7.745410501957e-002
 2.368413198894e-008 -1.874171048403e-001
 2.995614778456e-008 -3.259033858776e-001
 3.455884822756e-008 -4.813717603683e-001
 3.582201557606e-008 -6.399950385094e-001
 3.161191486356e-008 -7.747253775597e-001
 1.882395572750e-008 -8.348969221115e-001
-4.697915390039e-009 -7.527084946632e-001
-4.103863204818e-008 -4.360019564629e-001
-9.047423787933e-008  2.310311347246e-001
-1.525087753862e-007  1.406243205070e+000
-2.241812779857e-007  3.326087951660e+000
-2.984396019201e-007  6.176511764526e+000
-3.658210800950e-007  1.014177989960e+001
-4.164028553078e-007  1.548982810974e+001
-4.383584553125e-007  2.247228050232e+001
-4.181212318599e-007  3.135556793213e+001
-3.480370196485e-007  4.245567321777e+001
-2.248461754562e-007  5.593783569336e+001
-5.113714962590e-008  7.207781982422e+001
 1.617111422547e-007  9.109853363037e+001
 3.928253704544e-007  1.135787963867e+002
 6.024670256011e-007  1.396121826172e+002
 7.393920782306e-007  1.694026947021e+002
 7.375255108855e-007  2.032366027832e+002
 5.121287927068e-007  2.415288238525e+002
-5.875867259419e-008  2.844070129395e+002
-1.104050170397e-006  3.325009155273e+002
-2.754643901426e-006  3.854143066406e+002
-5.191505806579e-006  4.438291320801e+002
-8.611787961854e-006  5.079235839844e+002
-1.327838435827e-005  5.777803344727e+002
-1.939097455761e-005  6.531528320313e+002
-2.717542338360e-005  7.339797973633e+002
-3.701578680193e-005  8.212083740234e+002
-4.911104770144e-005  9.137671508789e+002
-6.397068500519e-005  1.012121398926e+003
-8.187523781089e-005  1.115757568359e+003
-1.031691863318e-004  1.224355102539e+003
-1.282518933294e-004  1.337590454102e+003
-1.575458736625e-004  1.455107299805e+003
-1.917534827953e-004  1.576685302734e+003
-2.316624741070e-004  1.703085205078e+003
-2.768924459815e-004  1.831204833984e+003
-3.283231053501e-004  1.961897949219e+003
-3.864802420139e-004  2.094736816406e+003
-4.524005344138e-004  2.229593017578e+003
-5.270233377814e-004  2.366921386719e+003
-6.093466654420e-004  2.503541259766e+003
-7.008989341557e-004  2.640972167969e+003
-8.026002324186e-004  2.779071533203e+003
-9.140553302132e-004  2.915547851563e+003
-1.037303474732e-003  3.052147460938e+003
-1.171342446469e-003  3.186899658203e+003
-1.317065209150e-003  3.319783935547e+003
-1.476253150031e-003  3.451506347656e+003
-1.647362718359e-003  3.579578857422e+003
-1.833168556914e-003  3.705512939453e+003
-2.032088814303e-003  3.827913085938e+003
-2.246572403237e-003  3.947744628906e+003
-2.473724074662e-003  4.063076171875e+003
-2.718634903431e-003  4.175621582031e+003
-2.977782860398e-003  4.283827636719e+003
-3.254889044911e-003  4.389172363281e+003
-3.546475432813e-003  4.490379882813e+003
-3.856718074530e-003  4.588881347656e+003
-4.184842109680e-003  4.683988281250e+003
-4.529530182481e-003  4.775774902344e+003
-4.892679397017e-003  4.864974121094e+003
-5.274496506900e-003  4.951889648438e+003
-5.674198735505e-003  5.036463378906e+003
-6.094286683947e-003  5.119333984375e+003
-6.533470470458e-003  5.200572753906e+003
-6.991807371378e-003  5.280694335938e+003
-7.470020558685e-003  5.360085937500e+003
-7.968390360475e-003  5.439055664063e+003
-8.487370796502e-003  5.517931152344e+003
-9.028180502355e-003  5.597242187500e+003
-9.589575231075e-003  5.677144042969e+003
-1.017178036273e-002  5.757978515625e+003
-1.077535096556e-002  5.840067382813e+003
-1.140153594315e-002  5.923843750000e+003
-1.204832363874e-002  6.009251953125e+003
-1.271709147841e-002  6.096794433594e+003
-1.341354660690e-002  6.187426757813e+003
-1.412900537252e-002  6.280170410156e+003
-1.486749202013e-002  6.375780273438e+003
-1.563189364970e-002  6.474727539063e+003
-1.642343401909e-002  6.577270996094e+003
-1.723344996572e-002  6.682347167969e+003
-1.807626895607e-002  6.791746093750e+003
-1.893778145313e-002  6.903637695313e+003
-1.982752233744e-002  7.018997070313e+003
-2.074693702161e-002  7.137914062500e+003
-2.169310115278e-002  7.259754394531e+003
-2.266200631857e-002  7.383636718750e+003
-2.366674132645e-002  7.510871582031e+003
-2.469375357032e-002  7.639352050781e+003
-2.575464174151e-002  7.770107910156e+003
-2.684598788619e-002  7.902303710938e+003
-2.796341478825e-002  8.034871093750e+003
-2.912189997733e-002  8.169011718750e+003
-3.030121512711e-002  8.301762695313e+003
-3.151964023709e-002  8.434864257813e+003
-3.277179598808e-002  8.567158203125e+003
-3.405135124922e-002  8.697431640625e+003
-3.538101539016e-002  8.827283203125e+003
-3.673351556063e-002  8.953503906250e+003
-3.812220692635e-002  9.077130859375e+003
-3.954775258899e-002  9.197765625000e+003
-4.101075604558e-002  9.315095703125e+003
-4.251471906900e-002  9.428795898438e+003
-4.406037181616e-002  9.538583007813e+003
-4.564567655325e-002  9.644112304688e+003
-4.727143794298e-002  9.745278320313e+003
-4.892239347100e-002  9.840888671875e+003
-5.062995105982e-002  9.932310546875e+003
-5.237792804837e-002  1.001834765625e+004
-5.416069179773e-002  1.009889257813e+004
-5.598714575171e-002  1.017419238281e+004
-5.786503106356e-002  1.024443847656e+004
-5.977503582835e-002  1.030872167969e+004
-6.173169612885e-002  1.036757812500e+004
-6.373388320208e-002  1.042124707031e+004
-6.578230857849e-002  1.046994726563e+004
-6.787768006325e-002  1.051385253906e+004
-7.002203166485e-002  1.055311132813e+004
-7.219339907169e-002  1.058758496094e+004
-7.442412525415e-002  1.061829687500e+004
-7.669715583324e-002  1.064523632813e+004
-7.901927083731e-002  1.066876464844e+004
-8.139040321112e-002  1.068907031250e+004
-8.379239588976e-002  1.070626171875e+004
-8.626781404018e-002  1.072105761719e+004
-8.876844495535e-002  1.073341992188e+004
-9.131973981857e-002  1.074378515625e+004
-9.392315894365e-002  1.075238281250e+004
-9.658009558916e-002  1.075945898438e+004
-9.927397966385e-002  1.076527539063e+004
-1.020209640265e-001  1.077009082031e+004
-1.048046275973e-001  1.077405957031e+004
-1.076709330082e-001  1.077738378906e+004
-1.105626523495e-001  1.078012890625e+004
-1.134909316897e-001  1.078246191406e+004
-1.164942383766e-001  1.078450683594e+004
-1.195201203227e-001  1.078631445313e+004
-1.226297691464e-001  1.078800195313e+004
-1.257679313421e-001  1.078962500000e+004
-1.289584785700e-001  1.079127734375e+004
-1.322033405304e-001  1.079301757813e+004
-1.354979723692e-001  1.079487792969e+004
-1.388237327337e-001  1.079684570313e+004
-1.422351747751e-001  1.079890136719e+004
-1.456658542156e-001  1.080089648438e+004
-1.491858959198e-001  1.080271582031e+004
-1.527246832848e-001  1.080413183594e+004
-1.563207358122e-001  1.080491601563e+004
-1.600065678358e-001  1.080475195313e+004
-1.637132316828e-001  1.080338281250e+004
-1.674758642912e-001  1.080053320313e+004
-1.712891906500e-001  1.079593750000e+004
-1.751716881990e-001  1.078926660156e+004
-1.791083961725e-001  1.078019824219e+004
-1.830810904503e-001  1.076863867188e+004
-1.871419548988e-001  1.075420117188e+004
-1.912212669849e-001  1.073693847656e+004
-1.953998357058e-001  1.071623535156e+004
-1.996029168367e-001  1.069215722656e+004
-2.038634270430e-001  1.066450488281e+004
-2.081830352545e-001  1.063310742188e+004
-2.125620096922e-001  1.059783105469e+004
-2.170010507107e-001  1.055845800781e+004
-2.215025126934e-001  1.051476757813e+004
-2.260638624430e-001  1.046688476563e+004
-2.306861132383e-001  1.041474707031e+004
-2.353701740503e-001  1.035833789063e+004
-2.401176095009e-001  1.029751660156e+004
-2.448840588331e-001  1.023281542969e+004
-2.497618198395e-001  1.016310644531e+004
-2.546555697918e-001  1.008978613281e+004
-2.596132457256e-001  1.001217675781e+004
-2.646387815475e-001  9.930269531250e+003
-2.697402536869e-001  9.843905273438e+003
-2.749074697495e-001  9.753435546875e+003
-2.801086008549e-001  9.659596679688e+003
-2.853904664516e-001  9.561783203125e+003
-2.907069623470e-001  9.460971679688e+003
-2.960939407349e-001  9.356713867188e+003
-3.015482723713e-001  9.249364257813e+003
-3.070702254772e-001  9.139175781250e+003
-3.126058280468e-001  9.027353515625e+003
-3.182639181614e-001  8.911903320313e+003
-3.239383101463e-001  8.795102539063e+003
-3.296801149845e-001  8.676149414063e+003
-3.354679644108e-001  8.555473632813e+003
-3.413547277451e-001  8.432165039063e+003
-3.472528457642e-001  8.308193359375e+003
-3.532202839851e-001  8.182388671875e+003
-3.592538535595e-001  8.055000488281e+003
-3.653532564640e-001  7.926219726563e+003
-3.715083003044e-001  7.796465820313e+003
-3.776911497116e-001  7.666551757813e+003
-3.839449286461e-001  7.535654785156e+003
-3.902621269226e-001  7.404302246094e+003
-3.966431319714e-001  7.272424316406e+003
-4.030889570713e-001  7.140298828125e+003
-4.095371365547e-001  7.009161621094e+003
-4.160515666008e-001  6.877925781250e+003
-4.226896762848e-001  6.745437011719e+003
-4.293277859688e-001  6.614237792969e+003
-4.360270500183e-001  6.483104003906e+003
-4.427864551544e-001  6.352020507813e+003
-4.495447278023e-001  6.222405761719e+003
-4.564244151115e-001  6.091752441406e+003
-4.633615911007e-001  5.961302734375e+003
-4.702897071838e-001  5.832343750000e+003
-4.773396551609e-001  5.702312500000e+003
-4.843816161156e-001  5.573691406250e+003
-4.915057718754e-001  5.444630859375e+003
-4.986697435379e-001  5.315853027344e+003
-5.059008598328e-001  5.186886718750e+003
-5.131590962410e-001  5.058288085938e+003
-5.204876661301e-001  4.929380859375e+003
-5.278697609901e-001  4.800434570313e+003
-5.353096723557e-001  4.671214843750e+003
-5.427409410477e-001  4.542978515625e+003
-5.503061413765e-001  4.413201171875e+003
-5.578719973564e-001  4.284219238281e+003
-5.654824376106e-001  4.155060058594e+003
-5.731387734413e-001  4.025636962891e+003
-5.808529257774e-001  3.895642089844e+003
-5.886284112930e-001  3.764904541016e+003
-5.964548587799e-001  3.633473388672e+003
-6.042838692665e-001  3.502005859375e+003
-6.121832728386e-001  3.369300048828e+003
-6.201500296593e-001  3.235294921875e+003
-6.281768083572e-001  3.100141601563e+003
-6.361857056618e-001  2.965111328125e+003
-6.442804932594e-001  2.828523925781e+003
-6.524072885513e-001  2.691270507813e+003
-6.605513691902e-001  2.553715332031e+003
-6.688120365143e-001  2.414245605469e+003
-6.770440936089e-001  2.275244384766e+003
-6.853205561638e-001  2.135525878906e+003
-6.936733126640e-001  1.994597900391e+003
-7.020844817162e-001  1.852691772461e+003
-7.104948163033e-001  1.710853637695e+003
-7.189513444901e-001  1.568326049805e+003
-7.274708151817e-001  1.424838134766e+003
-7.359814643860e-001  1.281633544922e+003
-7.445203661919e-001  1.138204956055e+003
-7.531454563141e-001  9.935729370117e+002
-7.618114948273e-001  8.487117919922e+002
-7.705163955688e-001  7.038091430664e+002
-7.791781425476e-001  5.601355590820e+002
-7.879580259323e-001  4.152093811035e+002
-7.966929078102e-001  2.717875366211e+002
-8.055186271667e-001  1.277790908813e+002
-8.143571019173e-001 -1.573257827759e+001
-8.232471346855e-001 -1.590884094238e+002
-8.321517109871e-001 -3.018774108887e+002
-8.410547971725e-001 -4.436938171387e+002
-8.500038385391e-001 -5.851077270508e+002
-8.590075969696e-001 -7.263377685547e+002
-8.680066466331e-001 -8.662812500000e+002
-8.770498633385e-001 -1.005647155762e+003
-8.861021995544e-001 -1.143822143555e+003
-8.951542973518e-001 -1.280582031250e+003
-9.042963981628e-001 -1.417204833984e+003
-9.134007692337e-001 -1.551831298828e+003
-9.225822091103e-001 -1.686198852539e+003
-9.316850900650e-001 -1.817943725586e+003
-9.408833384514e-001 -1.949639770508e+003
-9.501001834869e-001 -2.080097656250e+003
-9.593073725700e-001 -2.209092773438e+003
-9.685397148132e-001 -2.337016113281e+003
-9.778161644936e-001 -2.464208251953e+003
-9.871110320091e-001 -2.590221191406e+003
-9.963554143906e-001 -2.714338867188e+003
-1.005672574043e+000 -2.838259765625e+003
-1.014993071556e+000 -2.961155273438e+003
-1.024315953255e+000 -3.083226074219e+003
-1.033627152443e+000 -3.204390869141e+003
-1.043016076088e+000 -3.326032958984e+003
-1.052356719971e+000 -3.446711425781e+003
-1.061695694923e+000 -3.567135742188e+003
-1.071076512337e+000 -3.688077880859e+003
-1.080521345139e+000 -3.809903808594e+003
-1.089901804924e+000 -3.931113525391e+003
-1.099300503731e+000 -4.052911865234e+003
-1.108721017838e+000 -4.175305175781e+003
-1.118133664131e+000 -4.298095703125e+003
-1.127550959587e+000 -4.421623046875e+003
-1.137018203735e+000 -4.546576171875e+003
-1.146450757980e+000 -4.672074707031e+003
-1.155866384506e+000 -4.798514648438e+003
-1.165317296982e+000 -4.926867675781e+003
-1.174755930901e+000 -5.056872070313e+003
-1.184224963188e+000 -5.189360351563e+003
-1.193662166595e+000 -5.323681640625e+003
-1.203126549721e+000 -5.460789062500e+003
-1.212595105171e+000 -5.600613769531e+003
-1.221973299980e+000 -5.741977539063e+003
-1.231468677521e+000 -5.887916992188e+003
-1.240875124931e+000 -6.035196777344e+003
-1.250277280807e+000 -6.185034179688e+003
-1.259749770164e+000 -6.338563476563e+003
-1.269178032875e+000 -6.493748535156e+003
-1.278592228889e+000 -6.650908691406e+003
-1.287978649139e+000 -6.809543945313e+003
-1.297334194183e+000 -6.969323730469e+003
-1.306717753410e+000 -7.130896972656e+003
-1.316077947617e+000 -7.293400390625e+003
-1.325499415398e+000 -7.457816894531e+003
-1.334794640541e+000 -7.620640136719e+003
-1.344149351120e+000 -7.784924316406e+003
-1.353492856026e+000 -7.949000976563e+003
-1.362722039223e+000 -8.110986328125e+003
-1.372063159943e+000 -8.274380859375e+003
-1.381298780441e+000 -8.435181640625e+003
-1.390502810478e+000 -8.594454101563e+003
-1.399758338928e+000 -8.753193359375e+003
-1.408978581429e+000 -8.909660156250e+003
-1.418161273003e+000 -9.063411132813e+003
-1.427306771278e+000 -9.214257812500e+003
-1.436436295509e+000 -9.362318359375e+003
-1.445569753647e+000 -9.507543945313e+003
-1.454668760300e+000 -9.649003906250e+003
-1.463730096817e+000 -9.786414062500e+003
-1.472786188126e+000 -9.920349609375e+003
-1.481822967529e+000 -1.005044042969e+004
-1.490811109543e+000 -1.017654785156e+004
-1.499822974205e+000 -1.029961523438e+004
-1.508774399757e+000 -1.041901757813e+004
-1.517672538757e+000 -1.053529980469e+004
-1.526577115059e+000 -1.064989062500e+004
-1.535392522812e+000 -1.076209082031e+004
-1.544211626053e+000 -1.087367773438e+004
-1.553060293198e+000 -1.098565722656e+004
-1.561771869659e+000 -1.109658398438e+004
-1.570538759232e+000 -1.120949121094e+004
-1.579211592674e+000 -1.132292968750e+004
-1.587914705276e+000 -1.143907714844e+004
-1.596563100815e+000 -1.155723925781e+004
-1.605159878731e+000 -1.167772070313e+004
-1.613705158234e+000 -1.180077539063e+004
-1.622281670570e+000 -1.192789062500e+004
-1.630797028542e+000 -1.205803125000e+004
-1.639248728752e+000 -1.219150097656e+004
-1.647732734680e+000 -1.232968652344e+004
-1.656080603600e+000 -1.247003710938e+004
-1.664458870888e+000 -1.261539746094e+004
-1.672857761383e+000 -1.276575781250e+004
-1.681133985519e+000 -1.291853515625e+004
-1.689391732216e+000 -1.307502832031e+004
-1.697620987892e+000 -1.323488378906e+004
-1.705797791481e+000 -1.339708398438e+004
-1.713927984238e+000 -1.356111914063e+004
-1.722069382668e+000 -1.372752343750e+004
-1.730122804642e+000 -1.389325683594e+004
-1.738123297691e+000 -1.405808007813e+004
-1.746116876602e+000 -1.422181933594e+004
-1.754115462303e+000 -1.438368164063e+004
-1.761985898018e+000 -1.453957421875e+004
-1.769853234291e+000 -1.469110058594e+004
-1.777674794197e+000 -1.483622949219e+004
-1.785423994064e+000 -1.497354492188e+004
-1.793184280396e+000 -1.510337402344e+004
-1.800883531570e+000 -1.522350390625e+004
-1.808507442474e+000 -1.533353125000e+004
-1.816069483757e+000 -1.543334082031e+004
-1.823624372482e+000 -1.552338281250e+004
-1.831161260605e+000 -1.560322656250e+004
-1.838617920876e+000 -1.567227929688e+004
-1.846011638641e+000 -1.573166699219e+004
-1.853414297104e+000 -1.578243847656e+004
-1.860751867294e+000 -1.582477148438e+004
-1.868022561073e+000 -1.585942675781e+004
-1.875225186348e+000 -1.588734765625e+004
-1.882438540459e+000 -1.591012597656e+004
-1.889586329460e+000 -1.592856542969e+004
-1.896680951118e+000 -1.594384863281e+004
-1.903710126877e+000 -1.595711132813e+004
-1.910770177841e+000 -1.596979492188e+004
-1.917728543282e+000 -1.598289257813e+004
-1.924631237984e+000 -1.599761718750e+004
-1.931540369987e+000 -1.601520117188e+004
-1.938345789909e+000 -1.603642968750e+004
-1.945191144943e+000 -1.606282714844e+004
-1.951936006546e+000 -1.609436621094e+004
-1.958653688431e+000 -1.613181152344e+004
-1.965282559395e+000 -1.617495312500e+004
-1.971961140633e+000 -1.622485937500e+004
-1.978543281555e+000 -1.628031152344e+004
-1.985075831413e+000 -1.634067187500e+004
-1.991575002670e+000 -1.640526562500e+004
-1.998028159142e+000 -1.647288085938e+004
-2.004436254501e+000 -1.654218750000e+004
-2.010811805725e+000 -1.661171484375e+004
-2.017096996307e+000 -1.667898828125e+004
-2.023398876190e+000 -1.674345507813e+004
-2.029645442963e+000 -1.680262109375e+004
-2.035802602768e+000 -1.685444921875e+004
-2.041977405548e+000 -1.689779882813e+004
-2.048092126846e+000 -1.693087890625e+004
-2.054111003876e+000 -1.695253125000e+004
-2.060154199600e+000 -1.696215820313e+004
-2.066106796265e+000 -1.695858984375e+004
-2.072055101395e+000 -1.694090234375e+004
-2.077925443649e+000 -1.690985351563e+004
-2.083798885345e+000 -1.686523242188e+004
-2.089623451233e+000 -1.680782812500e+004
-2.095366001129e+000 -1.673878320313e+004
-2.101116895676e+000 -1.665776171875e+004
-2.106763839722e+000 -1.656839257813e+004
-2.112427473068e+000 -1.647032031250e+004
-2.118046998978e+000 -1.636619921875e+004
-2.123622179031e+000 -1.625782031250e+004
-2.129152059555e+000 -1.614720312500e+004
-2.134639739990e+000 -1.603644824219e+004
-2.140085697174e+000 -1.592735253906e+004
-2.145549535751e+000 -1.582040820313e+004
-2.150915384293e+000 -1.571957421875e+004
-2.156296968460e+000 -1.562434960938e+004
-2.161616325378e+000 -1.553692578125e+004
-2.166911840439e+000 -1.545739648438e+004
-2.172171354294e+000 -1.538644042969e+004
-2.177454233170e+000 -1.532360742188e+004
-2.182639122009e+000 -1.527024804688e+004
-2.187845945358e+000 -1.522393359375e+004
-2.192966222763e+000 -1.518456542969e+004
-2.198115825653e+000 -1.514983691406e+004
-2.203218221664e+000 -1.511865136719e+004
-2.208256244659e+000 -1.508906933594e+004
-2.213317871094e+000 -1.505831347656e+004
-2.218317747116e+000 -1.502480859375e+004
-2.223311901093e+000 -1.498610253906e+004
-2.228278636932e+000 -1.494025000000e+004
-2.233213663101e+000 -1.488487109375e+004
-2.238121747971e+000 -1.481881933594e+004
-2.243000984192e+000 -1.474087011719e+004
-2.247843027115e+000 -1.465039843750e+004
-2.252694845200e+000 -1.454584277344e+004
-2.257505655289e+000 -1.442760546875e+004
-2.262272357941e+000 -1.429714941406e+004
-2.267042160034e+000 -1.415430371094e+004
-2.271792650223e+000 -1.400089453125e+004
-2.276525259018e+000 -1.383882128906e+004
-2.281188488007e+000 -1.367167773438e+004
-2.285893440247e+000 -1.349853906250e+004
-2.290537118912e+000 -1.332541699219e+004
-2.295171499252e+000 -1.315287695313e+004
-2.299798250198e+000 -1.298321289063e+004
-2.304426908493e+000 -1.281869335938e+004
-2.309000968933e+000 -1.266299707031e+004
-2.313619852066e+000 -1.251428710938e+004
-2.318186998367e+000 -1.237692675781e+004
-2.322751760483e+000 -1.225009472656e+004
-2.327313661575e+000 -1.213487500000e+004
-2.331843137741e+000 -1.203133496094e+004
-2.336377620697e+000 -1.193808789063e+004
-2.340916156769e+000 -1.185453222656e+004
-2.345419883728e+000 -1.178030078125e+004
-2.349916458130e+000 -1.171402636719e+004
-2.354435443878e+000 -1.165337695313e+004
-2.358910322189e+000 -1.159762304688e+004
-2.363379716873e+000 -1.154458593750e+004
-2.367844820023e+000 -1.149266894531e+004
-2.372313976288e+000 -1.144007519531e+004
-2.376778125763e+000 -1.138538183594e+004
-2.381237268448e+000 -1.132722460938e+004
-2.385700941086e+000 -1.126433886719e+004
-2.390141487122e+000 -1.119609570313e+004
-2.394587039948e+000 -1.112094140625e+004
-2.399030208588e+000 -1.103873535156e+004
-2.403470754623e+000 -1.094920800781e+004
-2.407909631729e+000 -1.085238085938e+004
-2.412346839905e+000 -1.074865136719e+004
-2.416770696640e+000 -1.063890527344e+004
-2.421198129654e+000 -1.052446777344e+004
-2.425631046295e+000 -1.040700683594e+004
-2.430073499680e+000 -1.028828125000e+004
-2.434492111206e+000 -1.017115429688e+004
-2.438927650452e+000 -1.005655859375e+004
-2.443354368210e+000 -9.946699218750e+003
-2.447815418243e+000 -9.842053710938e+003
-2.452256441116e+000 -9.745071289063e+003
-2.456692695618e+000 -9.656292968750e+003
-2.461163520813e+000 -9.576127929688e+003
-2.465634822845e+000 -9.505167968750e+003
-2.470089197159e+000 -9.443716796875e+003
-2.474562883377e+000 -9.391170898438e+003
-2.479041099548e+000 -9.347589843750e+003
-2.483561992645e+000 -9.312780273438e+003
-2.488062620163e+000 -9.286407226563e+003
-2.492562532425e+000 -9.267638671875e+003
-2.497067928314e+000 -9.255804687500e+003
-2.501578569412e+000 -9.250345703125e+003
-2.506093263626e+000 -9.251196289063e+003
-2.510611772537e+000 -9.257916992188e+003
-2.515181779861e+000 -9.270498046875e+003
-2.519708395004e+000 -9.288720703125e+003
-2.524286746979e+000 -9.313299804688e+003
-2.528839826584e+000 -9.344751953125e+003
-2.533420324326e+000 -9.383670898438e+003
-2.538036823273e+000 -9.430409179688e+003
-2.542658329010e+000 -9.484690429688e+003
-2.547293663025e+000 -9.546291992188e+003
-2.551942110062e+000 -9.614996093750e+003
-2.556647062302e+000 -9.690440429688e+003
-2.561367511749e+000 -9.771176757813e+003
-2.566131591797e+000 -9.856776367188e+003
-2.570938348770e+000 -9.946235351563e+003
-2.575790166855e+000 -1.003872851563e+004
-2.580679893494e+000 -1.013327246094e+004
-2.585610389709e+000 -1.022926953125e+004
-2.590620279312e+000 -1.032708496094e+004
-2.595639705658e+000 -1.042488476563e+004
-2.600687742233e+000 -1.052297167969e+004
-2.605802536011e+000 -1.062303320313e+004
-2.610923767090e+000 -1.072502734375e+004
-2.616060733795e+000 -1.082996289063e+004
-2.621245622635e+000 -1.093962597656e+004
-2.626395463943e+000 -1.105387890625e+004
-2.631546974182e+000 -1.117470507813e+004
-2.636696100235e+000 -1.130225292969e+004
-2.641823530197e+000 -1.143561816406e+004
-2.646965980530e+000 -1.157482421875e+004
-2.652040958405e+000 -1.171661328125e+004
-2.657097101212e+000 -1.186044824219e+004
-2.662125587463e+000 -1.200398730469e+004
-2.667119264603e+000 -1.214484472656e+004
-2.672081708908e+000 -1.228145507813e+004
-2.676969289780e+000 -1.241117968750e+004
-2.681847333908e+000 -1.253586816406e+004
-2.686675071716e+000 -1.265588378906e+004
-2.691447496414e+000 -1.277342871094e+004
-2.696190118790e+000 -1.289177441406e+004
-2.700884580612e+000 -1.301274121094e+004
-2.705557584763e+000 -1.313815332031e+004
-2.710165262222e+000 -1.326642578125e+004
-2.714731931686e+000 -1.339725390625e+004
-2.719257354736e+000 -1.352943945313e+004
-2.723751783371e+000 -1.366189160156e+004
-2.728209972382e+000 -1.379248925781e+004
-2.732620954514e+000 -1.391934765625e+004
-2.737003087997e+000 -1.404220312500e+004
-2.741351604462e+000 -1.416035253906e+004
-2.745641708374e+000 -1.427532128906e+004
-2.749890089035e+000 -1.438748632813e+004
-2.754155874252e+000 -1.450020800781e+004
-2.758343219757e+000 -1.461216601563e+004
-2.762503385544e+000 -1.472732226563e+004
-2.766595602036e+000 -1.484528027344e+004
-2.770669937134e+000 -1.496760449219e+004
-2.774724721909e+000 -1.509446093750e+004
-2.778721332550e+000 -1.522324316406e+004
-2.782685041428e+000 -1.535494042969e+004
-2.786586761475e+000 -1.548924609375e+004
-2.790479898453e+000 -1.562668750000e+004
-2.794331550598e+000 -1.576630566406e+004
-2.798128366470e+000 -1.590697851563e+004
-2.801912784576e+000 -1.605194726563e+004
-2.805611371994e+000 -1.619565136719e+004
-2.809306621552e+000 -1.634004687500e+004
-2.812926769257e+000 -1.647876562500e+004
-2.816536664963e+000 -1.661114257813e+004
-2.820090770721e+000 -1.673418359375e+004
-2.823605298996e+000 -1.684528710938e+004
-2.827059030533e+000 -1.694460742188e+004
-2.830486297607e+000 -1.703484765625e+004
-2.833871364594e+000 -1.711961914063e+004
-2.837184190750e+000 -1.719992382813e+004
-2.840476512909e+000 -1.727936914063e+004
-2.843703746796e+000 -1.735717382813e+004
-2.846900939941e+000 -1.743541796875e+004
-2.850021600723e+000 -1.751165820313e+004
-2.853121519089e+000 -1.758590234375e+004
-2.856145143509e+000 -1.765633789063e+004
-2.859117746353e+000 -1.772325781250e+004
-2.862055540085e+000 -1.778873828125e+004
-2.864931583405e+000 -1.785372851563e+004
-2.867758512497e+000 -1.791955078125e+004
-2.870540618896e+000 -1.798878906250e+004
-2.873253583908e+000 -1.806091796875e+004
-2.875916004181e+000 -1.813650000000e+004
-2.878530263901e+000 -1.821394726563e+004
-2.881093025208e+000 -1.829299804688e+004
-2.883602142334e+000 -1.837127148438e+004
-2.886061429977e+000 -1.844720507813e+004
-2.888456344604e+000 -1.851930273438e+004
-2.890809535980e+000 -1.859015625000e+004
-2.893106698990e+000 -1.866035937500e+004
-2.895328283310e+000 -1.873015039063e+004
-2.897511720657e+000 -1.880013281250e+004
-2.899637937546e+000 -1.886967382813e+004
-2.901699781418e+000 -1.893737109375e+004
-2.903718948364e+000 -1.900301953125e+004
-2.905667304993e+000 -1.906444140625e+004
-2.907558202744e+000 -1.912054687500e+004
-2.909386634827e+000 -1.917096093750e+004
-2.911162614822e+000 -1.921498046875e+004
-2.912877321243e+000 -1.925280273438e+004
-2.914547443390e+000 -1.928493750000e+004
-2.916144132614e+000 -1.931044531250e+004
-2.917687892914e+000 -1.933000000000e+004
-2.919166326523e+000 -1.934358398438e+004
-2.920598983765e+000 -1.935177343750e+004
-2.921973943710e+000 -1.935434179688e+004
-2.923277854919e+000 -1.935158789063e+004
-2.924528837204e+000 -1.934542187500e+004
-2.925720214844e+000 -1.933833007813e+004
-2.926847457886e+000 -1.933240429688e+004
-2.927915096283e+000 -1.932901562500e+004
-2.928924560547e+000 -1.932979687500e+004
-2.929872274399e+000 -1.933636523438e+004
-2.930762529373e+000 -1.934923632813e+004
-2.931587219238e+000 -1.936713867188e+004
-2.932348489761e+000 -1.938815820313e+004
-2.933053016663e+000 -1.941091406250e+004
-2.933693408966e+000 -1.943288281250e+004
-2.934273719788e+000 -1.945171875000e+004
-2.934793233871e+000 -1.946529101563e+004
-2.935250520706e+000 -1.947314257813e+004
-2.935639858246e+000 -1.947627539063e+004
-2.935969352722e+000 -1.947493945313e+004
-2.936235427856e+000 -1.946857031250e+004
-2.936439275742e+000 -1.945794531250e+004
-2.936581611633e+000 -1.944479882813e+004
-2.936656951904e+000 -1.943066015625e+004
-2.936670064926e+000 -1.941491406250e+004
-2.936619520187e+000 -1.939713476563e+004
-2.936506271362e+000 -1.937880664063e+004
-2.936327695847e+000 -1.936045117188e+004
-2.936083078384e+000 -1.933996484375e+004
-2.935774564743e+000 -1.931453320313e+004
-2.935403108597e+000 -1.928321679688e+004
-2.934966802597e+000 -1.924615039063e+004
-2.934467554092e+000 -1.920283593750e+004
-2.933898448944e+000 -1.915211328125e+004
-2.933269262314e+000 -1.909450390625e+004
-2.932579040527e+000 -1.903189648438e+004
-2.931827068329e+000 -1.896439062500e+004
-2.931019783020e+000 -1.889163085938e+004
-2.930147171021e+000 -1.881409375000e+004
-2.929220676422e+000 -1.873598046875e+004
-2.928235769272e+000 -1.866164843750e+004
-2.927185535431e+000 -1.859256054688e+004
-2.926080703735e+000 -1.852957226563e+004
-2.924910306931e+000 -1.847069921875e+004
-2.923685789108e+000 -1.841679296875e+004
-2.922392845154e+000 -1.836693164063e+004
-2.921044111252e+000 -1.832067187500e+004
-2.919632673264e+000 -1.827629101563e+004
-2.918166399002e+000 -1.823244140625e+004
-2.916625976563e+000 -1.818617578125e+004
-2.915040016174e+000 -1.813676953125e+004
-2.913399219513e+000 -1.808240820313e+004
-2.911685943604e+000 -1.802323828125e+004
-2.909919261932e+000 -1.795985742188e+004
-2.908103466034e+000 -1.789318750000e+004
-2.906230449677e+000 -1.782397656250e+004
-2.904293060303e+000 -1.775342773438e+004
-2.902310609818e+000 -1.768161718750e+004
-2.900268793106e+000 -1.760800781250e+004
-2.898175001144e+000 -1.753235546875e+004
-2.896022081375e+000 -1.745360742188e+004
-2.893824100494e+000 -1.737155273438e+004
-2.891570806503e+000 -1.728423242188e+004
-2.889260053635e+000 -1.719171679688e+004
-2.886885404587e+000 -1.709439257813e+004
-2.884477853775e+000 -1.699579101563e+004
-2.882001399994e+000 -1.689452148438e+004
-2.879472732544e+000 -1.678952734375e+004
-2.876914739609e+000 -1.668203320313e+004
-2.874287128448e+000 -1.657049804688e+004
-2.871622323990e+000 -1.645505859375e+004
-2.868917942047e+000 -1.633617480469e+004
-2.866153478622e+000 -1.621441503906e+004
-2.863347768784e+000 -1.609125292969e+004
-2.860500097275e+000 -1.596718750000e+004
-2.857597351074e+000 -1.584255273438e+004
-2.854656696320e+000 -1.571828613281e+004
-2.851657390594e+000 -1.559746875000e+004
-2.848627805710e+000 -1.548250976563e+004
-2.845540046692e+000 -1.537343164063e+004
-2.842415332794e+000 -1.527101953125e+004
-2.839255332947e+000 -1.517490332031e+004
-2.836039066315e+000 -1.508361035156e+004
-2.832800626755e+000 -1.499522167969e+004
-2.829491853714e+000 -1.490606347656e+004
-2.826160192490e+000 -1.481594433594e+004
-2.822776794434e+000 -1.472222363281e+004
-2.819354295731e+000 -1.462255371094e+004
-2.815901517868e+000 -1.451514062500e+004
-2.812421560287e+000 -1.439971289063e+004
-2.808895111084e+000 -1.427665234375e+004
-2.805313587189e+000 -1.414532617188e+004
-2.801721096039e+000 -1.400916308594e+004
-2.798092126846e+000 -1.386664550781e+004
-2.794416904449e+000 -1.372091308594e+004
-2.790704488754e+000 -1.357386230469e+004
-2.786967277527e+000 -1.342517480469e+004
-2.783201456070e+000 -1.327584082031e+004
-2.779416322708e+000 -1.312763769531e+004
-2.775575399399e+000 -1.298177343750e+004
-2.771731138229e+000 -1.284075878906e+004
-2.767849683762e+000 -1.270402832031e+004
-2.763941526413e+000 -1.257300097656e+004
-2.760003805161e+000 -1.244702539063e+004
-2.756062030792e+000 -1.232514843750e+004
-2.752076387405e+000 -1.220127539063e+004
-2.748057842255e+000 -1.207535449219e+004
-2.744025945663e+000 -1.194677246094e+004
-2.739984035492e+000 -1.181426269531e+004
-2.735890626907e+000 -1.167560449219e+004
-2.731774330139e+000 -1.153200585938e+004
-2.727673053741e+000 -1.138748242188e+004
-2.723526000977e+000 -1.124046679688e+004
-2.719354629517e+000 -1.109224707031e+004
-2.715168714523e+000 -1.094311718750e+004
-2.710971355438e+000 -1.079447753906e+004
-2.706739187241e+000 -1.064646191406e+004
-2.702544450760e+000 -1.050191406250e+004
-2.698291778564e+000 -1.035447949219e+004
-2.694028139114e+000 -1.020501660156e+004
-2.689772367477e+000 -1.005156640625e+004
-2.685503721237e+000 -9.892379882813e+003
-2.681201934814e+000 -9.727669921875e+003
-2.676934242249e+000 -9.564285156250e+003
-2.672625780106e+000 -9.399213867188e+003
-2.668296575546e+000 -9.234713867188e+003
-2.663983345032e+000 -9.073989257813e+003
-2.659674167633e+000 -8.918387695313e+003
-2.655323982239e+000 -8.770135742188e+003
-2.651006937027e+000 -8.631228515625e+003
-2.646661281586e+000 -8.499436523438e+003
-2.642314910889e+000 -8.375582031250e+003
-2.637978792191e+000 -8.259034179688e+003
-2.633641242981e+000 -8.147703125000e+003
-2.629290819168e+000 -8.038720703125e+003
-2.624926805496e+000 -7.930770019531e+003
-2.620577812195e+000 -7.823905761719e+003
-2.616253376007e+000 -7.717291503906e+003
-2.611875534058e+000 -7.605697265625e+003
-2.607538461685e+000 -7.489222167969e+003
-2.603193521500e+000 -7.364546875000e+003
-2.598826646805e+000 -7.226983398438e+003
-2.594484329224e+000 -7.074976562500e+003
-2.590142726898e+000 -6.904258300781e+003
-2.585805416107e+000 -6.716148925781e+003
-2.581507921219e+000 -6.513872070313e+003
-2.577176332474e+000 -6.297164062500e+003
-2.572884082794e+000 -6.074616699219e+003
-2.568566799164e+000 -5.849027343750e+003
-2.564293861389e+000 -5.630907226563e+003
-2.560030937195e+000 -5.424157714844e+003
-2.555754184723e+000 -5.231425292969e+003
-2.551517248154e+000 -5.059360351563e+003
-2.547286033630e+000 -4.909303710938e+003
-2.543062686920e+000 -4.779155761719e+003
-2.538875341415e+000 -4.666094726563e+003
-2.534677267075e+000 -4.566149902344e+003
-2.530515909195e+000 -4.475759765625e+003
-2.526379108429e+000 -4.389424804688e+003
-2.522241830826e+000 -4.302439453125e+003
-2.518107891083e+000 -4.215740722656e+003
-2.514008045197e+000 -4.132348144531e+003
-2.509904384613e+000 -4.051848876953e+003
-2.505849123001e+000 -3.970127441406e+003
-2.501798629761e+000 -3.879797607422e+003
-2.497771024704e+000 -3.775172363281e+003
-2.493752241135e+000 -3.651567871094e+003
-2.489761352539e+000 -3.508466064453e+003
-2.485760927200e+000 -3.352193603516e+003
-2.481785535812e+000 -3.194217773438e+003
-2.477826595306e+000 -3.042468994141e+003
-2.473856925964e+000 -2.898011474609e+003
-2.469926357269e+000 -2.760228515625e+003
-2.466001033783e+000 -2.628199462891e+003
-2.462101697922e+000 -2.503816650391e+003
-2.458190202713e+000 -2.387254150391e+003
-2.454308032990e+000 -2.279264160156e+003
-2.450406312943e+000 -2.178309814453e+003
-2.446557998657e+000 -2.084815917969e+003
-2.442672967911e+000 -1.997548950195e+003
-2.438818454742e+000 -1.921965698242e+003
-2.435009241104e+000 -1.861453979492e+003
-2.431160211563e+000 -1.815164062500e+003
-2.427338361740e+000 -1.781359741211e+003
-2.423539638519e+000 -1.756588989258e+003
-2.419741868973e+000 -1.736960449219e+003
-2.415963888168e+000 -1.717462768555e+003
-2.412216186523e+000 -1.693604858398e+003
-2.408467769623e+000 -1.662635253906e+003
-2.404758691788e+000 -1.624614135742e+003
-2.401012897491e+000 -1.576317382813e+003
-2.397330522537e+000 -1.515594360352e+003
-2.393648624420e+000 -1.436591064453e+003
-2.390007972717e+000 -1.336634399414e+003
-2.386358261108e+000 -1.211157592773e+003
-2.382740020752e+000 -1.067297607422e+003
-2.379120349884e+000 -9.144358520508e+002
-2.375528573990e+000 -7.631969604492e+002
-2.371967792511e+000 -6.174558105469e+002
-2.368429183960e+000 -4.806875915527e+002
-2.364915847778e+000 -3.605885925293e+002
-2.361408472061e+000 -2.621886596680e+002
-2.357941627502e+000 -1.877746582031e+002
-2.354495525360e+000 -1.404511413574e+002
-2.351050138474e+000 -1.303652191162e+002
-2.347658395767e+000 -1.604882507324e+002
-2.344261407852e+000 -2.172014617920e+002
-2.340906858444e+000 -2.763644409180e+002
-2.337580919266e+000 -3.257892761230e+002
-2.334252119064e+000 -3.692647094727e+002
-2.330969333649e+000 -4.093474731445e+002
-2.327688694000e+000 -4.399178771973e+002
-2.324446201324e+000 -4.546531677246e+002
-2.321189165115e+000 -4.543440246582e+002
-2.317998170853e+000 -4.393845825195e+002
-2.314795494080e+000 -4.035044250488e+002
-2.311631679535e+000 -3.453522033691e+002
-2.308466196060e+000 -2.747522277832e+002
-2.305344820023e+000 -2.107221984863e+002
-2.302260398865e+000 -1.638360900879e+002
-2.299185752869e+000 -1.323082885742e+002
-2.296126842499e+000 -1.161477584839e+002
-2.293089866638e+000 -1.201474227905e+002
-2.290093183517e+000 -1.506470184326e+002
-2.287118434906e+000 -2.059424591064e+002
-2.284173965454e+000 -2.792592163086e+002
-2.281244993210e+000 -3.693749084473e+002
-2.278360128403e+000 -4.773900146484e+002
-2.275473833084e+000 -6.029277954102e+002
-2.272632837296e+000 -7.356396484375e+002
-2.269823551178e+000 -8.690985107422e+002
-2.267053127289e+000 -1.002206726074e+003
-2.264298200607e+000 -1.137277343750e+003
-2.261567592621e+000 -1.275292236328e+003
-2.258876085281e+000 -1.408513671875e+003
-2.256188869476e+000 -1.531788085938e+003
-2.253539085388e+000 -1.636160644531e+003
-2.250916957855e+000 -1.721249755859e+003
-2.248322010040e+000 -1.794439453125e+003
-2.245755910873e+000 -1.861633544922e+003
-2.243190526962e+000 -1.921591918945e+003
-2.240677833557e+000 -1.969703735352e+003
-2.238166093826e+000 -2.008835571289e+003
-2.235684156418e+000 -2.045148437500e+003
-2.233239173889e+000 -2.083353759766e+003
-2.230804681778e+000 -2.129611816406e+003
-2.228412628174e+000 -2.193858154297e+003
-2.226013898849e+000 -2.288684326172e+003
-2.223658800125e+000 -2.417951171875e+003
-2.221336603165e+000 -2.577160156250e+003
-2.219011306763e+000 -2.761246582031e+003
-2.216731786728e+000 -2.960814697266e+003
-2.214456319809e+000 -3.173107177734e+003
-2.212215185165e+000 -3.388640625000e+003
-2.209972858429e+000 -3.605104003906e+003
-2.207762002945e+000 -3.814405029297e+003
-2.205575704575e+000 -4.015345458984e+003
-2.203412294388e+000 -4.206645019531e+003
-2.201257228851e+000 -4.389548339844e+003
-2.199118375778e+000 -4.561874023438e+003
-2.197003841400e+000 -4.723729980469e+003
-2.194909095764e+000 -4.880867187500e+003
-2.192818164825e+000 -5.042784667969e+003
-2.190754413605e+000 -5.210379882813e+003
-2.188700199127e+000 -5.379813476563e+003
-2.186658859253e+000 -5.551592773438e+003
-2.184631347656e+000 -5.735575683594e+003
-2.182608127594e+000 -5.941987304688e+003
-2.180610418320e+000 -6.172160644531e+003
-2.178598165512e+000 -6.425931152344e+003
-2.176615476608e+000 -6.691997558594e+003
-2.174621343613e+000 -6.968496582031e+003
-2.172646284103e+000 -7.242696289063e+003
-2.170659542084e+000 -7.509497070313e+003
-2.168692111969e+000 -7.763107421875e+003
-2.166730165482e+000 -8.008783203125e+003
-2.164762258530e+000 -8.243011718750e+003
-2.162805795670e+000 -8.463820312500e+003
-2.160829067230e+000 -8.679211914063e+003
-2.158863782883e+000 -8.896451171875e+003
-2.156908988953e+000 -9.117757812500e+003
-2.154930114746e+000 -9.344008789063e+003
-2.152975320816e+000 -9.567924804688e+003
-2.151003599167e+000 -9.797103515625e+003
-2.149026632309e+000 -1.002452929688e+004
-2.147044181824e+000 -1.024546972656e+004
-2.145067930222e+000 -1.045406542969e+004
-2.143076181412e+000 -1.065246777344e+004
-2.141075372696e+000 -1.084141308594e+004
-2.139076948166e+000 -1.101707617188e+004
-2.137068510056e+000 -1.118371191406e+004
-2.135046005249e+000 -1.134587402344e+004
-2.133008241653e+000 -1.150888378906e+004
-2.130966663361e+000 -1.167698046875e+004
-2.128910064697e+000 -1.185395507813e+004
-2.126822948456e+000 -1.204439843750e+004
-2.124732255936e+000 -1.225144628906e+004
-2.122636079788e+000 -1.247379199219e+004
-2.120516300201e+000 -1.270710253906e+004
-2.118367195129e+000 -1.294929492188e+004
-2.116214990616e+000 -1.319065039063e+004
-2.114026784897e+000 -1.343031835938e+004
-2.111833572388e+000 -1.365932421875e+004
-2.109601497650e+000 -1.387513281250e+004
-2.107366085052e+000 -1.407305761719e+004
-2.105095148087e+000 -1.425673242188e+004
-2.102802276611e+000 -1.442521093750e+004
-2.100476264954e+000 -1.457971093750e+004
-2.098115921021e+000 -1.472099218750e+004
-2.095752954483e+000 -1.484648828125e+004
-2.093338251114e+000 -1.495913574219e+004
-2.090902805328e+000 -1.506164843750e+004
-2.088442087173e+000 -1.516211914063e+004
-2.085945844650e+000 -1.527088476563e+004
-2.083410024643e+000 -1.539619335938e+004
-2.080850839615e+000 -1.554217285156e+004
-2.078263759613e+000 -1.571496777344e+004
-2.075636148453e+000 -1.591600390625e+004
-2.072970390320e+000 -1.613880761719e+004
-2.070267677307e+000 -1.637872851563e+004
-2.067542791367e+000 -1.662789062500e+004
-2.064782619476e+000 -1.688204101563e+004
-2.061977386475e+000 -1.712518945313e+004
-2.059133291245e+000 -1.734118359375e+004
-2.056253433228e+000 -1.752155078125e+004
-2.053335428238e+000 -1.767214843750e+004
-2.050356626511e+000 -1.779543750000e+004
-2.047326564789e+000 -1.789022070313e+004
-2.044272899628e+000 -1.795881054688e+004
-2.041176319122e+000 -1.800855468750e+004
-2.038015365601e+000 -1.804658203125e+004
-2.034823656082e+000 -1.807500195313e+004
-2.031578779221e+000 -1.810054687500e+004
-2.028264999390e+000 -1.813557226563e+004
-2.024924755096e+000 -1.818707812500e+004
-2.021532773972e+000 -1.824718750000e+004
-2.018083810806e+000 -1.830800195313e+004
-2.014602661133e+000 -1.836867773438e+004
-2.011053562164e+000 -1.843141992188e+004
-2.007467985153e+000 -1.848935546875e+004
-2.003792762756e+000 -1.853443945313e+004
-2.000097990036e+000 -1.856751562500e+004
-1.996352076530e+000 -1.859471289063e+004
-1.992536783218e+000 -1.861567187500e+004
-1.988706946373e+000 -1.862336718750e+004
-1.984783411026e+000 -1.861955078125e+004
-1.980828404427e+000 -1.861278125000e+004
-1.976836681366e+000 -1.861136328125e+004
-1.972776651382e+000 -1.862099414063e+004
-1.968659281731e+000 -1.864995312500e+004
-1.964488983154e+000 -1.870373242188e+004
-1.960232496262e+000 -1.877983593750e+004
-1.955958604813e+000 -1.886488085938e+004
-1.951607823372e+000 -1.894613671875e+004
-1.947221755981e+000 -1.901412304688e+004
-1.942767262459e+000 -1.906346875000e+004
-1.938271760941e+000 -1.908715039063e+004
-1.933712720871e+000 -1.908421289063e+004
-1.929112911224e+000 -1.906394531250e+004
-1.924435257912e+000 -1.904097265625e+004
-1.919712424278e+000 -1.902225000000e+004
-1.914962887764e+000 -1.900603906250e+004
-1.910120248795e+000 -1.899009375000e+004
-1.905228257179e+000 -1.897373632813e+004
-1.900311470032e+000 -1.895195703125e+004
-1.895284891129e+000 -1.891487500000e+004
-1.890140175819e+000 -1.885751171875e+004
-1.884928584099e+000 -1.878418359375e+004
-1.879596948624e+000 -1.870031640625e+004
-1.874078392982e+000 -1.860695507813e+004
-1.868447661400e+000 -1.850868359375e+004
-1.862625360489e+000 -1.841055859375e+004
-1.856661081314e+000 -1.831778906250e+004
-1.850632190704e+000 -1.823093164063e+004
-1.844542860985e+000 -1.814410742188e+004
-1.838531494141e+000 -1.805813281250e+004
-1.832794547081e+000 -1.797779101563e+004
-1.827407240868e+000 -1.790273828125e+004
-1.822702407837e+000 -1.783458984375e+004
-1.818845868111e+000 -1.777579296875e+004
-1.815996885300e+000 -1.773367773438e+004
-1.814235568047e+000 -1.771101953125e+004
-1.813438177109e+000 -1.770271679688e+004
-1.813283443451e+000 -1.770139257813e+004
endcurve
