Curveplot
LS-DYNA keyword deck by LS-PrePost
Abscissa
Ordinate
XY data
NBDLHeadzCoo-1 #pts=2000
* Minval=    -5.6266899109e+01 at time=       173.4010009766
* Maxval=     1.5358110046e+02 at time=         0.0000000000
    0.0000000000e+00    1.5358110046e+02
    9.9644668400e-02    1.5358110046e+02
    1.9928933680e-01    1.5358110046e+02
    2.9893401265e-01    1.5358110046e+02
    3.9857867360e-01    1.5358110046e+02
    4.9822333455e-01    1.5358110046e+02
    5.9964740276e-01    1.5358110046e+02
    6.9929206371e-01    1.5358110046e+02
    7.9893672466e-01    1.5358110046e+02
    8.9858138561e-01    1.5358110046e+02
    9.9822604656e-01    1.5358110046e+02
    1.0996501446e+00    1.5358110046e+02
    1.1992948055e+00    1.5358110046e+02
    1.2989393473e+00    1.5358110046e+02
    1.3985841274e+00    1.5358110046e+02
    1.4982287884e+00    1.5358110046e+02
    1.5996527672e+00    1.5358110046e+02
    1.6992975473e+00    1.5358110046e+02
    1.7989420891e+00    1.5358110046e+02
    1.8985867500e+00    1.5358110046e+02
    1.9982315302e+00    1.5358110046e+02
    2.0996553898e+00    1.5358110046e+02
    2.1993002892e+00    1.5358110046e+02
    2.2991647720e+00    1.5358110046e+02
    2.3999791145e+00    1.5358110046e+02
    2.4998238087e+00    1.5358110046e+02
    2.5985286236e+00    1.5358110046e+02
    2.6996932030e+00    1.5358110046e+02
    2.7987484932e+00    1.5358110046e+02
    2.8991234303e+00    1.5358110046e+02
    2.9988389015e+00    1.5358110046e+02
    3.0993437767e+00    1.5358110046e+02
    3.1982891560e+00    1.5358110046e+02
    3.2986841202e+00    1.5358110046e+02
    3.3985090256e+00    1.5358110046e+02
    3.4990139008e+00    1.5358110046e+02
    3.5989487171e+00    1.5358110046e+02
    3.6982440948e+00    1.5358110046e+02
    3.7990787029e+00    1.5358110046e+02
    3.8992338181e+00    1.5358110046e+02
    3.9990787506e+00    1.5358110046e+02
    4.0995831490e+00    1.5358110046e+02
    4.1991882324e+00    1.5358110046e+02
    4.2982439995e+00    1.5358110046e+02
    4.3992090225e+00    1.5358110046e+02
    4.4982638359e+00    1.5358110046e+02
    4.5990986824e+00    1.5358110046e+02
    4.6996035576e+00    1.5358110046e+02
    4.7982192039e+00    1.5358110046e+02
    4.8989439011e+00    1.5358110046e+02
    4.9996685982e+00    1.5358110046e+02
    5.0981740952e+00    1.5358110046e+02
    5.1987695694e+00    1.5358110046e+02
    5.2993845940e+00    1.5358110046e+02
    5.3986601830e+00    1.5358110046e+02
    5.4982647896e+00    1.5358110046e+02
    5.5995392799e+00    1.5358110046e+02
    5.6992545128e+00    1.5358110046e+02
    5.7985301018e+00    1.5358110046e+02
    5.8985748291e+00    1.5358110046e+02
    5.9991698265e+00    1.5358110046e+02
    6.0995655060e+00    1.5358110046e+02
    6.1991906166e+00    1.5358110046e+02
    6.2996954918e+00    1.5358110046e+02
    6.3995203972e+00    1.5358110046e+02
    6.4997854233e+00    1.5358110046e+02
    6.5985112190e+00    1.5358110046e+02
    6.6983561516e+00    1.5358110046e+02
    6.7989516258e+00    1.5358110046e+02
    6.8997864723e+00    1.5358110046e+02
    6.9984021187e+00    1.5358110046e+02
    7.0992369652e+00    1.5358110046e+02
    7.1996116638e+00    1.5358110046e+02
    7.2995667458e+00    1.5358110046e+02
    7.3994121552e+00    1.5358110046e+02
    7.4983568192e+00    1.5358110046e+02
    7.5997409821e+00    1.5358110046e+02
    7.6982269287e+00    1.5358110046e+02
    7.7989516258e+00    1.5358110046e+02
    7.8984465599e+00    1.5358110046e+02
    7.9985113144e+00    1.5358110046e+02
    8.0993261337e+00    1.5358110046e+02
    8.1996107101e+00    1.5358110046e+02
    8.2989959717e+00    1.5358110046e+02
    8.3987312317e+00    1.5358110046e+02
    8.4988861084e+00    1.5358110046e+02
    8.5991506577e+00    1.5358110046e+02
    8.6983165741e+00    1.5358110046e+02
    8.7998313904e+00    1.5358110046e+02
    8.8985576630e+00    1.5358110046e+02
    8.9982719421e+00    1.5358110046e+02
    9.0989971161e+00    1.5358110046e+02
    9.1992816925e+00    1.5358110046e+02
    9.2983369827e+00    1.5358110046e+02
    9.3989324570e+00    1.5358110046e+02
    9.4987773895e+00    1.5358110046e+02
    9.5998325348e+00    1.5358110046e+02
    9.6990175247e+00    1.5358110046e+02
    9.7997226715e+00    1.5358110046e+02
    9.8991279602e+00    1.5358110046e+02
    9.9997425079e+00    1.5358110046e+02
    1.0098797798e+01    1.5358110046e+02
    1.0199743271e+01    1.5358110046e+02
    1.0299807549e+01    1.5358110046e+02
    1.0399191856e+01    1.5358110046e+02
    1.0499917030e+01    1.5358110046e+02
    1.0598423004e+01    1.5358110046e+02
    1.0699477196e+01    1.5358110046e+02
    1.0798642159e+01    1.5358110046e+02
    1.0899147987e+01    1.5358110046e+02
    1.0998312950e+01    1.5358110046e+02
    1.1098817825e+01    1.5358110046e+02
    1.1198533058e+01    1.5358110046e+02
    1.1298357964e+01    1.5358110046e+02
    1.1399083138e+01    1.5358110046e+02
    1.1499808311e+01    1.5358110046e+02
    1.1598314285e+01    1.5358110046e+02
    1.1699588776e+01    1.5358110046e+02
    1.1798315048e+01    1.5358110046e+02
    1.1898819923e+01    1.5358110046e+02
    1.1999085426e+01    1.5358110046e+02
    1.2099809647e+01    1.5358110046e+02
    1.2199215889e+01    1.5358110046e+02
    1.2299261093e+01    1.5358110046e+02
    1.2399875641e+01    1.5358110046e+02
    1.2499482155e+01    1.5358110046e+02
    1.2598997116e+01    1.5358110046e+02
    1.2699261665e+01    1.5358110046e+02
    1.2799878120e+01    1.5358110046e+02
    1.2898733139e+01    1.5358110046e+02
    1.2998888016e+01    1.5358110046e+02
    1.3099593163e+01    1.5358110046e+02
    1.3199768066e+01    1.5358110046e+02
    1.3299593925e+01    1.5358110046e+02
    1.3398980141e+01    1.5358110046e+02
    1.3498934746e+01    1.5358110046e+02
    1.3599769592e+01    1.5358110046e+02
    1.3698386192e+01    1.5358110046e+02
    1.3798871040e+01    1.5358110046e+02
    1.3899065971e+01    1.5358110046e+02
    1.3999900818e+01    1.5358110046e+02
    1.4098406792e+01    1.5358110046e+02
    1.4199131966e+01    1.5358110046e+02
    1.4298538208e+01    1.5358110046e+02
    1.4398273468e+01    1.5358110046e+02
    1.4499217033e+01    1.5358110046e+02
    1.4598822594e+01    1.5358110046e+02
    1.4699988365e+01    1.5358110046e+02
    1.4799942970e+01    1.5358110046e+02
    1.4898998260e+01    1.5358110046e+02
    1.4999922752e+01    1.5358110046e+02
    1.5099529266e+01    1.5358110046e+02
    1.5198494911e+01    1.5358110046e+02
    1.5299328804e+01    1.5358110046e+02
    1.5398824692e+01    1.5358110046e+02
    1.5498999596e+01    1.5358110046e+02
    1.5598715782e+01    1.5358110046e+02
    1.5700010300e+01    1.5358110046e+02
    1.5799176216e+01    1.5358110046e+02
    1.5898800850e+01    1.5358110046e+02
    1.5999416351e+01    1.5358110046e+02
    1.6099790573e+01    1.5358110046e+02
    1.6199945450e+01    1.5358110046e+02
    1.6299900055e+01    1.5358110046e+02
    1.6398296356e+01    1.5358110046e+02
    1.6500011444e+01    1.5358110046e+02
    1.6599306107e+01    1.5358110046e+02
    1.6699020386e+01    1.5358110046e+02
    1.6798295975e+01    1.5358110046e+02
    1.6898691177e+01    1.5358110046e+02
    1.6998975754e+01    1.5358110046e+02
    1.7099700928e+01    1.5358110046e+02
    1.7198406219e+01    1.5358110046e+02
    1.7298910141e+01    1.5358110046e+02
    1.7399524689e+01    1.5358110046e+02
    1.7498689651e+01    1.5358110046e+02
    1.7599744797e+01    1.5358110046e+02
    1.7698358536e+01    1.5358110046e+02
    1.7799982071e+01    1.5358110046e+02
    1.7899366379e+01    1.5358110046e+02
    1.7998420715e+01    1.5358110046e+02
    1.8098266602e+01    1.5358110046e+02
    1.8199871063e+01    1.5358110046e+02
    1.8299825668e+01    1.5358110046e+02
    1.8398330688e+01    1.5358110046e+02
    1.8499273300e+01    1.5358110046e+02
    1.8599557877e+01    1.5358110046e+02
    1.8699491501e+01    1.5358110046e+02
    1.8799425125e+01    1.5358110046e+02
    1.8898698807e+01    1.5358110046e+02
    1.8999511719e+01    1.5358110046e+02
    1.9099355698e+01    1.5358110046e+02
    1.9198740005e+01    1.5358110046e+02
    1.9299703598e+01    1.5358110046e+02
    1.9399986267e+01    1.5358110046e+02
    1.9499130249e+01    1.5358110046e+02
    1.9599414825e+01    1.5358110046e+02
    1.9699018478e+01    1.5358110046e+02
    1.9798511505e+01    1.5358110046e+02
    1.9899894714e+01    1.5358110046e+02
    1.9999868393e+01    1.5358110046e+02
    2.0098243713e+01    1.5358110046e+02
    2.0199516296e+01    1.5358110046e+02
    2.0298349380e+01    1.5358110046e+02
    2.0399272919e+01    1.5358110046e+02
    2.0499225616e+01    1.5358110046e+02
    2.0599620819e+01    1.5358110046e+02
    2.0699132919e+01    1.5358110046e+02
    2.0798406601e+01    1.5358110046e+02
    2.0900009155e+01    1.5358110046e+02
    2.0998754501e+01    1.5358110046e+02
    2.1099567413e+01    1.5358110046e+02
    2.1198949814e+01    1.5358110046e+02
    2.1299453735e+01    1.5358110046e+02
    2.1398307800e+01    1.5358110046e+02
    2.1499910355e+01    1.5358110046e+02
    2.1599403381e+01    1.5358110046e+02
    2.1698896408e+01    1.5358110046e+02
    2.1798519135e+01    1.5358110046e+02
    2.1899902344e+01    1.5358110046e+02
    2.2000036240e+01    1.5358110046e+02
    2.2098560333e+01    1.5358110046e+02
    2.2199081421e+01    1.5358110046e+02
    2.2299676895e+01    1.5358110046e+02
    2.2398269653e+01    1.5358110046e+02
    2.2500001907e+01    1.5358110046e+02
    2.2599164963e+01    1.5358110046e+02
    2.2699777603e+01    1.5358110046e+02
    2.2798370361e+01    1.5358110046e+02
    2.2899553299e+01    1.5358110046e+02
    2.2999816895e+01    1.5358110046e+02
    2.3099990845e+01    1.5358110046e+02
    2.3199373245e+01    1.5358110046e+02
    2.3298536301e+01    1.5358110046e+02
    2.3399717331e+01    1.5358110046e+02
    2.3498661041e+01    1.5358110046e+02
    2.3599273682e+01    1.5358110046e+02
    2.3698217392e+01    1.5358110046e+02
    2.3798368454e+01    1.5358110046e+02
    2.3899421692e+01    1.5358110046e+02
    2.3998275757e+01    1.5358110046e+02
    2.4099327087e+01    1.5358110046e+02
    2.4199699402e+01    1.5358110046e+02
    2.4298751831e+01    1.5358110046e+02
    2.4399604797e+01    1.5358110046e+02
    2.4499206543e+01    1.5358110046e+02
    2.4598808289e+01    1.5358110046e+02
    2.4699642181e+01    1.5358110046e+02
    2.4799024582e+01    1.5358110046e+02
    2.4898647308e+01    1.5358110046e+02
    2.4999809265e+01    1.5358110046e+02
    2.5099853516e+01    1.5358110046e+02
    2.5200025558e+01    1.5358110046e+02
    2.5298309326e+01    1.5358110046e+02
    2.5398681641e+01    1.5358110046e+02
    2.5498743057e+01    1.5358110046e+02
    2.5599245071e+01    1.5358110046e+02
    2.5699747086e+01    1.5358110046e+02
    2.5799570084e+01    1.5358110046e+02
    2.5899982452e+01    1.5358110046e+02
    2.5998575211e+01    1.5358110046e+02
    2.6099498749e+01    1.5358110046e+02
    2.6199342728e+01    1.5358110046e+02
    2.6299074173e+01    1.5358110046e+02
    2.6398366928e+01    1.5358110046e+02
    2.6498977661e+01    1.5358110046e+02
    2.6598798752e+01    1.5358110046e+02
    2.6698730469e+01    1.5358110046e+02
    2.6798793793e+01    1.5358110046e+02
    2.6898506165e+01    1.5358110046e+02
    2.6999008179e+01    1.5358110046e+02
    2.7098630905e+01    1.5358110046e+02
    2.7199901581e+01    1.5358110046e+02
    2.7299303055e+01    1.5358110046e+02
    2.7398794174e+01    1.5358110046e+02
    2.7499847412e+01    1.5358110046e+02
    2.7598569870e+01    1.5358009338e+02
    2.7698852539e+01    1.5358009338e+02
    2.7799793243e+01    1.5358009338e+02
    2.7898735046e+01    1.5358009338e+02
    2.7999897003e+01    1.5358009338e+02
    2.8099388123e+01    1.5358009338e+02
    2.8199010849e+01    1.5358009338e+02
    2.8299072266e+01    1.5358009338e+02
    2.8399335861e+01    1.5358009338e+02
    2.8499835968e+01    1.5358009338e+02
    2.8598779678e+01    1.5358009338e+02
    2.8698381424e+01    1.5358009338e+02
    2.8799102783e+01    1.5358009338e+02
    2.8899492264e+01    1.5358009338e+02
    2.8999553680e+01    1.5358009338e+02
    2.9099945068e+01    1.5358009338e+02
    2.9199106216e+01    1.5358009338e+02
    2.9299388885e+01    1.5358009338e+02
    2.9398529053e+01    1.5358009338e+02
    2.9499269485e+01    1.5358009338e+02
    2.9599090576e+01    1.5358009338e+02
    2.9699132919e+01    1.5358009338e+02
    2.9798532486e+01    1.5358009338e+02
    2.9900024414e+01    1.5358009338e+02
    2.9999864578e+01    1.5358009338e+02
    3.0098255157e+01    1.5358009338e+02
    3.0198736191e+01    1.5358009338e+02
    3.0299896240e+01    1.5358009338e+02
    3.0399276733e+01    1.5358009338e+02
    3.0499776840e+01    1.5358009338e+02
    3.0598606110e+01    1.5358009338e+02
    3.0699546814e+01    1.5358009338e+02
    3.0799386978e+01    1.5358009338e+02
    3.0898416519e+01    1.5358009338e+02
    3.0998367310e+01    1.5358009338e+02
    3.1099966049e+01    1.5358009338e+02
    3.1199476242e+01    1.5358009338e+02
    3.1298437119e+01    1.5358009338e+02
    3.1399705887e+01    1.5358009338e+02
    3.1498865128e+01    1.5358009338e+02
    3.1599475861e+01    1.5358009338e+02
    3.1698324203e+01    1.5358009338e+02
    3.1799463272e+01    1.5358009338e+02
    3.1898384094e+01    1.5358009338e+02
    3.1998443604e+01    1.5358009338e+02
    3.2099933624e+01    1.5358009338e+02
    3.2199752808e+01    1.5358009338e+02
    3.2298690796e+01    1.5358009338e+02
    3.2398620605e+01    1.5358009338e+02
    3.2498348236e+01    1.5358009338e+02
    3.2599399567e+01    1.5358009338e+02
    3.2698448181e+01    1.5358009338e+02
    3.2799274445e+01    1.5358009338e+02
    3.2899005890e+01    1.5358009338e+02
    3.2999153137e+01    1.5358009338e+02
    3.3098773956e+01    1.5358009338e+02
    3.3199272156e+01    1.5358009338e+02
    3.3298999786e+01    1.5358009338e+02
    3.3398597717e+01    1.5357910156e+02
    3.3499206543e+01    1.5357910156e+02
    3.3598915100e+01    1.5357910156e+02
    3.3699726105e+01    1.5357910156e+02
    3.3799453735e+01    1.5357910156e+02
    3.3898742676e+01    1.5357910156e+02
    3.3998802185e+01    1.5357910156e+02
    3.4099830627e+01    1.5357910156e+02
    3.4199890137e+01    1.5357910156e+02
    3.4298938751e+01    1.5357910156e+02
    3.4398647308e+01    1.5357910156e+02
    3.4498687744e+01    1.5357910156e+02
    3.4598526001e+01    1.5357910156e+02
    3.4699245453e+01    1.5357910156e+02
    3.4799964905e+01    1.5357910156e+02
    3.4898441315e+01    1.5357910156e+02
    3.4999069214e+01    1.5357910156e+02
    3.5099788666e+01    1.5357910156e+02
    3.5199497223e+01    1.5357910156e+02
    3.5298217773e+01    1.5357910156e+02
    3.5398296356e+01    1.5357910156e+02
    3.5498992920e+01    1.5357910156e+02
    3.5599712372e+01    1.5357910156e+02
    3.5698322296e+01    1.5357910156e+02
    3.5799369812e+01    1.5357910156e+02
    3.5898418427e+01    1.5357910156e+02
    3.5998149872e+01    1.5357910156e+02
    3.6098976135e+01    1.5357910156e+02
    3.6198352814e+01    1.5357910156e+02
    3.6298393250e+01    1.5357809448e+02
    3.6399570465e+01    1.5357809448e+02
    3.6498947144e+01    1.5357809448e+02
    3.6599117279e+01    1.5357809448e+02
    3.6699264526e+01    1.5357809448e+02
    3.6798862457e+01    1.5357809448e+02
    3.6898372650e+01    1.5357809448e+02
    3.6998302460e+01    1.5357809448e+02
    3.7099479675e+01    1.5357809448e+02
    3.7199756622e+01    1.5357809448e+02
    3.7299797058e+01    1.5357809448e+02
    3.7398517609e+01    1.5357809448e+02
    3.7498573303e+01    1.5357809448e+02
    3.7599529266e+01    1.5357809448e+02
    3.7698799133e+01    1.5357809448e+02
    3.7798618317e+01    1.5357809448e+02
    3.7898567200e+01    1.5357809448e+02
    3.7998844147e+01    1.5357809448e+02
    3.8099098206e+01    1.5357809448e+02
    3.8199378967e+01    1.5357809448e+02
    3.8298755646e+01    1.5357809448e+02
    3.8398685455e+01    1.5357809448e+02
    3.8498611450e+01    1.5357710266e+02
    3.8598888397e+01    1.5357710266e+02
    3.8699386597e+01    1.5357710266e+02
    3.8799335480e+01    1.5357710266e+02
    3.8898273468e+01    1.5357710266e+02
    3.8999870300e+01    1.5357710266e+02
    3.9098808289e+01    1.5357710266e+02
    3.9199634552e+01    1.5357710266e+02
    3.9299468994e+01    1.5357710266e+02
    3.9399505615e+01    1.5357710266e+02
    3.9498111725e+01    1.5357710266e+02
    3.9598609924e+01    1.5357710266e+02
    3.9699085236e+01    1.5357710266e+02
    3.9798591614e+01    1.5357710266e+02
    3.9898097992e+01    1.5357710266e+02
    3.9999252319e+01    1.5357710266e+02
    4.0099418640e+01    1.5357710266e+02
    4.0199455261e+01    1.5357710266e+02
    4.0298393250e+01    1.5357609558e+02
    4.0398777008e+01    1.5357609558e+02
    4.0499603271e+01    1.5357609558e+02
    4.0598758698e+01    1.5357609558e+02
    4.0699802399e+01    1.5357609558e+02
    4.0799289703e+01    1.5357609558e+02
    4.0899673462e+01    1.5357609558e+02
    4.0999507904e+01    1.5357609558e+02
    4.1098991394e+01    1.5357609558e+02
    4.1198806763e+01    1.5357609558e+02
    4.1298732758e+01    1.5357609558e+02
    4.1399116516e+01    1.5357609558e+02
    4.1499610901e+01    1.5357609558e+02
    4.1598548889e+01    1.5357609558e+02
    4.1698692322e+01    1.5357609558e+02
    4.1799297333e+01    1.5357510376e+02
    4.1898361206e+01    1.5357510376e+02
    4.1999626160e+01    1.5357510376e+02
    4.2098121643e+01    1.5357510376e+02
    4.2198612213e+01    1.5357510376e+02
    4.2299198151e+01    1.5357510376e+02
    4.2399471283e+01    1.5357510376e+02
    4.2498977661e+01    1.5357510376e+02
    4.2599800110e+01    1.5357510376e+02
    4.2699611664e+01    1.5357510376e+02
    4.2799667358e+01    1.5357510376e+02
    4.2898159027e+01    1.5357510376e+02
    4.2999443054e+01    1.5357409668e+02
    4.3099586487e+01    1.5357409668e+02
    4.3198169708e+01    1.5357409668e+02
    4.3299781799e+01    1.5357409668e+02
    4.3399375916e+01    1.5357409668e+02
    4.3498767853e+01    1.5357409668e+02
    4.3598251343e+01    1.5357409668e+02
    4.3699405670e+01    1.5357409668e+02
    4.3798355103e+01    1.5357409668e+02
    4.3899620056e+01    1.5357409668e+02
    4.3998771667e+01    1.5357409668e+02
    4.4099483490e+01    1.5357409668e+02
    4.4198547363e+01    1.5357310486e+02
    4.4298137665e+01    1.5357310486e+02
    4.4399509430e+01    1.5357310486e+02
    4.4498901367e+01    1.5357310486e+02
    4.4598251343e+01    1.5357310486e+02
    4.4699203491e+01    1.5357310486e+02
    4.4798465729e+01    1.5357310486e+02
    4.4898406982e+01    1.5357310486e+02
    4.4999225616e+01    1.5357310486e+02
    4.5098159790e+01    1.5357310486e+02
    4.5198978424e+01    1.5357209778e+02
    4.5299667358e+01    1.5357209778e+02
    4.5399715424e+01    1.5357209778e+02
    4.5499858856e+01    1.5357209778e+02
    4.5599136353e+01    1.5357209778e+02
    4.5698177338e+01    1.5357209778e+02
    4.5799438477e+01    1.5357209778e+02
    4.5898605347e+01    1.5357209778e+02
    4.5999423981e+01    1.5357209778e+02
    4.6099582672e+01    1.5357209778e+02
    4.6198402405e+01    1.5357110596e+02
    4.6299442291e+01    1.5357110596e+02
    4.6399490356e+01    1.5357110596e+02
    4.6498420715e+01    1.5357110596e+02
    4.6598339081e+01    1.5357110596e+02
    4.6698059082e+01    1.5357110596e+02
    4.6799007416e+01    1.5357110596e+02
    4.6899822235e+01    1.5357110596e+02
    4.6999080658e+01    1.5357110596e+02
    4.7099460602e+01    1.5357009888e+02
    4.7199394226e+01    1.5357009888e+02
    4.7299533844e+01    1.5357009888e+02
    4.7399578094e+01    1.5357009888e+02
    4.7499496460e+01    1.5357009888e+02
    4.7599086761e+01    1.5357009888e+02
    4.7699134827e+01    1.5357009888e+02
    4.7798168182e+01    1.5357009888e+02
    4.7898326874e+01    1.5356910706e+02
    4.7999603271e+01    1.5356910706e+02
    4.8098747253e+01    1.5356910706e+02
    4.8199234009e+01    1.5356910706e+02
    4.8298271179e+01    1.5356910706e+02
    4.8398426056e+01    1.5356910706e+02
    4.8498233795e+01    1.5356910706e+02
    4.8599048615e+01    1.5356809998e+02
    4.8699203491e+01    1.5356809998e+02
    4.8798900604e+01    1.5356809998e+02
    4.8898834229e+01    1.5356809998e+02
    4.8998550415e+01    1.5356809998e+02
    4.9099803925e+01    1.5356809998e+02
    4.9199169159e+01    1.5356809998e+02
    4.9297966003e+01    1.5356709290e+02
    4.9399459839e+01    1.5356709290e+02
    4.9498275757e+01    1.5356709290e+02
    4.9599746704e+01    1.5356709290e+02
    4.9699352264e+01    1.5356709290e+02
    4.9798824310e+01    1.5356709290e+02
    4.9899421692e+01    1.5356709290e+02
    4.9998104095e+01    1.5356610107e+02
    5.0098217010e+01    1.5356610107e+02
    5.0199600220e+01    1.5356610107e+02
    5.0299201965e+01    1.5356610107e+02
    5.0399223328e+01    1.5356610107e+02
    5.0499576569e+01    1.5356610107e+02
    5.0599510193e+01    1.5356509399e+02
    5.0699131012e+01    1.5356509399e+02
    5.0799613953e+01    1.5356509399e+02
    5.0899085999e+01    1.5356509399e+02
    5.0999019623e+01    1.5356509399e+02
    5.1098617554e+01    1.5356509399e+02
    5.1199649811e+01    1.5356509399e+02
    5.1299667358e+01    1.5356410217e+02
    5.1399471283e+01    1.5356410217e+02
    5.1498741150e+01    1.5356410217e+02
    5.1598781586e+01    1.5356410217e+02
    5.1699150085e+01    1.5356410217e+02
    5.1798969269e+01    1.5356309509e+02
    5.1898769379e+01    1.5356309509e+02
    5.1998371124e+01    1.5356309509e+02
    5.2099288940e+01    1.5356309509e+02
    5.2198318481e+01    1.5356309509e+02
    5.2299343109e+01    1.5356309509e+02
    5.2398353577e+01    1.5356210327e+02
    5.2499160767e+01    1.5356210327e+02
    5.2598979950e+01    1.5356210327e+02
    5.2698688507e+01    1.5356210327e+02
    5.2798175812e+01    1.5356210327e+02
    5.2899528503e+01    1.5356109619e+02
    5.2999347687e+01    1.5356109619e+02
    5.3098354340e+01    1.5356109619e+02
    5.3198608398e+01    1.5356109619e+02
    5.3298076630e+01    1.5356109619e+02
    5.3398422241e+01    1.5356010437e+02
    5.3499340057e+01    1.5356010437e+02
    5.3599266052e+01    1.5356010437e+02
    5.3698200226e+01    1.5356010437e+02
    5.3798103333e+01    1.5356010437e+02
    5.3897922516e+01    1.5355909729e+02
    5.3999294281e+01    1.5355909729e+02
    5.4099529266e+01    1.5355909729e+02
    5.4197872162e+01    1.5355909729e+02
    5.4298130035e+01    1.5355909729e+02
    5.4398273468e+01    1.5355810547e+02
    5.4498046875e+01    1.5355810547e+02
    5.4598850250e+01    1.5355810547e+02
    5.4698993683e+01    1.5355810547e+02
    5.4798915863e+01    1.5355810547e+02
    5.4899368286e+01    1.5355709839e+02
    5.4999179840e+01    1.5355709839e+02
    5.5099323273e+01    1.5355709839e+02
    5.5198013306e+01    1.5355709839e+02
    5.5298248291e+01    1.5355610657e+02
    5.5399379730e+01    1.5355610657e+02
    5.5498748779e+01    1.5355610657e+02
    5.5598777771e+01    1.5355610657e+02
    5.5699558258e+01    1.5355509949e+02
    5.5798927307e+01    1.5355509949e+02
    5.5899528503e+01    1.5355509949e+02
    5.5998657227e+01    1.5355509949e+02
    5.6098117828e+01    1.5355410767e+02
    5.6198783875e+01    1.5355410767e+02
    5.6298393250e+01    1.5355410767e+02
    5.6398750305e+01    1.5355410767e+02
    5.6498645782e+01    1.5355310059e+02
    5.6598674774e+01    1.5355310059e+02
    5.6698921204e+01    1.5355310059e+02
    5.6799385071e+01    1.5355310059e+02
    5.6898952484e+01    1.5355209351e+02
    5.6999526978e+01    1.5355209351e+02
    5.7098320007e+01    1.5355209351e+02
    5.7199333191e+01    1.5355209351e+02
    5.7298351288e+01    1.5355110168e+02
    5.7399490356e+01    1.5355110168e+02
    5.7498283386e+01    1.5355110168e+02
    5.7598964691e+01    1.5355110168e+02
    5.7698768616e+01    1.5355009460e+02
    5.7797996521e+01    1.5355009460e+02
    5.7899227142e+01    1.5355009460e+02
    5.7999576569e+01    1.5354910278e+02
    5.8098827362e+01    1.5354910278e+02
    5.8198497772e+01    1.5354910278e+02
    5.8298843384e+01    1.5354910278e+02
    5.8398643494e+01    1.5354809570e+02
    5.8498092651e+01    1.5354809570e+02
    5.8599445343e+01    1.5354809570e+02
    5.8699024200e+01    1.5354710388e+02
    5.8799037933e+01    1.5354710388e+02
    5.8899032593e+01    1.5354710388e+02
    5.8999465942e+01    1.5354609680e+02
    5.9099040985e+01    1.5354609680e+02
    5.9199382782e+01    1.5354609680e+02
    5.9298736572e+01    1.5354510498e+02
    5.9398067474e+01    1.5354510498e+02
    5.9498390198e+01    1.5354510498e+02
    5.9598972321e+01    1.5354409790e+02
    5.9699310303e+01    1.5354409790e+02
    5.9798091888e+01    1.5354409790e+02
    5.9899219513e+01    1.5354310608e+02
    5.9997776031e+01    1.5354310608e+02
    6.0099014282e+01    1.5354310608e+02
    6.0199348450e+01    1.5354209900e+02
    6.0299571991e+01    1.5354209900e+02
    6.0398330688e+01    1.5354209900e+02
    6.0497982025e+01    1.5354110718e+02
    6.0599437714e+01    1.5354110718e+02
    6.0699329376e+01    1.5354110718e+02
    6.0798011780e+01    1.5354010010e+02
    6.0899459839e+01    1.5354010010e+02
    6.0999088287e+01    1.5353909302e+02
    6.1099308014e+01    1.5353909302e+02
    6.1198738098e+01    1.5353909302e+02
    6.1298168182e+01    1.5353810120e+02
    6.1397964478e+01    1.5353810120e+02
    6.1498046875e+01    1.5353810120e+02
    6.1599250793e+01    1.5353709412e+02
    6.1699466705e+01    1.5353709412e+02
    6.1798011780e+01    1.5353610229e+02
    6.1898445129e+01    1.5353610229e+02
    6.1998657227e+01    1.5353610229e+02
    6.2099288940e+01    1.5353509521e+02
    6.2198951721e+01    1.5353509521e+02
    6.2298828125e+01    1.5353410339e+02
    6.2398471832e+01    1.5353410339e+02
    6.2499229431e+01    1.5353309631e+02
    6.2599197388e+01    1.5353309631e+02
    6.2698192596e+01    1.5353309631e+02
    6.2798839569e+01    1.5353210449e+02
    6.2897724152e+01    1.5353210449e+02
    6.2999046326e+01    1.5353109741e+02
    6.3099250793e+01    1.5353109741e+02
    6.3198902130e+01    1.5353010559e+02
    6.3299079895e+01    1.5353010559e+02
    6.3399280548e+01    1.5352909851e+02
    6.3498706818e+01    1.5352909851e+02
    6.3597915649e+01    1.5352810669e+02
    6.3699317932e+01    1.5352810669e+02
    6.3799163818e+01    1.5352709961e+02
    6.3898590088e+01    1.5352709961e+02
    6.3998561859e+01    1.5352610779e+02
    6.4098861694e+01    1.5352610779e+02
    6.4198722839e+01    1.5352510071e+02
    6.4298446655e+01    1.5352510071e+02
    6.4398086548e+01    1.5352409363e+02
    6.4498489380e+01    1.5352409363e+02
    6.4597778320e+01    1.5352310181e+02
    6.4697959900e+01    1.5352310181e+02
    6.4798385620e+01    1.5352209473e+02
    6.4898658752e+01    1.5352209473e+02
    6.4998710632e+01    1.5352110291e+02
    6.5099563599e+01    1.5352009583e+02
    6.5199523926e+01    1.5352009583e+02
    6.5298233032e+01    1.5351910400e+02
    6.5399307251e+01    1.5351910400e+02
    6.5498718262e+01    1.5351809692e+02
    6.5599220276e+01    1.5351710510e+02
    6.5698707581e+01    1.5351710510e+02
    6.5798110962e+01    1.5351609802e+02
    6.5898178101e+01    1.5351609802e+02
    6.5999221802e+01    1.5351510620e+02
    6.6098075867e+01    1.5351409912e+02
    6.6199012756e+01    1.5351409912e+02
    6.6297950745e+01    1.5351310730e+02
    6.6399322510e+01    1.5351210022e+02
    6.6498275757e+01    1.5351210022e+02
    6.6598442078e+01    1.5351109314e+02
    6.6699501038e+01    1.5351010132e+02
    6.6797668457e+01    1.5351010132e+02
    6.6899276733e+01    1.5350909424e+02
    6.6998886108e+01    1.5350810242e+02
    6.7097702026e+01    1.5350810242e+02
    6.7198631287e+01    1.5350709534e+02
    6.7299224854e+01    1.5350610352e+02
    6.7398483276e+01    1.5350509644e+02
    6.7498939514e+01    1.5350509644e+02
    6.7599006653e+01    1.5350410461e+02
    6.7698585510e+01    1.5350309753e+02
    6.7798301697e+01    1.5350210571e+02
    6.7898124695e+01    1.5350109863e+02
    6.7998489380e+01    1.5350109863e+02
    6.8098533630e+01    1.5350010681e+02
    6.8197761536e+01    1.5349909973e+02
    6.8298805237e+01    1.5349810791e+02
    6.8398399353e+01    1.5349710083e+02
    6.8498306274e+01    1.5349609375e+02
    6.8599441528e+01    1.5349609375e+02
    6.8699142456e+01    1.5349510193e+02
    6.8798278809e+01    1.5349409485e+02
    6.8898643494e+01    1.5349310303e+02
    6.8998779297e+01    1.5349209595e+02
    6.9099159241e+01    1.5349110413e+02
    6.9198402405e+01    1.5349009705e+02
    6.9297859192e+01    1.5348910522e+02
    6.9398544312e+01    1.5348809814e+02
    6.9497917175e+01    1.5348710632e+02
    6.9597831726e+01    1.5348609924e+02
    6.9698181152e+01    1.5348510742e+02
    6.9798973083e+01    1.5348410034e+02
    6.9898551941e+01    1.5348309326e+02
    6.9998443604e+01    1.5348210144e+02
    7.0097778320e+01    1.5348109436e+02
    7.0199371338e+01    1.5348010254e+02
    7.0298492432e+01    1.5347909546e+02
    7.0398063660e+01    1.5347810364e+02
    7.0499092102e+01    1.5347709656e+02
    7.0599319458e+01    1.5347610474e+02
    7.0699462891e+01    1.5347509766e+02
    7.0799011230e+01    1.5347309875e+02
    7.0898696899e+01    1.5347210693e+02
    7.0998352051e+01    1.5347109985e+02
    7.1099258423e+01    1.5347010803e+02
    7.1197731018e+01    1.5346910095e+02
    7.1297607422e+01    1.5346710205e+02
    7.1398948669e+01    1.5346609497e+02
    7.1498405457e+01    1.5346510315e+02
    7.1598602295e+01    1.5346409607e+02
    7.1697830200e+01    1.5346209717e+02
    7.1798927307e+01    1.5346110535e+02
    7.1897697449e+01    1.5346009827e+02
    7.1998359680e+01    1.5345809937e+02
    7.2098571777e+01    1.5345710754e+02
    7.2197883606e+01    1.5345610046e+02
    7.2298316956e+01    1.5345410156e+02
    7.2399314880e+01    1.5345309448e+02
    7.2498626709e+01    1.5345109558e+02
    7.2598945618e+01    1.5345010376e+02
    7.2698692322e+01    1.5344810486e+02
    7.2798126221e+01    1.5344709778e+02
    7.2898551941e+01    1.5344509888e+02
    7.2999191284e+01    1.5344410706e+02
    7.3098640442e+01    1.5344209290e+02
    7.3198379517e+01    1.5344009399e+02
    7.3297790527e+01    1.5343910217e+02
    7.3398551941e+01    1.5343710327e+02
    7.3499404907e+01    1.5343510437e+02
    7.3598831177e+01    1.5343409729e+02
    7.3697570801e+01    1.5343209839e+02
    7.3799209595e+01    1.5343009949e+02
    7.3898300171e+01    1.5342810059e+02
    7.3997581482e+01    1.5342709351e+02
    7.4099105835e+01    1.5342509460e+02
    7.4198295593e+01    1.5342309570e+02
    7.4297798157e+01    1.5342109680e+02
    7.4398765564e+01    1.5341909790e+02
    7.4498062134e+01    1.5341709900e+02
    7.4598457336e+01    1.5341510010e+02
    7.4698760986e+01    1.5341310120e+02
    7.4798805237e+01    1.5341110229e+02
    7.4898643494e+01    1.5340910339e+02
    7.4999382019e+01    1.5340710449e+02
    7.5099090576e+01    1.5340510559e+02
    7.5199142456e+01    1.5340310669e+02
    7.5298736572e+01    1.5340110779e+02
    7.5397918701e+01    1.5339810181e+02
    7.5498970032e+01    1.5339610291e+02
    7.5597885132e+01    1.5339410400e+02
    7.5697601318e+01    1.5339210510e+02
    7.5797866821e+01    1.5338909912e+02
    7.5897674561e+01    1.5338710022e+02
    7.5998832703e+01    1.5338409424e+02
    7.6097885132e+01    1.5338209534e+02
    7.6199264526e+01    1.5337910461e+02
    7.6297637939e+01    1.5337710571e+02
    7.6397895813e+01    1.5337409973e+02
    7.6499259949e+01    1.5337210083e+02
    7.6598182678e+01    1.5336909485e+02
    7.6698432922e+01    1.5336610413e+02
    7.6798484802e+01    1.5336410522e+02
    7.6899040222e+01    1.5336109924e+02
    7.6997947693e+01    1.5335809326e+02
    7.7097732544e+01    1.5335510254e+02
    7.7198196411e+01    1.5335209656e+02
    7.7297668457e+01    1.5334910583e+02
    7.7398239136e+01    1.5334609985e+02
    7.7498809814e+01    1.5334309387e+02
    7.7598014832e+01    1.5334010315e+02
    7.7698471069e+01    1.5333709717e+02
    7.7797843933e+01    1.5333410645e+02
    7.7898605347e+01    1.5333110046e+02
    7.7998283386e+01    1.5332710266e+02
    7.8098297119e+01    1.5332409668e+02
    7.8198387146e+01    1.5332110596e+02
    7.8298370361e+01    1.5331709290e+02
    7.8398353577e+01    1.5331410217e+02
    7.8499252319e+01    1.5331010437e+02
    7.8598129272e+01    1.5330610657e+02
    7.8699333191e+01    1.5330310059e+02
    7.8798645020e+01    1.5329910278e+02
    7.8897628784e+01    1.5329510498e+02
    7.8998916626e+01    1.5329110718e+02
    7.9098770142e+01    1.5328709412e+02
    7.9198844910e+01    1.5328309631e+02
    7.9298042297e+01    1.5327909851e+02
    7.9398345947e+01    1.5327510071e+02
    7.9497871399e+01    1.5327110291e+02
    7.9598266602e+01    1.5326710510e+02
    7.9698440552e+01    1.5326210022e+02
    7.9799064636e+01    1.5325810242e+02
    7.9899040222e+01    1.5325410461e+02
    7.9998107910e+01    1.5324909973e+02
    8.0098953247e+01    1.5324409485e+02
    8.0198242188e+01    1.5324009705e+02
    8.0298515320e+01    1.5323510742e+02
    8.0399024963e+01    1.5323010254e+02
    8.0497955322e+01    1.5322509766e+02
    8.0597785950e+01    1.5322010803e+02
    8.0699172974e+01    1.5321510315e+02
    8.0797683716e+01    1.5321009827e+02
    8.0897964478e+01    1.5320509338e+02
    8.0997451782e+01    1.5319909668e+02
    8.1099136353e+01    1.5319410706e+02
    8.1198081970e+01    1.5318809509e+02
    8.1297897339e+01    1.5318310547e+02
    8.1399024963e+01    1.5317709351e+02
    8.1498397827e+01    1.5317109680e+02
    8.1598342896e+01    1.5316510010e+02
    8.1697586060e+01    1.5315910339e+02
    8.1798156738e+01    1.5315310669e+02
    8.1898513794e+01    1.5314709473e+02
    8.1999191284e+01    1.5314109802e+02
    8.2098320007e+01    1.5313409424e+02
    8.2198097229e+01    1.5312809753e+02
    8.2298446655e+01    1.5312109375e+02
    8.2398902893e+01    1.5311410522e+02
    8.2497581482e+01    1.5310809326e+02
    8.2597923279e+01    1.5310110474e+02
    8.2699264526e+01    1.5309309387e+02
    8.2797721863e+01    1.5308610535e+02
    8.2898063660e+01    1.5307910156e+02
    8.2998069763e+01    1.5307209778e+02
    8.3099052429e+01    1.5306410217e+02
    8.3198272705e+01    1.5305610657e+02
    8.3298927307e+01    1.5304809570e+02
    8.3399261475e+01    1.5304010010e+02
    8.3498359680e+01    1.5303210449e+02
    8.3598579407e+01    1.5302409363e+02
    8.3699119568e+01    1.5301609802e+02
    8.3797889709e+01    1.5300709534e+02
    8.3897422791e+01    1.5299909973e+02
    8.3999053955e+01    1.5299009705e+02
    8.4098800659e+01    1.5298109436e+02
    8.4198554993e+01    1.5297210693e+02
    8.4297531128e+01    1.5296310425e+02
    8.4399162292e+01    1.5295309448e+02
    8.4498252869e+01    1.5294410706e+02
    8.4598999023e+01    1.5293409729e+02
    8.4698745728e+01    1.5292410278e+02
    8.4798492432e+01    1.5291409302e+02
    8.4898231506e+01    1.5290409851e+02
    8.4997978210e+01    1.5289309692e+02
    8.5097717285e+01    1.5288310242e+02
    8.5197463989e+01    1.5287210083e+02
    8.5299087524e+01    1.5286109924e+02
    8.5398826599e+01    1.5285009766e+02
    8.5498565674e+01    1.5283909607e+02
    8.5598304749e+01    1.5282710266e+02
    8.5698043823e+01    1.5281610107e+02
    8.5797782898e+01    1.5280410767e+02
    8.5897521973e+01    1.5279209900e+02
    8.5999145508e+01    1.5277909851e+02
    8.6098884583e+01    1.5276710510e+02
    8.6197860718e+01    1.5275410461e+02
    8.6297599792e+01    1.5274110413e+02
    8.6399215698e+01    1.5272810364e+02
    8.6498954773e+01    1.5271510315e+02
    8.6598701477e+01    1.5270109558e+02
    8.6698440552e+01    1.5268809509e+02
    8.6798179626e+01    1.5267410278e+02
    8.6897918701e+01    1.5265910339e+02
    8.6997657776e+01    1.5264509583e+02
    8.7097396851e+01    1.5263009644e+02
    8.7199020386e+01    1.5261509705e+02
    8.7298759460e+01    1.5260009766e+02
    8.7398498535e+01    1.5258410645e+02
    8.7498237610e+01    1.5256910706e+02
    8.7597976685e+01    1.5255310059e+02
    8.7697715759e+01    1.5253709412e+02
    8.7797454834e+01    1.5252009583e+02
    8.7899078369e+01    1.5250309753e+02
    8.7998817444e+01    1.5248609924e+02
    8.8098556519e+01    1.5246910095e+02
    8.8198295593e+01    1.5245109558e+02
    8.8298034668e+01    1.5243310547e+02
    8.8397773743e+01    1.5241510010e+02
    8.8497512817e+01    1.5239709473e+02
    8.8599136353e+01    1.5237710571e+02
    8.8698883057e+01    1.5235809326e+02
    8.8798622131e+01    1.5233909607e+02
    8.8898368835e+01    1.5231910706e+02
    8.8998107910e+01    1.5229910278e+02
    8.9097854614e+01    1.5227909851e+02
    8.9197593689e+01    1.5225810242e+02
    8.9297340393e+01    1.5223710632e+02
    8.9398971558e+01    1.5221510315e+02
    8.9498710632e+01    1.5219410706e+02
    8.9598457336e+01    1.5217210388e+02
    8.9698204041e+01    1.5214909363e+02
    8.9797943115e+01    1.5212609863e+02
    8.9897682190e+01    1.5210310364e+02
    8.9997428894e+01    1.5208009338e+02
    9.0099052429e+01    1.5205610657e+02
    9.0198791504e+01    1.5203109741e+02
    9.0298530579e+01    1.5200709534e+02
    9.0398101807e+01    1.5198210144e+02
    9.0497840881e+01    1.5195610046e+02
    9.0597579956e+01    1.5193009949e+02
    9.0699134827e+01    1.5190409851e+02
    9.0798866272e+01    1.5187710571e+02
    9.0898605347e+01    1.5185009766e+02
    9.0998344421e+01    1.5182310486e+02
    9.1098083496e+01    1.5179510498e+02
    9.1197814941e+01    1.5176609802e+02
    9.1297554016e+01    1.5173809814e+02
    9.1399169922e+01    1.5170809937e+02
    9.1498901367e+01    1.5167810059e+02
    9.1598640442e+01    1.5164810181e+02
    9.1698371887e+01    1.5161810303e+02
    9.1798103333e+01    1.5158610535e+02
    9.1897834778e+01    1.5155509949e+02
    9.1997566223e+01    1.5152310181e+02
    9.2097297668e+01    1.5149110413e+02
    9.2198913574e+01    1.5145710754e+02
    9.2298645020e+01    1.5142309570e+02
    9.2398376465e+01    1.5139010620e+02
    9.2498100281e+01    1.5135510254e+02
    9.2597831726e+01    1.5132009888e+02
    9.2697563171e+01    1.5128509521e+02
    9.2797286987e+01    1.5124909973e+02
    9.2898727417e+01    1.5121110535e+02
    9.2998085022e+01    1.5117410278e+02
    9.3099113464e+01    1.5113609314e+02
    9.3198059082e+01    1.5109809875e+02
    9.3298667908e+01    1.5105909729e+02
    9.3399070740e+01    1.5102009583e+02
    9.3497413635e+01    1.5098010254e+02
    9.3597404480e+01    1.5094009399e+02
    9.3699035645e+01    1.5089810181e+02
    9.3798622131e+01    1.5085710144e+02
    9.3898002625e+01    1.5081509399e+02
    9.3999015808e+01    1.5077110291e+02
    9.4097991943e+01    1.5072810364e+02
    9.4198593140e+01    1.5068409729e+02
    9.4298995972e+01    1.5063909912e+02
    9.4397369385e+01    1.5059410095e+02
    9.4497375488e+01    1.5054809570e+02
    9.4598983765e+01    1.5050109863e+02
    9.4698585510e+01    1.5045410156e+02
    9.4797622681e+01    1.5040609741e+02
    9.4898628235e+01    1.5035710144e+02
    9.4997642517e+01    1.5030909729e+02
    9.5098251343e+01    1.5025810242e+02
    9.5198661804e+01    1.5020809937e+02
    9.5298881531e+01    1.5015609741e+02
    9.5398895264e+01    1.5010409546e+02
    9.5498725891e+01    1.5005209351e+02
    9.5598358154e+01    1.4999909973e+02
    9.5697807312e+01    1.4994509888e+02
    9.5798828125e+01    1.4989010620e+02
    9.5897888184e+01    1.4983509827e+02
    9.5998527527e+01    1.4977810669e+02
    9.6098976135e+01    1.4972109985e+02
    9.6197471619e+01    1.4966510010e+02
    9.6297546387e+01    1.4960609436e+02
    9.6397430420e+01    1.4954710388e+02
    9.6498870850e+01    1.4948710632e+02
    9.6598381042e+01    1.4942610168e+02
    9.6697700500e+01    1.4936509705e+02
    9.6798583984e+01    1.4930310059e+02
    9.6897537231e+01    1.4924110413e+02
    9.6998046875e+01    1.4917709351e+02
    9.7098373413e+01    1.4911210632e+02
    9.7198509216e+01    1.4904710388e+02
    9.7298469543e+01    1.4898109436e+02
    9.7398246765e+01    1.4891409302e+02
    9.7497848511e+01    1.4884710693e+02
    9.7598976135e+01    1.4877810669e+02
    9.7698219299e+01    1.4870910645e+02
    9.7798988342e+01    1.4863810730e+02
    9.7897872925e+01    1.4856809998e+02
    9.7998291016e+01    1.4849609375e+02
    9.8098526001e+01    1.4842410278e+02
    9.8198585510e+01    1.4835009766e+02
    9.8298461914e+01    1.4827610779e+02
    9.8398170471e+01    1.4820109558e+02
    9.8497703552e+01    1.4812609863e+02
    9.8598655701e+01    1.4804809570e+02
    9.8697837830e+01    1.4797109985e+02
    9.8798530579e+01    1.4789210510e+02
    9.8899055481e+01    1.4781210327e+02
    9.8997642517e+01    1.4773309326e+02
    9.9097816467e+01    1.4765209961e+02
    9.9197822571e+01    1.4757009888e+02
    9.9297660828e+01    1.4748710632e+02
    9.9398994446e+01    1.4740209961e+02
    9.9498489380e+01    1.4731809998e+02
    9.9597824097e+01    1.4723309326e+02
    9.9698646545e+01    1.4714610291e+02
    9.9797653198e+01    1.4705909729e+02
    9.9898139954e+01    1.4697010803e+02
    9.9998420715e+01    1.4688110352e+02
    1.0009857178e+02    1.4679010010e+02
    1.0019857025e+02    1.4669909668e+02
    1.0029840088e+02    1.4660710144e+02
    1.0039807129e+02    1.4651510620e+02
    1.0049774933e+02    1.4642109680e+02
    1.0059871674e+02    1.4632510376e+02
    1.0069790649e+02    1.4623010254e+02
    1.0079891205e+02    1.4613211060e+02
    1.0089777374e+02    1.4603610229e+02
    1.0099839020e+02    1.4593609619e+02
    1.0109758759e+02    1.4583709717e+02
    1.0119837189e+02    1.4573609924e+02
    1.0129743958e+02    1.4563510132e+02
    1.0139807892e+02    1.4553210449e+02
    1.0149891663e+02    1.4542810059e+02
    1.0159764862e+02    1.4532409668e+02
    1.0169760132e+02    1.4521910095e+02
    1.0179881287e+02    1.4511109924e+02
    1.0189785767e+02    1.4500408936e+02
    1.0199793243e+02    1.4489610291e+02
    1.0209844208e+02    1.4478509521e+02
    1.0219886780e+02    1.4467410278e+02
    1.0229778290e+02    1.4456410217e+02
    1.0239865112e+02    1.4445010376e+02
    1.0249768066e+02    1.4433810425e+02
    1.0259866333e+02    1.4422210693e+02
    1.0269889832e+02    1.4410610962e+02
    1.0279882050e+02    1.4398910522e+02
    1.0289747620e+02    1.4387310791e+02
    1.0299778748e+02    1.4375408936e+02
    1.0309854126e+02    1.4363310242e+02
    1.0319828796e+02    1.4351210022e+02
    1.0329804230e+02    1.4339109802e+02
    1.0339781189e+02    1.4326809692e+02
    1.0349794769e+02    1.4314410400e+02
    1.0359795380e+02    1.4301910400e+02
    1.0369779205e+02    1.4289309692e+02
    1.0379749298e+02    1.4276609802e+02
    1.0389865112e+02    1.4263610840e+02
    1.0399804688e+02    1.4250810242e+02
    1.0409868622e+02    1.4237609863e+02
    1.0419751740e+02    1.4224609375e+02
    1.0429743195e+02    1.4211410522e+02
    1.0439785004e+02    1.4198010254e+02
    1.0449772644e+02    1.4184509277e+02
    1.0459786224e+02    1.4170910645e+02
    1.0469785309e+02    1.4157209778e+02
    1.0479769135e+02    1.4143409729e+02
    1.0489739227e+02    1.4129609680e+02
    1.0499852753e+02    1.4115409851e+02
    1.0509795380e+02    1.4101309204e+02
    1.0519859314e+02    1.4087010193e+02
    1.0529772949e+02    1.4072810364e+02
    1.0539813995e+02    1.4058209229e+02
    1.0549812317e+02    1.4043710327e+02
    1.0559815216e+02    1.4029010010e+02
    1.0569831085e+02    1.4014208984e+02
    1.0579833221e+02    1.3999310303e+02
    1.0589765167e+02    1.3984310913e+02
    1.0599864960e+02    1.3969110107e+02
    1.0609809113e+02    1.3953909302e+02
    1.0619859314e+02    1.3938510132e+02
    1.0629795074e+02    1.3923110962e+02
    1.0639821625e+02    1.3907510376e+02
    1.0649887085e+02    1.3891709900e+02
    1.0659748077e+02    1.3876110840e+02
    1.0669786835e+02    1.3860110474e+02
    1.0679812622e+02    1.3844009399e+02
    1.0689826965e+02    1.3827909851e+02
    1.0699777985e+02    1.3811709595e+02
    1.0709893036e+02    1.3795111084e+02
    1.0719869232e+02    1.3778710938e+02
    1.0729797363e+02    1.3762210083e+02
    1.0739875031e+02    1.3745309448e+02
    1.0749813843e+02    1.3728610229e+02
    1.0759854889e+02    1.3711610413e+02
    1.0769747162e+02    1.3694709778e+02
    1.0779802704e+02    1.3677410889e+02
    1.0789810181e+02    1.3660110474e+02
    1.0799841309e+02    1.3642610168e+02
    1.0809825134e+02    1.3625109863e+02
    1.0819824219e+02    1.3607510376e+02
    1.0829804993e+02    1.3589709473e+02
    1.0839788818e+02    1.3571910095e+02
    1.0849759674e+02    1.3553909302e+02
    1.0859871674e+02    1.3535610962e+02
    1.0869793701e+02    1.3517510986e+02
    1.0879882050e+02    1.3499009705e+02
    1.0889797974e+02    1.3480709839e+02
    1.0899862671e+02    1.3462010193e+02
    1.0909765625e+02    1.3443508911e+02
    1.0919754791e+02    1.3424710083e+02
    1.0929830170e+02    1.3405609131e+02
    1.0939813995e+02    1.3386610413e+02
    1.0949820709e+02    1.3367410278e+02
    1.0959815979e+02    1.3348110962e+02
    1.0969774628e+02    1.3328810120e+02
    1.0979747772e+02    1.3309310913e+02
    1.0989858246e+02    1.3289410400e+02
    1.0999809265e+02    1.3269709778e+02
    1.1009748077e+02    1.3250009155e+02
    1.1019824219e+02    1.3229809570e+02
    1.1029740906e+02    1.3209909058e+02
    1.1039794922e+02    1.3189511108e+02
    1.1049836731e+02    1.3169110107e+02
    1.1059825134e+02    1.3148609924e+02
    1.1069844055e+02    1.3128009033e+02
    1.1079827118e+02    1.3107308960e+02
    1.1089823914e+02    1.3086509705e+02
    1.1099862671e+02    1.3065509033e+02
    1.1109837341e+02    1.3044409180e+02
    1.1119757843e+02    1.3023410034e+02
    1.1129856873e+02    1.3001910400e+02
    1.1139746857e+02    1.2980709839e+02
    1.1149822998e+02    1.2959010315e+02
    1.1159870148e+02    1.2937210083e+02
    1.1169777679e+02    1.2915710449e+02
    1.1179785919e+02    1.2893710327e+02
    1.1189774323e+02    1.2871810913e+02
    1.1199793243e+02    1.2849609375e+02
    1.1209799957e+02    1.2827310181e+02
    1.1219795990e+02    1.2804910278e+02
    1.1229875183e+02    1.2782309723e+02
    1.1239806366e+02    1.2759809875e+02
    1.1249768066e+02    1.2737110138e+02
    1.1259861755e+02    1.2714109802e+02
    1.1269792175e+02    1.2691310120e+02
    1.1279821014e+02    1.2668109894e+02
    1.1289881134e+02    1.2644809723e+02
    1.1299758911e+02    1.2621710205e+02
    1.1309847260e+02    1.2598110199e+02
    1.1319812775e+02    1.2574610138e+02
    1.1329759216e+02    1.2551010132e+02
    1.1339836121e+02    1.2527110291e+02
    1.1349825287e+02    1.2503209686e+02
    1.1359803009e+02    1.2479209900e+02
    1.1369744110e+02    1.2455210114e+02
    1.1379840088e+02    1.2430709839e+02
    1.1389781952e+02    1.2406410217e+02
    1.1399797058e+02    1.2381909943e+02
    1.1409857178e+02    1.2357109833e+02
    1.1419873047e+02    1.2332309723e+02
    1.1429759979e+02    1.2307710266e+02
    1.1439777374e+02    1.2282710266e+02
    1.1449756622e+02    1.2257610321e+02
    1.1459873962e+02    1.2232109833e+02
    1.1469863892e+02    1.2206809998e+02
    1.1479824829e+02    1.2181510162e+02
    1.1489791107e+02    1.2156009674e+02
    1.1499743652e+02    1.2130410004e+02
    1.1509826660e+02    1.2104409790e+02
    1.1519847870e+02    1.2078410339e+02
    1.1529873657e+02    1.2052310181e+02
    1.1539781189e+02    1.2026409912e+02
    1.1549816132e+02    1.2000009918e+02
    1.1559838867e+02    1.1973609924e+02
    1.1569769287e+02    1.1947309875e+02
    1.1579875946e+02    1.1920410156e+02
    1.1589864349e+02    1.1893689728e+02
    1.1599825287e+02    1.1866940308e+02
    1.1609783173e+02    1.1840090179e+02
    1.1619875336e+02    1.1812760162e+02
    1.1629818726e+02    1.1785710144e+02
    1.1639750671e+02    1.1758589935e+02
    1.1649809265e+02    1.1730999756e+02
    1.1659800720e+02    1.1703479767e+02
    1.1669837952e+02    1.1675720215e+02
    1.1679839325e+02    1.1647949982e+02
    1.1689790344e+02    1.1620200348e+02
    1.1699794006e+02    1.1592189789e+02
    1.1709754944e+02    1.1564189911e+02
    1.1719818878e+02    1.1535780334e+02
    1.1729862976e+02    1.1507309723e+02
    1.1739865875e+02    1.1478849792e+02
    1.1749793243e+02    1.1450489807e+02
    1.1759870148e+02    1.1421590424e+02
    1.1769744873e+02    1.1393160248e+02
    1.1779753876e+02    1.1364230347e+02
    1.1789752960e+02    1.1335220337e+02
    1.1799788666e+02    1.1305979919e+02
    1.1809815216e+02    1.1276660156e+02
    1.1819799805e+02    1.1247360229e+02
    1.1829807281e+02    1.1217870331e+02
    1.1839788055e+02    1.1188349915e+02
    1.1849743652e+02    1.1158799744e+02
    1.1859802246e+02    1.1128829956e+02
    1.1869747925e+02    1.1099089813e+02
    1.1879747772e+02    1.1069069672e+02
    1.1889785767e+02    1.1038829803e+02
    1.1899839020e+02    1.1008440399e+02
    1.1909763336e+02    1.0978320312e+02
    1.1919805908e+02    1.0947740173e+02
    1.1929808044e+02    1.0917169952e+02
    1.1939849091e+02    1.0886370087e+02
    1.1949803162e+02    1.0855740356e+02
    1.1959858704e+02    1.0824680328e+02
    1.1969857788e+02    1.0793689728e+02
    1.1979833221e+02    1.0762660217e+02
    1.1989777374e+02    1.0731629944e+02
    1.1999767303e+02    1.0700350189e+02
    1.2009835815e+02    1.0668710327e+02
    1.2019802094e+02    1.0637290192e+02
    1.2029799652e+02    1.0605670166e+02
    1.2039820862e+02    1.0573870087e+02
    1.2049771881e+02    1.0542179871e+02
    1.2059847260e+02    1.0509999847e+02
    1.2069750977e+02    1.0478260040e+02
    1.2079795074e+02    1.0445960236e+02
    1.2089871979e+02    1.0413459778e+02
    1.2099768829e+02    1.0381430054e+02
    1.2109799194e+02    1.0348880005e+02
    1.2119812775e+02    1.0316269684e+02
    1.2129827881e+02    1.0283550262e+02
    1.2139765930e+02    1.0250990295e+02
    1.2149836731e+02    1.0217890167e+02
    1.2159829712e+02    1.0184940338e+02
    1.2169863129e+02    1.0151760101e+02
    1.2179866028e+02    1.0118579865e+02
    1.2189823914e+02    1.0085449982e+02
    1.2199758148e+02    1.0052300262e+02
    1.2209786224e+02    1.0018740082e+02
    1.2219815063e+02    9.9850799561e+01
    1.2229828644e+02    9.9513702393e+01
    1.2239836121e+02    9.9175903320e+01
    1.2249781799e+02    9.8839103699e+01
    1.2259790802e+02    9.8499298096e+01
    1.2269824219e+02    9.8157600403e+01
    1.2279840851e+02    9.7815597534e+01
    1.2289829254e+02    9.7473602295e+01
    1.2299794006e+02    9.7131401062e+01
    1.2309767914e+02    9.6787902832e+01
    1.2319766235e+02    9.6442802429e+01
    1.2329833221e+02    9.6094200134e+01
    1.2339839172e+02    9.5746803284e+01
    1.2349762726e+02    9.5401397705e+01
    1.2359816742e+02    9.5050498962e+01
    1.2369757080e+02    9.4702697754e+01
    1.2379827118e+02    9.4349403381e+01
    1.2389746094e+02    9.4000503540e+01
    1.2399823761e+02    9.3645004272e+01
    1.2409835815e+02    9.3291099548e+01
    1.2419756317e+02    9.2939399719e+01
    1.2429827881e+02    9.2581497192e+01
    1.2439862823e+02    9.2223899841e+01
    1.2449739075e+02    9.1871200562e+01
    1.2459758759e+02    9.1512397766e+01
    1.2469741821e+02    9.1154098511e+01
    1.2479860687e+02    9.0790000916e+01
    1.2489746094e+02    9.0433502197e+01
    1.2499864960e+02    9.0067703247e+01
    1.2509841156e+02    8.9706199646e+01
    1.2519808960e+02    8.9344001770e+01
    1.2529763031e+02    8.8981597900e+01
    1.2539753723e+02    8.8616996765e+01
    1.2549826813e+02    8.8248497009e+01
    1.2559780884e+02    8.7883598328e+01
    1.2569748688e+02    8.7517303467e+01
    1.2579799652e+02    8.7147102356e+01
    1.2589849854e+02    8.6776100159e+01
    1.2599765778e+02    8.6409301758e+01
    1.2609831238e+02    8.6036102295e+01
    1.2619760895e+02    8.5667198181e+01
    1.2629810333e+02    8.5292999268e+01
    1.2639852142e+02    8.4918197632e+01
    1.2649813080e+02    8.4545799255e+01
    1.2659780121e+02    8.4172203064e+01
    1.2669776917e+02    8.3796798706e+01
    1.2679743958e+02    8.3421798706e+01
    1.2689746857e+02    8.3044601440e+01
    1.2699810791e+02    8.2664299011e+01
    1.2709770203e+02    8.2287200928e+01
    1.2719789124e+02    8.1907104492e+01
    1.2729844666e+02    8.1524902344e+01
    1.2739810944e+02    8.1145301819e+01
    1.2749778748e+02    8.0764900208e+01
    1.2759841919e+02    8.0380203247e+01
    1.2769786835e+02    7.9999198914e+01
    1.2779783630e+02    7.9615501404e+01
    1.2789788055e+02    7.9230804443e+01
    1.2799836731e+02    7.8843704224e+01
    1.2809753418e+02    7.8460998535e+01
    1.2819766235e+02    7.8073799133e+01
    1.2829794312e+02    7.7685401917e+01
    1.2839814758e+02    7.7296501160e+01
    1.2849829102e+02    7.6907196045e+01
    1.2859829712e+02    7.6517700195e+01
    1.2869830322e+02    7.6127601624e+01
    1.2879823303e+02    7.5736999512e+01
    1.2889782715e+02    7.5347198486e+01
    1.2899851990e+02    7.4952400208e+01
    1.2909776306e+02    7.4562599182e+01
    1.2919744873e+02    7.4170394897e+01
    1.2929832458e+02    7.3772903442e+01
    1.2939854431e+02    7.3377304077e+01
    1.2949754333e+02    7.2985900879e+01
    1.2959823608e+02    7.2587203979e+01
    1.2969761658e+02    7.2193000793e+01
    1.2979820251e+02    7.1793502808e+01
    1.2989869690e+02    7.1393699646e+01
    1.2999873352e+02    7.0995101929e+01
    1.3009840393e+02    7.0597396851e+01
    1.3019749451e+02    7.0201400757e+01
    1.3029823303e+02    6.9798202515e+01
    1.3039846802e+02    6.9396499634e+01
    1.3049792480e+02    6.8997299194e+01
    1.3059849548e+02    6.8593002319e+01
    1.3069778442e+02    6.8193405151e+01
    1.3079780579e+02    6.7790298462e+01
    1.3089845276e+02    6.7384101868e+01
    1.3099807739e+02    6.6981399536e+01
    1.3109826660e+02    6.6576004028e+01
    1.3119807434e+02    6.6171501160e+01
    1.3129815674e+02    6.5765396118e+01
    1.3139875793e+02    6.5356704712e+01
    1.3149780273e+02    6.4953796387e+01
    1.3159838867e+02    6.4544204712e+01
    1.3169827271e+02    6.4136795044e+01
    1.3179841614e+02    6.3728000641e+01
    1.3189808655e+02    6.3320598602e+01
    1.3199841309e+02    6.2909999847e+01
    1.3209884644e+02    6.2498500824e+01
    1.3219822693e+02    6.2090900421e+01
    1.3229878235e+02    6.1677902222e+01
    1.3239886475e+02    6.1266399384e+01
    1.3249876404e+02    6.0855300903e+01
    1.3259776306e+02    6.0447399139e+01
    1.3269816589e+02    6.0033302307e+01
    1.3279794312e+02    5.9621398926e+01
    1.3289869690e+02    5.9205001831e+01
    1.3299847412e+02    5.8792201996e+01
    1.3309799194e+02    5.8380100250e+01
    1.3319810486e+02    5.7965202332e+01
    1.3329803467e+02    5.7550498962e+01
    1.3339785767e+02    5.7136001587e+01
    1.3349792480e+02    5.6720100403e+01
    1.3359889221e+02    5.6300102234e+01
    1.3369787598e+02    5.5887901306e+01
    1.3379888916e+02    5.5466899872e+01
    1.3389843750e+02    5.5051700592e+01
    1.3399879456e+02    5.4632701874e+01
    1.3409817505e+02    5.4217498779e+01
    1.3419793701e+02    5.3800300598e+01
    1.3429887390e+02    5.3377899170e+01
    1.3439834595e+02    5.2961399078e+01
    1.3449897766e+02    5.2539600372e+01
    1.3459814453e+02    5.2123699188e+01
    1.3469819641e+02    5.1703800201e+01
    1.3479890442e+02    5.1280799866e+01
    1.3489834595e+02    5.0862899780e+01
    1.3499874878e+02    5.0440601349e+01
    1.3509904480e+02    5.0018600464e+01
    1.3519834900e+02    4.9600402832e+01
    1.3529852295e+02    4.9178298950e+01
    1.3539895630e+02    4.8754898071e+01
    1.3549804688e+02    4.8336898804e+01
    1.3559822083e+02    4.7914100647e+01
    1.3569848633e+02    4.7490600586e+01
    1.3579849243e+02    4.7068099976e+01
    1.3589866638e+02    4.6644599915e+01
    1.3599847412e+02    4.6222400665e+01
    1.3609819031e+02    4.5800498962e+01
    1.3619818115e+02    4.5377098083e+01
    1.3629812622e+02    4.4953800201e+01
    1.3639880371e+02    4.4527198792e+01
    1.3649864197e+02    4.4104000092e+01
    1.3659834290e+02    4.3681198120e+01
    1.3669885254e+02    4.3254798889e+01
    1.3679852295e+02    4.2831802368e+01
    1.3689813232e+02    4.2409000397e+01
    1.3699888611e+02    4.1981101990e+01
    1.3709808350e+02    4.1559700012e+01
    1.3719851685e+02    4.1132900238e+01
    1.3729910278e+02    4.0705398560e+01
    1.3739842224e+02    4.0283100128e+01
    1.3749888611e+02    3.9855899811e+01
    1.3759808350e+02    3.9433998108e+01
    1.3769842529e+02    3.9006999969e+01
    1.3779870605e+02    3.8580299377e+01
    1.3789894104e+02    3.8153800964e+01
    1.3799868774e+02    3.7729103088e+01
    1.3809878540e+02    3.7302902222e+01
    1.3819885254e+02    3.6876899719e+01
    1.3829884338e+02    3.6451103210e+01
    1.3839871216e+02    3.6025802612e+01
    1.3849858093e+02    3.5600402832e+01
    1.3859904480e+02    3.5172599792e+01
    1.3869880676e+02    3.4747600555e+01
    1.3879852295e+02    3.4322898865e+01
    1.3889901733e+02    3.3894798279e+01
    1.3899818420e+02    3.3472301483e+01
    1.3909892273e+02    3.3043300629e+01
    1.3919841003e+02    3.2619499207e+01
    1.3929902649e+02    3.2191001892e+01
    1.3939840698e+02    3.1767700195e+01
    1.3949891663e+02    3.1339700699e+01
    1.3959916687e+02    3.0912900925e+01
    1.3969831848e+02    3.0490699768e+01
    1.3979832458e+02    3.0065000534e+01
    1.3989862061e+02    2.9638200760e+01
    1.3999859619e+02    2.9212699890e+01
    1.4009831238e+02    2.8788501740e+01
    1.4019830322e+02    2.8363109589e+01
    1.4029820251e+02    2.7938320160e+01
    1.4039825439e+02    2.7512969971e+01
    1.4049906921e+02    2.7084400177e+01
    1.4059901428e+02    2.6659709930e+01
    1.4069885254e+02    2.6235630035e+01
    1.4079869080e+02    2.5811599731e+01
    1.4089828491e+02    2.5388780594e+01
    1.4099922180e+02    2.4960451126e+01
    1.4109887695e+02    2.4537750244e+01
    1.4119853210e+02    2.4115110397e+01
    1.4129933167e+02    2.3687850952e+01
    1.4139877319e+02    2.3266510010e+01
    1.4149940491e+02    2.2840290070e+01
    1.4159890747e+02    2.2419120789e+01
    1.4169932556e+02    2.1994230270e+01
    1.4179846191e+02    2.1574970245e+01
    1.4189900208e+02    2.1150011063e+01
    1.4199833679e+02    2.0730381012e+01
    1.4209878540e+02    2.0306209564e+01
    1.4219920349e+02    1.9882469177e+01
    1.4229841614e+02    1.9464059830e+01
    1.4239855957e+02    1.9042026520e+01
    1.4249885559e+02    1.8619621277e+01
    1.4259872437e+02    1.8199426651e+01
    1.4269894409e+02    1.7777999878e+01
    1.4279867554e+02    1.7359020233e+01
    1.4289881897e+02    1.6938541412e+01
    1.4299894714e+02    1.6518560410e+01
    1.4309901428e+02    1.6099081039e+01
    1.4319873047e+02    1.5681520462e+01
    1.4329875183e+02    1.5263070107e+01
    1.4339872742e+02    1.4845140457e+01
    1.4349867249e+02    1.4427750587e+01
    1.4359852600e+02    1.4011180878e+01
    1.4369941711e+02    1.3590620041e+01
    1.4379925537e+02    1.3174880981e+01
    1.4389906311e+02    1.2759719849e+01
    1.4399884033e+02    1.2345140457e+01
    1.4409857178e+02    1.1931130409e+01
    1.4419923401e+02    1.1513740540e+01
    1.4429876709e+02    1.1101490021e+01
    1.4439956665e+02    1.0684490204e+01
    1.4449916077e+02    1.0272910118e+01
    1.4459872437e+02    9.8619604111e+00
    1.4469886780e+02    9.4491004944e+00
    1.4479917908e+02    9.0360507965e+00
    1.4489959717e+02    8.6231002808e+00
    1.4499900818e+02    8.2147006989e+00
    1.4509953308e+02    7.8023004532e+00
    1.4519888306e+02    7.3953008652e+00
    1.4529934692e+02    6.9843006134e+00
    1.4539860535e+02    6.5787000656e+00
    1.4549897766e+02    6.1691007614e+00
    1.4559930420e+02    5.7602005005e+00
    1.4569906616e+02    5.3542003632e+00
    1.4579931641e+02    4.9468002319e+00
    1.4589953613e+02    4.5402002335e+00
    1.4599969482e+02    4.1344003677e+00
    1.4609866333e+02    3.7339000702e+00
    1.4619874573e+02    3.3297004700e+00
    1.4629879761e+02    2.9262008667e+00
    1.4639877319e+02    2.5235004425e+00
    1.4649873352e+02    2.1217002869e+00
    1.4659938049e+02    1.7178001404e+00
    1.4669923401e+02    1.3177013397e+00
    1.4679884338e+02    9.1930007935e-01
    1.4689973450e+02    5.1640129089e-01
    1.4699945068e+02    1.1900138855e-01
    1.4709910583e+02   -2.7750015259e-01
    1.4719871521e+02   -6.7309951782e-01
    1.4729942322e+02   -1.0721988678e+00
    1.4739894104e+02   -1.4659004211e+00
    1.4749954224e+02   -1.8631000519e+00
    1.4759895325e+02   -2.2547988892e+00
    1.4769944763e+02   -2.6500988007e+00
    1.4779875183e+02   -3.0397987366e+00
    1.4789913940e+02   -3.4329986572e+00
    1.4799949646e+02   -3.8251991272e+00
    1.4809977722e+02   -4.2162990570e+00
    1.4819886780e+02   -4.6019001007e+00
    1.4829893494e+02   -4.9904003143e+00
    1.4839906311e+02   -5.3782997131e+00
    1.4849914551e+02   -5.7651004791e+00
    1.4859916687e+02   -6.1507987976e+00
    1.4869914246e+02   -6.5354995728e+00
    1.4879908752e+02   -6.9188995361e+00
    1.4889895630e+02   -7.3013000488e+00
    1.4899876404e+02   -7.6824989319e+00
    1.4909968567e+02   -8.0669002533e+00
    1.4919938660e+02   -8.4456996918e+00
    1.4929905701e+02   -8.8232994080e+00
    1.4939981079e+02   -9.2040004730e+00
    1.4949937439e+02   -9.5792999268e+00
    1.4959890747e+02   -9.9531993866e+00
    1.4969949341e+02   -1.0330200195e+01
    1.4979893494e+02   -1.0701700211e+01
    1.4989942932e+02   -1.1076200485e+01
    1.4999987793e+02   -1.1449399948e+01
    1.5009916687e+02   -1.1817098618e+01
    1.5019926453e+02   -1.2186698914e+01
    1.5029957581e+02   -1.2556098938e+01
    1.5039984131e+02   -1.2923999786e+01
    1.5049893188e+02   -1.3286598206e+01
    1.5059910583e+02   -1.3652000427e+01
    1.5069898987e+02   -1.4015098572e+01
    1.5079908752e+02   -1.4377799988e+01
    1.5089999390e+02   -1.4742198944e+01
    1.5099992371e+02   -1.5102001190e+01
    1.5109997559e+02   -1.5460998535e+01
    1.5119990540e+02   -1.5818298340e+01
    1.5129977417e+02   -1.6174198151e+01
    1.5139962769e+02   -1.6528900146e+01
    1.5149943542e+02   -1.6882099152e+01
    1.5159919739e+02   -1.7234001160e+01
    1.5170004272e+02   -1.7588397980e+01
    1.5179972839e+02   -1.7937500000e+01
    1.5189938354e+02   -1.8285099030e+01
    1.5199986267e+02   -1.8634399414e+01
    1.5209938049e+02   -1.8979000092e+01
    1.5219964600e+02   -1.9324897766e+01
    1.5229902649e+02   -1.9666400909e+01
    1.5239961243e+02   -2.0010700226e+01
    1.5249905396e+02   -2.0349700928e+01
    1.5259957886e+02   -2.0691101074e+01
    1.5269995117e+02   -2.1030498505e+01
    1.5279908752e+02   -2.1364398956e+01
    1.5289952087e+02   -2.1701297760e+01
    1.5299986267e+02   -2.2036399841e+01
    1.5310003662e+02   -2.2369499207e+01
    1.5320010376e+02   -2.2700901031e+01
    1.5329911804e+02   -2.3027198792e+01
    1.5339939880e+02   -2.3356300354e+01
    1.5349966431e+02   -2.3683799744e+01
    1.5359962463e+02   -2.4008800507e+01
    1.5369963074e+02   -2.4332401276e+01
    1.5379960632e+02   -2.4654399872e+01
    1.5389976501e+02   -2.4975399017e+01
    1.5399987793e+02   -2.5294601440e+01
    1.5409979248e+02   -2.5611698151e+01
    1.5419985962e+02   -2.5927600861e+01
    1.5429957581e+02   -2.6240898132e+01
    1.5439961243e+02   -2.6553501129e+01
    1.5449948120e+02   -2.6863998413e+01
    1.5459931946e+02   -2.7172798157e+01
    1.5470011902e+02   -2.7482997894e+01
    1.5480003357e+02   -2.7788799286e+01
    1.5489967346e+02   -2.8092201233e+01
    1.5500021362e+02   -2.8396598816e+01
    1.5509967041e+02   -2.8696098328e+01
    1.5519915771e+02   -2.8994197845e+01
    1.5529974365e+02   -2.9293899536e+01
    1.5539950562e+02   -2.9589500427e+01
    1.5549989319e+02   -2.9885398865e+01
    1.5559936523e+02   -3.0176898956e+01
    1.5570014954e+02   -3.0470699310e+01
    1.5579954529e+02   -3.0758800507e+01
    1.5590028381e+02   -3.1049098969e+01
    1.5599989319e+02   -3.1334598541e+01
    1.5609947205e+02   -3.1618400574e+01
    1.5620013428e+02   -3.1903598785e+01
    1.5629965210e+02   -3.2183898926e+01
    1.5640023804e+02   -3.2465698242e+01
    1.5650016785e+02   -3.2743999481e+01
    1.5659959412e+02   -3.3019199371e+01
    1.5669984436e+02   -3.3295101166e+01
    1.5679992676e+02   -3.3568901062e+01
    1.5690023804e+02   -3.3841697693e+01
    1.5700032043e+02   -3.4112197876e+01
    1.5710038757e+02   -3.4381000519e+01
    1.5719935608e+02   -3.4645198822e+01
    1.5729954529e+02   -3.4910999298e+01
    1.5739981079e+02   -3.5175300598e+01
    1.5750004578e+02   -3.5437900543e+01
    1.5760025024e+02   -3.5698699951e+01
    1.5770002747e+02   -3.5956798553e+01
    1.5780015564e+02   -3.6214099884e+01
    1.5790019226e+02   -3.6469497681e+01
    1.5800024414e+02   -3.6723197937e+01
    1.5810026550e+02   -3.6975200653e+01
    1.5820011902e+02   -3.7225200653e+01
    1.5830006409e+02   -3.7473697662e+01
    1.5839997864e+02   -3.7720397949e+01
    1.5849984741e+02   -3.7965499878e+01
    1.5859956360e+02   -3.8208400726e+01
    1.5870013428e+02   -3.8451900482e+01
    1.5879983521e+02   -3.8691497803e+01
    1.5889956665e+02   -3.8929599762e+01
    1.5900035095e+02   -3.9168598175e+01
    1.5910000610e+02   -3.9403198242e+01
    1.5920040894e+02   -3.9638000488e+01
    1.5929980469e+02   -3.9868801117e+01
    1.5940043640e+02   -4.0100997925e+01
    1.5949995422e+02   -4.0328899384e+01
    1.5959944153e+02   -4.0555198669e+01
    1.5969978333e+02   -4.0781898499e+01
    1.5980009460e+02   -4.1006900787e+01
    1.5989947510e+02   -4.1228199005e+01
    1.5999990845e+02   -4.1450401306e+01
    1.6009953308e+02   -4.1669200897e+01
    1.6019990540e+02   -4.1888000488e+01
    1.6030010986e+02   -4.2104999542e+01
    1.6039990234e+02   -4.2319400787e+01
    1.6049978638e+02   -4.2532600403e+01
    1.6060002136e+02   -4.2744800568e+01
    1.6070022583e+02   -4.2955497742e+01
    1.6079988098e+02   -4.3163497925e+01
    1.6090000916e+02   -4.3370800018e+01
    1.6099955750e+02   -4.3575401306e+01
    1.6109962463e+02   -4.3779399872e+01
    1.6119966125e+02   -4.3981800079e+01
    1.6130061340e+02   -4.4184497833e+01
    1.6139991760e+02   -4.4382198334e+01
    1.6149960327e+02   -4.4579097748e+01
    1.6160015869e+02   -4.4776100159e+01
    1.6170004272e+02   -4.4970100403e+01
    1.6179991150e+02   -4.5162597656e+01
    1.6189973450e+02   -4.5353302002e+01
    1.6200048828e+02   -4.5544197083e+01
    1.6210014343e+02   -4.5731399536e+01
    1.6220045471e+02   -4.5918296814e+01
    1.6229997253e+02   -4.6102096558e+01
    1.6240061951e+02   -4.6286300659e+01
    1.6249996948e+02   -4.6466499329e+01
    1.6260017395e+02   -4.6646697998e+01
    1.6269978333e+02   -4.6824195862e+01
    1.6279988098e+02   -4.7000999451e+01
    1.6290051270e+02   -4.7177101135e+01
    1.6300030518e+02   -4.7350097656e+01
    1.6310043335e+02   -4.7522102356e+01
    1.6319967651e+02   -4.7691001892e+01
    1.6330072021e+02   -4.7861297607e+01
    1.6339982605e+02   -4.8026802063e+01
    1.6350032043e+02   -4.8192901611e+01
    1.6360015869e+02   -4.8356399536e+01
    1.6370016479e+02   -4.8518501282e+01
    1.6379983521e+02   -4.8678398132e+01
    1.6389973450e+02   -4.8836997986e+01
    1.6400012207e+02   -4.8994796753e+01
    1.6409977722e+02   -4.9149803162e+01
    1.6419999695e+02   -4.9304000854e+01
    1.6430064392e+02   -4.9457199097e+01
    1.6440043640e+02   -4.9607498169e+01
    1.6450071716e+02   -4.9756797791e+01
    1.6459988403e+02   -4.9902801514e+01
    1.6469981384e+02   -5.0048202515e+01
    1.6480003357e+02   -5.0192298889e+01
    1.6489991760e+02   -5.0334297180e+01
    1.6500003052e+02   -5.0474899292e+01
    1.6510032654e+02   -5.0614097595e+01
    1.6519990540e+02   -5.0750495911e+01
    1.6530078125e+02   -5.0887001038e+01
    1.6540086365e+02   -5.1020797729e+01
    1.6550082397e+02   -5.1152702332e+01
    1.6560025024e+02   -5.1282196045e+01
    1.6570028687e+02   -5.1410697937e+01
    1.6580087280e+02   -5.1538299561e+01
    1.6590061951e+02   -5.1663002014e+01
    1.6600039673e+02   -5.1786102295e+01
    1.6610003662e+02   -5.1907402039e+01
    1.6619996643e+02   -5.2027198792e+01
    1.6630052185e+02   -5.2146102905e+01
    1.6640084839e+02   -5.2263000488e+01
    1.6650041199e+02   -5.2377296448e+01
    1.6660025024e+02   -5.2490196228e+01
    1.6670045471e+02   -5.2601699829e+01
    1.6680026245e+02   -5.2711097717e+01
    1.6690011597e+02   -5.2818901062e+01
    1.6700048828e+02   -5.2925598145e+01
    1.6710041809e+02   -5.3029998779e+01
    1.6720011902e+02   -5.3132499695e+01
    1.6730087280e+02   -5.3234298706e+01
    1.6740028381e+02   -5.3333099365e+01
    1.6750059509e+02   -5.3431098938e+01
    1.6760002136e+02   -5.3526496887e+01
    1.6770028687e+02   -5.3621002197e+01
    1.6780004883e+02   -5.3713401794e+01
    1.6790026855e+02   -5.3804397583e+01
    1.6800091553e+02   -5.3894203186e+01
    1.6810002136e+02   -5.3980796814e+01
    1.6820068359e+02   -5.4067199707e+01
    1.6830085754e+02   -5.4151397705e+01
    1.6840071106e+02   -5.4233596802e+01
    1.6850053406e+02   -5.4314102173e+01
    1.6860069275e+02   -5.4393302917e+01
    1.6870054626e+02   -5.4470397949e+01
    1.6880084229e+02   -5.4546302795e+01
    1.6890055847e+02   -5.4620101929e+01
    1.6900106812e+02   -5.4692802429e+01
    1.6910015869e+02   -5.4762901306e+01
    1.6920082092e+02   -5.4832397461e+01
    1.6930044556e+02   -5.4899497986e+01
    1.6940008545e+02   -5.4965103149e+01
    1.6950010681e+02   -5.5029296875e+01
    1.6960046387e+02   -5.5092102051e+01
    1.6970060730e+02   -5.5153099060e+01
    1.6980058289e+02   -5.5212303162e+01
    1.6990011597e+02   -5.5269699097e+01
    1.7000105286e+02   -5.5326301575e+01
    1.7010054016e+02   -5.5380401611e+01
    1.7020100403e+02   -5.5433502197e+01
    1.7030044556e+02   -5.5484397888e+01
    1.7040080261e+02   -5.5534095764e+01
    1.7050059509e+02   -5.5582000732e+01
    1.7060108948e+02   -5.5628501892e+01
    1.7070106506e+02   -5.5673202515e+01
    1.7080059814e+02   -5.5716102600e+01
    1.7090104675e+02   -5.5757797241e+01
    1.7100064087e+02   -5.5797401428e+01
    1.7110055542e+02   -5.5835502625e+01
    1.7120098877e+02   -5.5872299194e+01
    1.7130029297e+02   -5.5906997681e+01
    1.7140020752e+02   -5.5940299988e+01
    1.7150091553e+02   -5.5972198486e+01
    1.7160092163e+02   -5.6002296448e+01
    1.7170098877e+02   -5.6030700684e+01
    1.7180047607e+02   -5.6057395935e+01
    1.7190054321e+02   -5.6082595825e+01
    1.7200100708e+02   -5.6106300354e+01
    1.7210113525e+02   -5.6128295898e+01
    1.7220068359e+02   -5.6148498535e+01
    1.7230076599e+02   -5.6167198181e+01
    1.7240086365e+02   -5.6184303284e+01
    1.7250062561e+02   -5.6199798584e+01
    1.7260075378e+02   -5.6213699341e+01
    1.7270037842e+02   -5.6225898743e+01
    1.7280105591e+02   -5.6236602783e+01
    1.7290077209e+02   -5.6245697021e+01
    1.7300086975e+02   -5.6253097534e+01
    1.7310076904e+02   -5.6258895874e+01
    1.7320065308e+02   -5.6263198853e+01
    1.7330097961e+02   -5.6265899658e+01
    1.7340100098e+02   -5.6266899109e+01
    1.7350100708e+02   -5.6266403198e+01
    1.7360064697e+02   -5.6264297485e+01
    1.7370097351e+02   -5.6260597229e+01
    1.7380122375e+02   -5.6255302429e+01
    1.7390098572e+02   -5.6248497009e+01
    1.7400056458e+02   -5.6240097046e+01
    1.7410113525e+02   -5.6229995728e+01
    1.7420091248e+02   -5.6218498230e+01
    1.7430038452e+02   -5.6205497742e+01
    1.7440051270e+02   -5.6190902710e+01
    1.7450097656e+02   -5.6174598694e+01
    1.7460108948e+02   -5.6156898499e+01
    1.7470094299e+02   -5.6137596130e+01
    1.7480085754e+02   -5.6116897583e+01
    1.7490124512e+02   -5.6094497681e+01
    1.7500119019e+02   -5.6070602417e+01
    1.7510050964e+02   -5.6045501709e+01
    1.7520071411e+02   -5.6018600464e+01
    1.7530062866e+02   -5.5990303040e+01
    1.7540110779e+02   -5.5960296631e+01
    1.7550048828e+02   -5.5929100037e+01
    1.7560093689e+02   -5.5896202087e+01
    1.7570074463e+02   -5.5861999512e+01
    1.7580090332e+02   -5.5826103210e+01
    1.7590101624e+02   -5.5788902283e+01
    1.7600076294e+02   -5.5750297546e+01
    1.7610116577e+02   -5.5709999084e+01
    1.7620086670e+02   -5.5668502808e+01
    1.7630122375e+02   -5.5625297546e+01
    1.7640153503e+02   -5.5580696106e+01
    1.7650105286e+02   -5.5534996033e+01
    1.7660127258e+02   -5.5487503052e+01
    1.7670144653e+02   -5.5438697815e+01
    1.7680078125e+02   -5.5388801575e+01
    1.7690106201e+02   -5.5337097168e+01
    1.7700146484e+02   -5.5283798218e+01
    1.7710096741e+02   -5.5229598999e+01
    1.7720062256e+02   -5.5173995972e+01
    1.7730128479e+02   -5.5116302490e+01
    1.7740161133e+02   -5.5057502747e+01
    1.7750125122e+02   -5.4997596741e+01
    1.7760073853e+02   -5.4936500549e+01
    1.7770092773e+02   -5.4873596191e+01
    1.7780114746e+02   -5.4809196472e+01
    1.7790138245e+02   -5.4743499756e+01
    1.7800164795e+02   -5.4676300049e+01
    1.7810162354e+02   -5.4608001709e+01
    1.7820112610e+02   -5.4538696289e+01
    1.7830157471e+02   -5.4467300415e+01
    1.7840136719e+02   -5.4394996643e+01
    1.7850073242e+02   -5.4321701050e+01
    1.7860151672e+02   -5.4246002197e+01
    1.7870132446e+02   -5.4169601440e+01
    1.7880084229e+02   -5.4092201233e+01
    1.7890144348e+02   -5.4012496948e+01
    1.7900119019e+02   -5.3932098389e+01
    1.7910096741e+02   -5.3850402832e+01
    1.7920152283e+02   -5.3766700745e+01
    1.7930108643e+02   -5.3682395935e+01
    1.7940168762e+02   -5.3595901489e+01
    1.7950093079e+02   -5.3509300232e+01
    1.7960159302e+02   -5.3419998169e+01
    1.7970126343e+02   -5.3330200195e+01
    1.7980145264e+02   -5.3238601685e+01
    1.7990130615e+02   -5.3145996094e+01
    1.8000085449e+02   -5.3052299500e+01
    1.8010163879e+02   -5.2956100464e+01
    1.8020118713e+02   -5.2859703064e+01
    1.8030101013e+02   -5.2761596680e+01
    1.8040086365e+02   -5.2662101746e+01
    1.8050149536e+02   -5.2560401917e+01
    1.8060139465e+02   -5.2458000183e+01
    1.8070140076e+02   -5.2354103088e+01
    1.8080136108e+02   -5.2248802185e+01
    1.8090173340e+02   -5.2141601562e+01
    1.8100100708e+02   -5.2034301758e+01
    1.8110136414e+02   -5.1924201965e+01
    1.8120164490e+02   -5.1812797546e+01
    1.8130174255e+02   -5.1700096130e+01
    1.8140089417e+02   -5.1586898804e+01
    1.8150143433e+02   -5.1470596313e+01
    1.8160101318e+02   -5.1353897095e+01
    1.8170126343e+02   -5.1234802246e+01
    1.8180154419e+02   -5.1114196777e+01
    1.8190185547e+02   -5.0991897583e+01
    1.8200117493e+02   -5.0869300842e+01
    1.8210156250e+02   -5.0743896484e+01
    1.8220095825e+02   -5.0618103027e+01
    1.8230140686e+02   -5.0489295959e+01
    1.8240188599e+02   -5.0359001160e+01
    1.8250164795e+02   -5.0227996826e+01
    1.8260119629e+02   -5.0095703125e+01
    1.8270179749e+02   -4.9960395813e+01
    1.8280140686e+02   -4.9824798584e+01
    1.8290106201e+02   -4.9687500000e+01
    1.8300175476e+02   -4.9547203064e+01
    1.8310162354e+02   -4.9406501770e+01
    1.8320140076e+02   -4.9264297485e+01
    1.8330120850e+02   -4.9120399475e+01
    1.8340107727e+02   -4.8974899292e+01
    1.8350117493e+02   -4.8827400208e+01
    1.8360112000e+02   -4.8678497314e+01
    1.8370129395e+02   -4.8527603149e+01
    1.8380177307e+02   -4.8374702454e+01
    1.8390185547e+02   -4.8220802307e+01
    1.8400198364e+02   -4.8065200806e+01
    1.8410113525e+02   -4.7909500122e+01
    1.8420135498e+02   -4.7750602722e+01
    1.8430163574e+02   -4.7589996338e+01
    1.8440197754e+02   -4.7427597046e+01
    1.8450132751e+02   -4.7265296936e+01
    1.8460174561e+02   -4.7099601746e+01
    1.8470120239e+02   -4.6933998108e+01
    1.8480172729e+02   -4.6764999390e+01
    1.8490130615e+02   -4.6596000671e+01
    1.8500193787e+02   -4.6423698425e+01
    1.8510159302e+02   -4.6251502991e+01
    1.8520132446e+02   -4.6077598572e+01
    1.8530111694e+02   -4.5902099609e+01
    1.8540197754e+02   -4.5723098755e+01
    1.8550187683e+02   -4.5544197083e+01
    1.8560182190e+02   -4.5363700867e+01
    1.8570184326e+02   -4.5181602478e+01
    1.8580191040e+02   -4.4997798920e+01
    1.8590203857e+02   -4.4812297821e+01
    1.8600120544e+02   -4.4627201080e+01
    1.8610145569e+02   -4.4438499451e+01
    1.8620178223e+02   -4.4248100281e+01
    1.8630113220e+02   -4.4058097839e+01
    1.8640159607e+02   -4.3864398956e+01
    1.8650210571e+02   -4.3669200897e+01
    1.8660166931e+02   -4.3474300385e+01
    1.8670129395e+02   -4.3277797699e+01
    1.8680201721e+02   -4.3077598572e+01
    1.8690177917e+02   -4.2877899170e+01
    1.8700161743e+02   -4.2676498413e+01
    1.8710153198e+02   -4.2473598480e+01
    1.8720150757e+02   -4.2269100189e+01
    1.8730157471e+02   -4.2062900543e+01
    1.8740170288e+02   -4.1855197906e+01
    1.8750192261e+02   -4.1645797729e+01
    1.8760221863e+02   -4.1434898376e+01
    1.8770155334e+02   -4.1224498749e+01
    1.8780200195e+02   -4.1010398865e+01
    1.8790147400e+02   -4.0796897888e+01
    1.8800210571e+02   -4.0579601288e+01
    1.8810174561e+02   -4.0362899780e+01
    1.8820147705e+02   -4.0144798279e+01
    1.8830128479e+02   -3.9924999237e+01
    1.8840222168e+02   -3.9701400757e+01
    1.8850219727e+02   -3.9478599548e+01
    1.8860226440e+02   -3.9254199982e+01
    1.8870133972e+02   -3.9030700684e+01
    1.8880157471e+02   -3.8803298950e+01
    1.8890188599e+02   -3.8574298859e+01
    1.8900227356e+02   -3.8343700409e+01
    1.8910169983e+02   -3.8114101410e+01
    1.8920225525e+02   -3.7880500793e+01
    1.8930184937e+02   -3.7647800446e+01
    1.8940153503e+02   -3.7413600922e+01
    1.8950129700e+02   -3.7178001404e+01
    1.8960220337e+02   -3.6938301086e+01
    1.8970213318e+02   -3.6699600220e+01
    1.8980216980e+02   -3.6459400177e+01
    1.8990228271e+02   -3.6217800140e+01
    1.9000140381e+02   -3.5977199554e+01
    1.9010168457e+02   -3.5732498169e+01
    1.9020205688e+02   -3.5486400604e+01
    1.9030145264e+02   -3.5241298676e+01
    1.9040199280e+02   -3.4992099762e+01
    1.9050157166e+02   -3.4743999481e+01
    1.9060229492e+02   -3.4491699219e+01
    1.9070204163e+02   -3.4240600586e+01
    1.9080186462e+02   -3.3988098145e+01
    1.9090177917e+02   -3.3734001160e+01
    1.9100178528e+02   -3.3478401184e+01
    1.9110188293e+02   -3.3221199036e+01
    1.9120207214e+02   -3.2962600708e+01
    1.9130235291e+02   -3.2702400208e+01
    1.9140162659e+02   -3.2443500519e+01
    1.9150207520e+02   -3.2180198669e+01
    1.9160154724e+02   -3.1918300629e+01
    1.9170216370e+02   -3.1651798248e+01
    1.9180180359e+02   -3.1386600494e+01
    1.9190151978e+02   -3.1119701385e+01
    1.9200242615e+02   -3.0848300934e+01
    1.9210232544e+02   -3.0578098297e+01
    1.9220231628e+02   -3.0306301117e+01
    1.9230238342e+02   -3.0032897949e+01
    1.9240145874e+02   -2.9760700226e+01
    1.9250172424e+02   -2.9483798981e+01
    1.9260206604e+02   -2.9205299377e+01
    1.9270251465e+02   -2.8924999237e+01
    1.9280194092e+02   -2.8646099091e+01
    1.9290147400e+02   -2.8365501404e+01
    1.9300216675e+02   -2.8080200195e+01
    1.9310188293e+02   -2.7796298981e+01
    1.9320167542e+02   -2.7510700226e+01
    1.9330155945e+02   -2.7223400116e+01
    1.9340153503e+02   -2.6934398651e+01
    1.9350161743e+02   -2.6643798828e+01
    1.9360177612e+02   -2.6351600647e+01
    1.9370202637e+02   -2.6057701111e+01
    1.9380236816e+02   -2.5762100220e+01
    1.9390170288e+02   -2.5468200684e+01
    1.9400224304e+02   -2.5169399261e+01
    1.9410177612e+02   -2.4872299194e+01
    1.9420249939e+02   -2.4570198059e+01
    1.9430221558e+02   -2.4269901276e+01
    1.9440200806e+02   -2.3967998505e+01
    1.9450190735e+02   -2.3664501190e+01
    1.9460189819e+02   -2.3359397888e+01
    1.9470198059e+02   -2.3052799225e+01
    1.9480215454e+02   -2.2744598389e+01
    1.9490243530e+02   -2.2434898376e+01
    1.9500167847e+02   -2.2127098083e+01
    1.9510214233e+02   -2.1814300537e+01
    1.9520269775e+02   -2.1500099182e+01
    1.9530223083e+02   -2.1187801361e+01
    1.9540185547e+02   -2.0874000549e+01
    1.9550271606e+02   -2.0555297852e+01
    1.9560252380e+02   -2.0238700867e+01
    1.9570245361e+02   -1.9920600891e+01
    1.9580247498e+02   -1.9601100922e+01
    1.9590258789e+02   -1.9280200958e+01
    1.9600167847e+02   -1.8961399078e+01
    1.9610200500e+02   -1.8637599945e+01
    1.9620242310e+02   -1.8312400818e+01
    1.9630181885e+02   -1.7989498138e+01
    1.9640246582e+02   -1.7661399841e+01
    1.9650207520e+02   -1.7335700989e+01
    1.9660180664e+02   -1.7008499146e+01
    1.9670280457e+02   -1.6676300049e+01
    1.9680276489e+02   -1.6346298218e+01
    1.9690171814e+02   -1.6018798828e+01
    1.9700192261e+02   -1.5686100006e+01
    1.9710226440e+02   -1.5352100372e+01
    1.9720274353e+02   -1.5016700745e+01
    1.9730218506e+02   -1.4683799744e+01
    1.9740177917e+02   -1.4349498749e+01
    1.9750263977e+02   -1.4010101318e+01
    1.9760249329e+02   -1.3673198700e+01
    1.9770248413e+02   -1.3334999084e+01
    1.9780262756e+02   -1.2995399475e+01
    1.9790176392e+02   -1.2658498764e+01
    1.9800218201e+02   -1.2316299438e+01
    1.9810275269e+02   -1.1972799301e+01
    1.9820231628e+02   -1.1631898880e+01
    1.9830203247e+02   -1.1289699554e+01
    1.9840188599e+02   -1.0946298599e+01
    1.9850190735e+02   -1.0601499557e+01
    1.9860208130e+02   -1.0255399704e+01
    1.9870239258e+02   -9.9079990387e+00
    1.9880288696e+02   -9.5592994690e+00
    1.9890234375e+02   -9.2133998871e+00
    1.9900196838e+02   -8.8661003113e+00
    1.9910293579e+02   -8.5133991241e+00
    1.9920288086e+02   -8.1634998322e+00
    1.9930180359e+02   -7.8164997101e+00
    1.9940208435e+02   -7.4639987946e+00
    1.9950250244e+02   -7.1101989746e+00
    1.9960192871e+02   -6.7591991425e+00
    1.9970268250e+02   -6.4027996063e+00
    1.9980242920e+02   -6.0492000580e+00
    1.9990232849e+02   -5.6943988800e+00
endcurve
