Curveplot
LS-DYNA keyword deck by LS-PrePost
Abscissa
Ordinate
XY data
NBDLHeadxCoo-1 #pts=2000
* Minval=     3.8422401428e+01 at time=         0.0000000000
* Maxval=     2.2528100586e+02 at time=       138.3987121582
    0.0000000000e+00    3.8422401428e+01
    9.9644668400e-02    3.8422401428e+01
    1.9928933680e-01    3.8422401428e+01
    2.9893401265e-01    3.8422401428e+01
    3.9857867360e-01    3.8422401428e+01
    4.9822333455e-01    3.8422401428e+01
    5.9964740276e-01    3.8422401428e+01
    6.9929206371e-01    3.8422401428e+01
    7.9893672466e-01    3.8422401428e+01
    8.9858138561e-01    3.8422401428e+01
    9.9822604656e-01    3.8422401428e+01
    1.0996501446e+00    3.8422500610e+01
    1.1992948055e+00    3.8422500610e+01
    1.2989393473e+00    3.8422500610e+01
    1.3985841274e+00    3.8422500610e+01
    1.4982287884e+00    3.8422599792e+01
    1.5996527672e+00    3.8422599792e+01
    1.6992975473e+00    3.8422599792e+01
    1.7989420891e+00    3.8422698975e+01
    1.8985867500e+00    3.8422698975e+01
    1.9982315302e+00    3.8422698975e+01
    2.0996553898e+00    3.8422798157e+01
    2.1993002892e+00    3.8422798157e+01
    2.2991647720e+00    3.8422897339e+01
    2.3999791145e+00    3.8423000336e+01
    2.4998238087e+00    3.8423000336e+01
    2.5985286236e+00    3.8423099518e+01
    2.6996932030e+00    3.8423099518e+01
    2.7987484932e+00    3.8423202515e+01
    2.8991234303e+00    3.8423301697e+01
    2.9988389015e+00    3.8423400879e+01
    3.0993437767e+00    3.8423400879e+01
    3.1982891560e+00    3.8423500061e+01
    3.2986841202e+00    3.8423599243e+01
    3.3985090256e+00    3.8423698425e+01
    3.4990139008e+00    3.8423797607e+01
    3.5989487171e+00    3.8423900604e+01
    3.6982440948e+00    3.8423999786e+01
    3.7990787029e+00    3.8424098969e+01
    3.8992338181e+00    3.8424201965e+01
    3.9990787506e+00    3.8424301147e+01
    4.0995831490e+00    3.8424400330e+01
    4.1991882324e+00    3.8424499512e+01
    4.2982439995e+00    3.8424598694e+01
    4.3992090225e+00    3.8424797058e+01
    4.4982638359e+00    3.8424900055e+01
    4.5990986824e+00    3.8424999237e+01
    4.6996035576e+00    3.8425201416e+01
    4.7982192039e+00    3.8425300598e+01
    4.8989439011e+00    3.8425399780e+01
    4.9996685982e+00    3.8425598145e+01
    5.0981740952e+00    3.8425697327e+01
    5.1987695694e+00    3.8425899506e+01
    5.2993845940e+00    3.8426002502e+01
    5.3986601830e+00    3.8426200867e+01
    5.4982647896e+00    3.8426399231e+01
    5.5995392799e+00    3.8426498413e+01
    5.6992545128e+00    3.8426700592e+01
    5.7985301018e+00    3.8426898956e+01
    5.8985748291e+00    3.8427001953e+01
    5.9991698265e+00    3.8427200317e+01
    6.0995655060e+00    3.8427398682e+01
    6.1991906166e+00    3.8427597046e+01
    6.2996954918e+00    3.8427799225e+01
    6.3995203972e+00    3.8428001404e+01
    6.4997854233e+00    3.8428199768e+01
    6.5985112190e+00    3.8428398132e+01
    6.6983561516e+00    3.8428600311e+01
    6.7989516258e+00    3.8428802490e+01
    6.8997864723e+00    3.8429000854e+01
    6.9984021187e+00    3.8429199219e+01
    7.0992369652e+00    3.8429500580e+01
    7.1996116638e+00    3.8429698944e+01
    7.2995667458e+00    3.8429901123e+01
    7.3994121552e+00    3.8430198669e+01
    7.4983568192e+00    3.8430397034e+01
    7.5997409821e+00    3.8430599213e+01
    7.6982269287e+00    3.8430900574e+01
    7.7989516258e+00    3.8431098938e+01
    7.8984465599e+00    3.8431400299e+01
    7.9985113144e+00    3.8431602478e+01
    8.0993261337e+00    3.8431900024e+01
    8.1996107101e+00    3.8432197571e+01
    8.2989959717e+00    3.8432399750e+01
    8.3987312317e+00    3.8432701111e+01
    8.4988861084e+00    3.8432998657e+01
    8.5991506577e+00    3.8433300018e+01
    8.6983165741e+00    3.8433601379e+01
    8.7998313904e+00    3.8433898926e+01
    8.8985576630e+00    3.8434200287e+01
    8.9982719421e+00    3.8434501648e+01
    9.0989971161e+00    3.8434799194e+01
    9.1992816925e+00    3.8435100555e+01
    9.2983369827e+00    3.8435401917e+01
    9.3989324570e+00    3.8435699463e+01
    9.4987773895e+00    3.8436000824e+01
    9.5998325348e+00    3.8436401367e+01
    9.6990175247e+00    3.8436698914e+01
    9.7997226715e+00    3.8437000275e+01
    9.8991279602e+00    3.8437400818e+01
    9.9997425079e+00    3.8437698364e+01
    1.0098797798e+01    3.8437999725e+01
    1.0199743271e+01    3.8438400269e+01
    1.0299807549e+01    3.8438800812e+01
    1.0399191856e+01    3.8439102173e+01
    1.0499917030e+01    3.8439498901e+01
    1.0598423004e+01    3.8439800262e+01
    1.0699477196e+01    3.8440200806e+01
    1.0798642159e+01    3.8440597534e+01
    1.0899147987e+01    3.8440898895e+01
    1.0998312950e+01    3.8441299438e+01
    1.1098817825e+01    3.8441699982e+01
    1.1198533058e+01    3.8442100525e+01
    1.1298357964e+01    3.8442501068e+01
    1.1399083138e+01    3.8442901611e+01
    1.1499808311e+01    3.8443298340e+01
    1.1598314285e+01    3.8443698883e+01
    1.1699588776e+01    3.8444099426e+01
    1.1798315048e+01    3.8444499969e+01
    1.1898819923e+01    3.8444999695e+01
    1.1999085426e+01    3.8445400238e+01
    1.2099809647e+01    3.8445701599e+01
    1.2199215889e+01    3.8446197510e+01
    1.2299261093e+01    3.8446601868e+01
    1.2399875641e+01    3.8447097778e+01
    1.2499482155e+01    3.8447502136e+01
    1.2598997116e+01    3.8447998047e+01
    1.2699261665e+01    3.8448501587e+01
    1.2799878120e+01    3.8448898315e+01
    1.2898733139e+01    3.8449401855e+01
    1.2998888016e+01    3.8449798584e+01
    1.3099593163e+01    3.8450302124e+01
    1.3199768066e+01    3.8450798035e+01
    1.3299593925e+01    3.8451301575e+01
    1.3398980141e+01    3.8451801300e+01
    1.3498934746e+01    3.8452301025e+01
    1.3599769592e+01    3.8452701569e+01
    1.3698386192e+01    3.8453201294e+01
    1.3798871040e+01    3.8453701019e+01
    1.3899065971e+01    3.8454200745e+01
    1.3999900818e+01    3.8454799652e+01
    1.4098406792e+01    3.8455299377e+01
    1.4199131966e+01    3.8455699921e+01
    1.4298538208e+01    3.8456298828e+01
    1.4398273468e+01    3.8456802368e+01
    1.4499217033e+01    3.8457397461e+01
    1.4598822594e+01    3.8458000183e+01
    1.4699988365e+01    3.8458400726e+01
    1.4799942970e+01    3.8458999634e+01
    1.4898998260e+01    3.8459598541e+01
    1.4999922752e+01    3.8460201263e+01
    1.5099529266e+01    3.8460601807e+01
    1.5198494911e+01    3.8461200714e+01
    1.5299328804e+01    3.8461799622e+01
    1.5398824692e+01    3.8462402344e+01
    1.5498999596e+01    3.8462898254e+01
    1.5598715782e+01    3.8463500977e+01
    1.5700010300e+01    3.8464199066e+01
    1.5799176216e+01    3.8464797974e+01
    1.5898800850e+01    3.8465301514e+01
    1.5999416351e+01    3.8465999603e+01
    1.6099790573e+01    3.8466598511e+01
    1.6199945450e+01    3.8467102051e+01
    1.6299900055e+01    3.8467800140e+01
    1.6398296356e+01    3.8468399048e+01
    1.6500011444e+01    3.8469001770e+01
    1.6599306107e+01    3.8469699860e+01
    1.6699020386e+01    3.8470298767e+01
    1.6798295975e+01    3.8470901489e+01
    1.6898691177e+01    3.8471599579e+01
    1.6998975754e+01    3.8472297668e+01
    1.7099700928e+01    3.8472900391e+01
    1.7198406219e+01    3.8473598480e+01
    1.7298910141e+01    3.8474300385e+01
    1.7399524689e+01    3.8474899292e+01
    1.7498689651e+01    3.8475601196e+01
    1.7599744797e+01    3.8476299286e+01
    1.7698358536e+01    3.8476898193e+01
    1.7799982071e+01    3.8477699280e+01
    1.7899366379e+01    3.8478302002e+01
    1.7998420715e+01    3.8479099274e+01
    1.8098266602e+01    3.8479698181e+01
    1.8199871063e+01    3.8480499268e+01
    1.8299825668e+01    3.8481101990e+01
    1.8398330688e+01    3.8481899261e+01
    1.8499273300e+01    3.8482700348e+01
    1.8599557877e+01    3.8483299255e+01
    1.8699491501e+01    3.8484100342e+01
    1.8799425125e+01    3.8484798431e+01
    1.8898698807e+01    3.8485599518e+01
    1.8999511719e+01    3.8486297607e+01
    1.9099355698e+01    3.8487098694e+01
    1.9198740005e+01    3.8487800598e+01
    1.9299703598e+01    3.8488498688e+01
    1.9399986267e+01    3.8489398956e+01
    1.9499130249e+01    3.8490100861e+01
    1.9599414825e+01    3.8490898132e+01
    1.9699018478e+01    3.8491699219e+01
    1.9798511505e+01    3.8492500305e+01
    1.9899894714e+01    3.8493301392e+01
    1.9999868393e+01    3.8493999481e+01
    2.0098243713e+01    3.8494899750e+01
    2.0199516296e+01    3.8495700836e+01
    2.0298349380e+01    3.8496398926e+01
    2.0399272919e+01    3.8497299194e+01
    2.0499225616e+01    3.8498100281e+01
    2.0599620819e+01    3.8498901367e+01
    2.0699132919e+01    3.8499801636e+01
    2.0798406601e+01    3.8500598907e+01
    2.0900009155e+01    3.8501399994e+01
    2.0998754501e+01    3.8502300262e+01
    2.1099567413e+01    3.8503200531e+01
    2.1198949814e+01    3.8503997803e+01
    2.1299453735e+01    3.8504798889e+01
    2.1398307800e+01    3.8505699158e+01
    2.1499910355e+01    3.8506599426e+01
    2.1599403381e+01    3.8507499695e+01
    2.1698896408e+01    3.8508399963e+01
    2.1798519135e+01    3.8509201050e+01
    2.1899902344e+01    3.8510101318e+01
    2.2000036240e+01    3.8511001587e+01
    2.2098560333e+01    3.8512001038e+01
    2.2199081421e+01    3.8512901306e+01
    2.2299676895e+01    3.8513801575e+01
    2.2398269653e+01    3.8514701843e+01
    2.2500001907e+01    3.8515602112e+01
    2.2599164963e+01    3.8516502380e+01
    2.2699777603e+01    3.8517398834e+01
    2.2798370361e+01    3.8518299103e+01
    2.2899553299e+01    3.8519298553e+01
    2.2999816895e+01    3.8520198822e+01
    2.3099990845e+01    3.8521202087e+01
    2.3199373245e+01    3.8522098541e+01
    2.3298536301e+01    3.8523101807e+01
    2.3399717331e+01    3.8524101257e+01
    2.3498661041e+01    3.8525001526e+01
    2.3599273682e+01    3.8526000977e+01
    2.3698217392e+01    3.8527000427e+01
    2.3798368454e+01    3.8527999878e+01
    2.3899421692e+01    3.8528900146e+01
    2.3998275757e+01    3.8529899597e+01
    2.4099327087e+01    3.8530998230e+01
    2.4199699402e+01    3.8532001495e+01
    2.4298751831e+01    3.8532997131e+01
    2.4399604797e+01    3.8533901215e+01
    2.4499206543e+01    3.8534999847e+01
    2.4598808289e+01    3.8535999298e+01
    2.4699642181e+01    3.8537101746e+01
    2.4799024582e+01    3.8538002014e+01
    2.4898647308e+01    3.8539100647e+01
    2.4999809265e+01    3.8540199280e+01
    2.5099853516e+01    3.8541297913e+01
    2.5200025558e+01    3.8542297363e+01
    2.5298309326e+01    3.8543399811e+01
    2.5398681641e+01    3.8544403076e+01
    2.5498743057e+01    3.8545501709e+01
    2.5599245071e+01    3.8546600342e+01
    2.5699747086e+01    3.8547599792e+01
    2.5799570084e+01    3.8548801422e+01
    2.5899982452e+01    3.8549800873e+01
    2.5998575211e+01    3.8550899506e+01
    2.6099498749e+01    3.8552001953e+01
    2.6199342728e+01    3.8553100586e+01
    2.6299074173e+01    3.8554199219e+01
    2.6398366928e+01    3.8555400848e+01
    2.6498977661e+01    3.8556499481e+01
    2.6598798752e+01    3.8557601929e+01
    2.6698730469e+01    3.8558700562e+01
    2.6798793793e+01    3.8559799194e+01
    2.6898506165e+01    3.8561000824e+01
    2.6999008179e+01    3.8562198639e+01
    2.7098630905e+01    3.8563301086e+01
    2.7199901581e+01    3.8564498901e+01
    2.7299303055e+01    3.8565601349e+01
    2.7398794174e+01    3.8566799164e+01
    2.7499847412e+01    3.8567901611e+01
    2.7598569870e+01    3.8569198608e+01
    2.7698852539e+01    3.8570301056e+01
    2.7799793243e+01    3.8571498871e+01
    2.7898735046e+01    3.8572700500e+01
    2.7999897003e+01    3.8573898315e+01
    2.8099388123e+01    3.8575099945e+01
    2.8199010849e+01    3.8576301575e+01
    2.8299072266e+01    3.8577499390e+01
    2.8399335861e+01    3.8578800201e+01
    2.8499835968e+01    3.8580001831e+01
    2.8598779678e+01    3.8581199646e+01
    2.8698381424e+01    3.8582500458e+01
    2.8799102783e+01    3.8583602905e+01
    2.8899492264e+01    3.8584899902e+01
    2.8999553680e+01    3.8586097717e+01
    2.9099945068e+01    3.8587398529e+01
    2.9199106216e+01    3.8588699341e+01
    2.9299388885e+01    3.8590000153e+01
    2.9398529053e+01    3.8591197968e+01
    2.9499269485e+01    3.8592498779e+01
    2.9599090576e+01    3.8593700409e+01
    2.9699132919e+01    3.8595100403e+01
    2.9798532486e+01    3.8596397400e+01
    2.9900024414e+01    3.8597702026e+01
    2.9999864578e+01    3.8598899841e+01
    3.0098255157e+01    3.8600299835e+01
    3.0198736191e+01    3.8601600647e+01
    3.0299896240e+01    3.8602897644e+01
    3.0399276733e+01    3.8604301453e+01
    3.0499776840e+01    3.8605499268e+01
    3.0598606110e+01    3.8606899261e+01
    3.0699546814e+01    3.8608200073e+01
    3.0799386978e+01    3.8609600067e+01
    3.0898416519e+01    3.8610900879e+01
    3.0998367310e+01    3.8612400055e+01
    3.1099966049e+01    3.8613700867e+01
    3.1199476242e+01    3.8615200043e+01
    3.1298437119e+01    3.8616500854e+01
    3.1399705887e+01    3.8617900848e+01
    3.1498865128e+01    3.8619400024e+01
    3.1599475861e+01    3.8620700836e+01
    3.1698324203e+01    3.8622100830e+01
    3.1799463272e+01    3.8623600006e+01
    3.1898384094e+01    3.8625000000e+01
    3.1998443604e+01    3.8626502991e+01
    3.2099933624e+01    3.8627998352e+01
    3.2199752808e+01    3.8629402161e+01
    3.2298690796e+01    3.8630897522e+01
    3.2398620605e+01    3.8632400513e+01
    3.2498348236e+01    3.8633800507e+01
    3.2599399567e+01    3.8635398865e+01
    3.2698448181e+01    3.8636901855e+01
    3.2799274445e+01    3.8638401031e+01
    3.2899005890e+01    3.8639999390e+01
    3.2999153137e+01    3.8641502380e+01
    3.3098773956e+01    3.8643100739e+01
    3.3199272156e+01    3.8644599915e+01
    3.3298999786e+01    3.8646198273e+01
    3.3398597717e+01    3.8647800446e+01
    3.3499206543e+01    3.8649398804e+01
    3.3598915100e+01    3.8651100159e+01
    3.3699726105e+01    3.8652599335e+01
    3.3799453735e+01    3.8654300690e+01
    3.3898742676e+01    3.8655899048e+01
    3.3998802185e+01    3.8657600403e+01
    3.4099830627e+01    3.8659301758e+01
    3.4199890137e+01    3.8661003113e+01
    3.4298938751e+01    3.8662700653e+01
    3.4398647308e+01    3.8664299011e+01
    3.4498687744e+01    3.8666099548e+01
    3.4598526001e+01    3.8667800903e+01
    3.4699245453e+01    3.8669502258e+01
    3.4799964905e+01    3.8671401978e+01
    3.4898441315e+01    3.8673099518e+01
    3.4999069214e+01    3.8674900055e+01
    3.5099788666e+01    3.8676799774e+01
    3.5199497223e+01    3.8678600311e+01
    3.5298217773e+01    3.8680400848e+01
    3.5398296356e+01    3.8682197571e+01
    3.5498992920e+01    3.8684101105e+01
    3.5599712372e+01    3.8685901642e+01
    3.5698322296e+01    3.8687900543e+01
    3.5799369812e+01    3.8689800262e+01
    3.5898418427e+01    3.8691699982e+01
    3.5998149872e+01    3.8693698883e+01
    3.6098976135e+01    3.8695602417e+01
    3.6198352814e+01    3.8697502136e+01
    3.6298393250e+01    3.8699501038e+01
    3.6399570465e+01    3.8701599121e+01
    3.6498947144e+01    3.8703598022e+01
    3.6599117279e+01    3.8705699921e+01
    3.6699264526e+01    3.8707599640e+01
    3.6798862457e+01    3.8709701538e+01
    3.6898372650e+01    3.8711898804e+01
    3.6998302460e+01    3.8713901520e+01
    3.7099479675e+01    3.8716102600e+01
    3.7199756622e+01    3.8718299866e+01
    3.7299797058e+01    3.8720397949e+01
    3.7398517609e+01    3.8722599030e+01
    3.7498573303e+01    3.8724800110e+01
    3.7599529266e+01    3.8726997375e+01
    3.7698799133e+01    3.8729301453e+01
    3.7798618317e+01    3.8731498718e+01
    3.7898567200e+01    3.8733798981e+01
    3.7998844147e+01    3.8736099243e+01
    3.8099098206e+01    3.8738399506e+01
    3.8199378967e+01    3.8740699768e+01
    3.8298755646e+01    3.8743099213e+01
    3.8398685455e+01    3.8745498657e+01
    3.8498611450e+01    3.8747901917e+01
    3.8598888397e+01    3.8750400543e+01
    3.8699386597e+01    3.8752799988e+01
    3.8799335480e+01    3.8755298615e+01
    3.8898273468e+01    3.8757801056e+01
    3.8999870300e+01    3.8760299683e+01
    3.9098808289e+01    3.8762802124e+01
    3.9199634552e+01    3.8765399933e+01
    3.9299468994e+01    3.8768001556e+01
    3.9399505615e+01    3.8770599365e+01
    3.9498111725e+01    3.8773200989e+01
    3.9598609924e+01    3.8775798798e+01
    3.9699085236e+01    3.8778598785e+01
    3.9798591614e+01    3.8781200409e+01
    3.9898097992e+01    3.8784000397e+01
    3.9999252319e+01    3.8786697388e+01
    4.0099418640e+01    3.8789497375e+01
    4.0199455261e+01    3.8792301178e+01
    4.0298393250e+01    3.8795200348e+01
    4.0398777008e+01    3.8798000336e+01
    4.0499603271e+01    3.8800899506e+01
    4.0598758698e+01    3.8803802490e+01
    4.0699802399e+01    3.8806800842e+01
    4.0799289703e+01    3.8809700012e+01
    4.0899673462e+01    3.8812702179e+01
    4.0999507904e+01    3.8815700531e+01
    4.1098991394e+01    3.8818698883e+01
    4.1198806763e+01    3.8821800232e+01
    4.1298732758e+01    3.8824897766e+01
    4.1399116516e+01    3.8827999115e+01
    4.1499610901e+01    3.8831199646e+01
    4.1598548889e+01    3.8834300995e+01
    4.1698692322e+01    3.8837501526e+01
    4.1799297333e+01    3.8840801239e+01
    4.1898361206e+01    3.8844001770e+01
    4.1999626160e+01    3.8847297668e+01
    4.2098121643e+01    3.8850700378e+01
    4.2198612213e+01    3.8854000092e+01
    4.2299198151e+01    3.8857299805e+01
    4.2399471283e+01    3.8860801697e+01
    4.2498977661e+01    3.8864200592e+01
    4.2599800110e+01    3.8867698669e+01
    4.2699611664e+01    3.8871200562e+01
    4.2799667358e+01    3.8874801636e+01
    4.2898159027e+01    3.8878200531e+01
    4.2999443054e+01    3.8881900787e+01
    4.3099586487e+01    3.8885501862e+01
    4.3198169708e+01    3.8889099121e+01
    4.3299781799e+01    3.8892799377e+01
    4.3399375916e+01    3.8896598816e+01
    4.3498767853e+01    3.8900299072e+01
    4.3598251343e+01    3.8903999329e+01
    4.3699405670e+01    3.8907897949e+01
    4.3798355103e+01    3.8911697388e+01
    4.3899620056e+01    3.8915599823e+01
    4.3998771667e+01    3.8919498444e+01
    4.4099483490e+01    3.8923400879e+01
    4.4198547363e+01    3.8927398682e+01
    4.4298137665e+01    3.8931301117e+01
    4.4399509430e+01    3.8935401917e+01
    4.4498901367e+01    3.8939498901e+01
    4.4598251343e+01    3.8943599701e+01
    4.4699203491e+01    3.8947799683e+01
    4.4798465729e+01    3.8951900482e+01
    4.4898406982e+01    3.8956100464e+01
    4.4999225616e+01    3.8960399628e+01
    4.5098159790e+01    3.8964698792e+01
    4.5198978424e+01    3.8969100952e+01
    4.5299667358e+01    3.8973400116e+01
    4.5399715424e+01    3.8977897644e+01
    4.5499858856e+01    3.8982299805e+01
    4.5599136353e+01    3.8986698151e+01
    4.5698177338e+01    3.8991298676e+01
    4.5799438477e+01    3.8995899200e+01
    4.5898605347e+01    3.9000499725e+01
    4.5999423981e+01    3.9005199432e+01
    4.6099582672e+01    3.9009899139e+01
    4.6198402405e+01    3.9014602661e+01
    4.6299442291e+01    3.9019500732e+01
    4.6399490356e+01    3.9024299622e+01
    4.6498420715e+01    3.9029102325e+01
    4.6598339081e+01    3.9034099579e+01
    4.6698059082e+01    3.9039001465e+01
    4.6799007416e+01    3.9043998718e+01
    4.6899822235e+01    3.9049201965e+01
    4.6999080658e+01    3.9054298401e+01
    4.7099460602e+01    3.9059501648e+01
    4.7199394226e+01    3.9064701080e+01
    4.7299533844e+01    3.9069999695e+01
    4.7399578094e+01    3.9075401306e+01
    4.7499496460e+01    3.9080802917e+01
    4.7599086761e+01    3.9086200714e+01
    4.7699134827e+01    3.9091598511e+01
    4.7798168182e+01    3.9097099304e+01
    4.7898326874e+01    3.9102699280e+01
    4.7999603271e+01    3.9108501434e+01
    4.8098747253e+01    3.9114196777e+01
    4.8199234009e+01    3.9120002747e+01
    4.8298271179e+01    3.9125801086e+01
    4.8398426056e+01    3.9131698608e+01
    4.8498233795e+01    3.9137699127e+01
    4.8599048615e+01    3.9143699646e+01
    4.8699203491e+01    3.9149898529e+01
    4.8798900604e+01    3.9155998230e+01
    4.8898834229e+01    3.9162200928e+01
    4.8998550415e+01    3.9168498993e+01
    4.9099803925e+01    3.9174900055e+01
    4.9199169159e+01    3.9181297302e+01
    4.9297966003e+01    3.9187702179e+01
    4.9399459839e+01    3.9194400787e+01
    4.9498275757e+01    3.9201000214e+01
    4.9599746704e+01    3.9207801819e+01
    4.9699352264e+01    3.9214599609e+01
    4.9798824310e+01    3.9221397400e+01
    4.9899421692e+01    3.9228500366e+01
    4.9998104095e+01    3.9235397339e+01
    5.0098217010e+01    3.9242599487e+01
    5.0199600220e+01    3.9249900818e+01
    5.0299201965e+01    3.9257099152e+01
    5.0399223328e+01    3.9264499664e+01
    5.0499576569e+01    3.9272098541e+01
    5.0599510193e+01    3.9279701233e+01
    5.0699131012e+01    3.9287200928e+01
    5.0799613953e+01    3.9295101166e+01
    5.0899085999e+01    3.9302902222e+01
    5.0999019623e+01    3.9310798645e+01
    5.1098617554e+01    3.9318801880e+01
    5.1199649811e+01    3.9327098846e+01
    5.1299667358e+01    3.9335300446e+01
    5.1399471283e+01    3.9343700409e+01
    5.1498741150e+01    3.9352100372e+01
    5.1598781586e+01    3.9360698700e+01
    5.1699150085e+01    3.9369400024e+01
    5.1798969269e+01    3.9378101349e+01
    5.1898769379e+01    3.9387100220e+01
    5.1998371124e+01    3.9395999908e+01
    5.2099288940e+01    3.9405300140e+01
    5.2198318481e+01    3.9414501190e+01
    5.2299343109e+01    3.9423900604e+01
    5.2398353577e+01    3.9433399200e+01
    5.2499160767e+01    3.9443099976e+01
    5.2598979950e+01    3.9452800751e+01
    5.2698688507e+01    3.9462699890e+01
    5.2798175812e+01    3.9472599030e+01
    5.2899528503e+01    3.9482898712e+01
    5.2999347687e+01    3.9493202209e+01
    5.3098354340e+01    3.9503501892e+01
    5.3198608398e+01    3.9514099121e+01
    5.3298076630e+01    3.9524799347e+01
    5.3398422241e+01    3.9535701752e+01
    5.3499340057e+01    3.9546699524e+01
    5.3599266052e+01    3.9557899475e+01
    5.3698200226e+01    3.9569000244e+01
    5.3798103333e+01    3.9580497742e+01
    5.3897922516e+01    3.9592102051e+01
    5.3999294281e+01    3.9604000092e+01
    5.4099529266e+01    3.9615898132e+01
    5.4197872162e+01    3.9627899170e+01
    5.4298130035e+01    3.9640098572e+01
    5.4398273468e+01    3.9652599335e+01
    5.4498046875e+01    3.9665100098e+01
    5.4598850250e+01    3.9678001404e+01
    5.4698993683e+01    3.9691001892e+01
    5.4798915863e+01    3.9704101562e+01
    5.4899368286e+01    3.9717498779e+01
    5.4999179840e+01    3.9730998993e+01
    5.5099323273e+01    3.9744697571e+01
    5.5198013306e+01    3.9758499146e+01
    5.5298248291e+01    3.9772598267e+01
    5.5399379730e+01    3.9787002563e+01
    5.5498748779e+01    3.9801399231e+01
    5.5598777771e+01    3.9816101074e+01
    5.5699558258e+01    3.9831199646e+01
    5.5798927307e+01    3.9846099854e+01
    5.5899528503e+01    3.9861598969e+01
    5.5998657227e+01    3.9876899719e+01
    5.6098117828e+01    3.9892601013e+01
    5.6198783875e+01    3.9908599854e+01
    5.6298393250e+01    3.9924800873e+01
    5.6398750305e+01    3.9941200256e+01
    5.6498645782e+01    3.9957801819e+01
    5.6598674774e+01    3.9974601746e+01
    5.6698921204e+01    3.9991699219e+01
    5.6799385071e+01    4.0009101868e+01
    5.6898952484e+01    4.0026599884e+01
    5.6999526978e+01    4.0044399261e+01
    5.7098320007e+01    4.0062202454e+01
    5.7199333191e+01    4.0080699921e+01
    5.7298351288e+01    4.0098899841e+01
    5.7399490356e+01    4.0117900848e+01
    5.7498283386e+01    4.0136699677e+01
    5.7598964691e+01    4.0155998230e+01
    5.7698768616e+01    4.0175498962e+01
    5.7797996521e+01    4.0195098877e+01
    5.7899227142e+01    4.0215301514e+01
    5.7999576569e+01    4.0235698700e+01
    5.8098827362e+01    4.0256099701e+01
    5.8198497772e+01    4.0276798248e+01
    5.8298843384e+01    4.0298000336e+01
    5.8398643494e+01    4.0319297791e+01
    5.8498092651e+01    4.0340900421e+01
    5.8599445343e+01    4.0363098145e+01
    5.8699024200e+01    4.0385200500e+01
    5.8799037933e+01    4.0407699585e+01
    5.8899032593e+01    4.0430400848e+01
    5.8999465942e+01    4.0453601837e+01
    5.9099040985e+01    4.0476799011e+01
    5.9199382782e+01    4.0500499725e+01
    5.9298736572e+01    4.0524299622e+01
    5.9398067474e+01    4.0548301697e+01
    5.9498390198e+01    4.0572898865e+01
    5.9598972321e+01    4.0597801208e+01
    5.9699310303e+01    4.0623001099e+01
    5.9798091888e+01    4.0647998810e+01
    5.9899219513e+01    4.0673900604e+01
    5.9997776031e+01    4.0699501038e+01
    6.0099014282e+01    4.0726100922e+01
    6.0199348450e+01    4.0752700806e+01
    6.0299571991e+01    4.0779602051e+01
    6.0398330688e+01    4.0806400299e+01
    6.0497982025e+01    4.0833702087e+01
    6.0599437714e+01    4.0861999512e+01
    6.0699329376e+01    4.0889999390e+01
    6.0798011780e+01    4.0917900085e+01
    6.0899459839e+01    4.0946998596e+01
    6.0999088287e+01    4.0975799561e+01
    6.1099308014e+01    4.1005199432e+01
    6.1198738098e+01    4.1034599304e+01
    6.1298168182e+01    4.1064300537e+01
    6.1397964478e+01    4.1094398499e+01
    6.1498046875e+01    4.1125000000e+01
    6.1599250793e+01    4.1156200409e+01
    6.1699466705e+01    4.1187400818e+01
    6.1798011780e+01    4.1218399048e+01
    6.1898445129e+01    4.1250297546e+01
    6.1998657227e+01    4.1282501221e+01
    6.2099288940e+01    4.1315101624e+01
    6.2198951721e+01    4.1347702026e+01
    6.2298828125e+01    4.1380699158e+01
    6.2398471832e+01    4.1413898468e+01
    6.2499229431e+01    4.1447898865e+01
    6.2599197388e+01    4.1481899261e+01
    6.2698192596e+01    4.1515899658e+01
    6.2798839569e+01    4.1550800323e+01
    6.2897724152e+01    4.1585399628e+01
    6.2999046326e+01    4.1621200562e+01
    6.3099250793e+01    4.1656898499e+01
    6.3198902130e+01    4.1692699432e+01
    6.3299079895e+01    4.1729099274e+01
    6.3399280548e+01    4.1765800476e+01
    6.3498706818e+01    4.1802600861e+01
    6.3597915649e+01    4.1839500427e+01
    6.3699317932e+01    4.1877799988e+01
    6.3799163818e+01    4.1915599823e+01
    6.3898590088e+01    4.1953800201e+01
    6.3998561859e+01    4.1992401123e+01
    6.4098861694e+01    4.2031600952e+01
    6.4198722839e+01    4.2070800781e+01
    6.4298446655e+01    4.2110401154e+01
    6.4398086548e+01    4.2150299072e+01
    6.4498489380e+01    4.2190799713e+01
    6.4597778320e+01    4.2231300354e+01
    6.4697959900e+01    4.2272499084e+01
    6.4798385620e+01    4.2314098358e+01
    6.4898658752e+01    4.2356101990e+01
    6.4998710632e+01    4.2398300171e+01
    6.5099563599e+01    4.2441200256e+01
    6.5199523926e+01    4.2484100342e+01
    6.5298233032e+01    4.2526901245e+01
    6.5399307251e+01    4.2571098328e+01
    6.5498718262e+01    4.2614799500e+01
    6.5599220276e+01    4.2659599304e+01
    6.5698707581e+01    4.2704200745e+01
    6.5798110962e+01    4.2749198914e+01
    6.5898178101e+01    4.2794898987e+01
    6.5999221802e+01    4.2841499329e+01
    6.6098075867e+01    4.2887298584e+01
    6.6199012756e+01    4.2934700012e+01
    6.6297950745e+01    4.2981399536e+01
    6.6399322510e+01    4.3029800415e+01
    6.6498275757e+01    4.3077499390e+01
    6.6598442078e+01    4.3126098633e+01
    6.6699501038e+01    4.3175601959e+01
    6.6797668457e+01    4.3224098206e+01
    6.6899276733e+01    4.3274799347e+01
    6.6998886108e+01    4.3324901581e+01
    6.7097702026e+01    4.3375000000e+01
    6.7198631287e+01    4.3426799774e+01
    6.7299224854e+01    4.3478698730e+01
    6.7398483276e+01    4.3530502319e+01
    6.7498939514e+01    4.3583499908e+01
    6.7599006653e+01    4.3636600494e+01
    6.7698585510e+01    4.3690002441e+01
    6.7798301697e+01    4.3743999481e+01
    6.7898124695e+01    4.3798500061e+01
    6.7998489380e+01    4.3853740692e+01
    6.8098533630e+01    4.3909420013e+01
    6.8197761536e+01    4.3965080261e+01
    6.8298805237e+01    4.4022357941e+01
    6.8398399353e+01    4.4079360962e+01
    6.8498306274e+01    4.4136970520e+01
    6.8599441528e+01    4.4195930481e+01
    6.8699142456e+01    4.4254608154e+01
    6.8798278809e+01    4.4313449860e+01
    6.8898643494e+01    4.4373641968e+01
    6.8998779297e+01    4.4434272766e+01
    6.9099159241e+01    4.4495597839e+01
    6.9198402405e+01    4.4556739807e+01
    6.9297859192e+01    4.4618690491e+01
    6.9398544312e+01    4.4681980133e+01
    6.9497917175e+01    4.4745079041e+01
    6.9597831726e+01    4.4809158325e+01
    6.9698181152e+01    4.4874130249e+01
    6.9798973083e+01    4.4939987183e+01
    6.9898551941e+01    4.5005752563e+01
    6.9998443604e+01    4.5072311401e+01
    7.0097778320e+01    4.5139240265e+01
    7.0199371338e+01    4.5208301544e+01
    7.0298492432e+01    4.5276371002e+01
    7.0398063660e+01    4.5345520020e+01
    7.0499092102e+01    4.5416267395e+01
    7.0599319458e+01    4.5487190247e+01
    7.0699462891e+01    4.5558830261e+01
    7.0799011230e+01    4.5630641937e+01
    7.0898696899e+01    4.5703338623e+01
    7.0998352051e+01    4.5776863098e+01
    7.1099258423e+01    4.5851982117e+01
    7.1197731018e+01    4.5926017761e+01
    7.1297607422e+01    4.6001842499e+01
    7.1398948669e+01    4.6079639435e+01
    7.1498405457e+01    4.6156810760e+01
    7.1598602295e+01    4.6235321045e+01
    7.1697830200e+01    4.6313919067e+01
    7.1798927307e+01    4.6394851685e+01
    7.1897697449e+01    4.6474700928e+01
    7.1998359680e+01    4.6556980133e+01
    7.2098571777e+01    4.6639690399e+01
    7.2197883606e+01    4.6722591400e+01
    7.2298316956e+01    4.6807380676e+01
    7.2399314880e+01    4.6893508911e+01
    7.2498626709e+01    4.6979099274e+01
    7.2598945618e+01    4.7066577911e+01
    7.2698692322e+01    4.7154418945e+01
    7.2798126221e+01    4.7242980957e+01
    7.2898551941e+01    4.7333427429e+01
    7.2999191284e+01    4.7425041199e+01
    7.3098640442e+01    4.7516677856e+01
    7.3198379517e+01    4.7609458923e+01
    7.3297790527e+01    4.7703071594e+01
    7.3398551941e+01    4.7798919678e+01
    7.3499404907e+01    4.7896041870e+01
    7.3598831177e+01    4.7992801666e+01
    7.3697570801e+01    4.8089931488e+01
    7.3799209595e+01    4.8191001892e+01
    7.3898300171e+01    4.8290737152e+01
    7.3997581482e+01    4.8391738892e+01
    7.4099105835e+01    4.8496162415e+01
    7.4198295593e+01    4.8599319458e+01
    7.4297798157e+01    4.8704029083e+01
    7.4398765564e+01    4.8811420441e+01
    7.4498062134e+01    4.8918197632e+01
    7.4598457336e+01    4.9027408600e+01
    7.4698760986e+01    4.9137588501e+01
    7.4798805237e+01    4.9248878479e+01
    7.4898643494e+01    4.9361061096e+01
    7.4999382019e+01    4.9475479126e+01
    7.5099090576e+01    4.9590103149e+01
    7.5199142456e+01    4.9706237793e+01
    7.5298736572e+01    4.9823200226e+01
    7.5397918701e+01    4.9940879822e+01
    7.5498970032e+01    5.0062160492e+01
    7.5597885132e+01    5.0182189941e+01
    7.5697601318e+01    5.0304458618e+01
    7.5797866821e+01    5.0428810120e+01
    7.5897674561e+01    5.0553878784e+01
    7.5998832703e+01    5.0681999207e+01
    7.6097885132e+01    5.0808872223e+01
    7.6199264526e+01    5.0940139771e+01
    7.6297637939e+01    5.1068908691e+01
    7.6397895813e+01    5.1201541901e+01
    7.6499259949e+01    5.1337043762e+01
    7.6598182678e+01    5.1470760345e+01
    7.6698432922e+01    5.1607700348e+01
    7.6798484802e+01    5.1745819092e+01
    7.6899040222e+01    5.1886089325e+01
    7.6997947693e+01    5.2025550842e+01
    7.7097732544e+01    5.2167709351e+01
    7.7198196411e+01    5.2312381744e+01
    7.7297668457e+01    5.2457149506e+01
    7.7398239136e+01    5.2605060577e+01
    7.7498809814e+01    5.2754489899e+01
    7.7598014832e+01    5.2903366089e+01
    7.7698471069e+01    5.3055759430e+01
    7.7797843933e+01    5.3208049774e+01
    7.7898605347e+01    5.3364021301e+01
    7.7998283386e+01    5.3519992828e+01
    7.8098297119e+01    5.3678009033e+01
    7.8198387146e+01    5.3837829590e+01
    7.8298370361e+01    5.3999076843e+01
    7.8398353577e+01    5.4161926270e+01
    7.8499252319e+01    5.4327911377e+01
    7.8598129272e+01    5.4492172241e+01
    7.8699333191e+01    5.4661987305e+01
    7.8798645020e+01    5.4830360413e+01
    7.8897628784e+01    5.4999801636e+01
    7.8998916626e+01    5.5174777985e+01
    7.9098770142e+01    5.5349029541e+01
    7.9198844910e+01    5.5525417328e+01
    7.9298042297e+01    5.5701866150e+01
    7.9398345947e+01    5.5882080078e+01
    7.9497871399e+01    5.6062530518e+01
    7.9598266602e+01    5.6246276855e+01
    7.9698440552e+01    5.6431449890e+01
    7.9799064636e+01    5.6619182587e+01
    7.9899040222e+01    5.6807430267e+01
    7.9998107910e+01    5.6995750427e+01
    8.0098953247e+01    5.7189231873e+01
    8.0198242188e+01    5.7381530762e+01
    8.0298515320e+01    5.7577461243e+01
    8.0399024963e+01    5.7775787354e+01
    8.0497955322e+01    5.7972751617e+01
    8.0597785950e+01    5.8173240662e+01
    8.0699172974e+01    5.8378822327e+01
    8.0797683716e+01    5.8580421448e+01
    8.0897964478e+01    5.8787441254e+01
    8.0997451782e+01    5.8994697571e+01
    8.1099136353e+01    5.9208541870e+01
    8.1198081970e+01    5.9418407440e+01
    8.1297897339e+01    5.9632080078e+01
    8.1399024963e+01    5.9850551605e+01
    8.1498397827e+01    6.0067188263e+01
    8.1598342896e+01    6.0286903381e+01
    8.1697586060e+01    6.0507030487e+01
    8.1798156738e+01    6.0732208252e+01
    8.1898513794e+01    6.0958759308e+01
    8.1999191284e+01    6.1188117981e+01
    8.2098320007e+01    6.1415920258e+01
    8.2198097229e+01    6.1647251129e+01
    8.2298446655e+01    6.1881912231e+01
    8.2398902893e+01    6.2118942261e+01
    8.2497581482e+01    6.2353672028e+01
    8.2597923279e+01    6.2594509125e+01
    8.2699264526e+01    6.2839828491e+01
    8.2797721863e+01    6.3080200195e+01
    8.2898063660e+01    6.3327281952e+01
    8.2998069763e+01    6.3575641632e+01
    8.3099052429e+01    6.3828559875e+01
    8.3198272705e+01    6.4079101562e+01
    8.3298927307e+01    6.4335456848e+01
    8.3399261475e+01    6.4593170166e+01
    8.3498359680e+01    6.4849739075e+01
    8.3598579407e+01    6.5111396790e+01
    8.3699119568e+01    6.5376098633e+01
    8.3797889709e+01    6.5638244629e+01
    8.3897422791e+01    6.5904556274e+01
    8.3999053955e+01    6.6178619385e+01
    8.4098800659e+01    6.6449943542e+01
    8.4198554993e+01    6.6723297119e+01
    8.4297531128e+01    6.6996849060e+01
    8.4399162292e+01    6.7279899597e+01
    8.4498252869e+01    6.7558059692e+01
    8.4598999023e+01    6.7843238831e+01
    8.4698745728e+01    6.8127700806e+01
    8.4798492432e+01    6.8414558411e+01
    8.4898231506e+01    6.8703628540e+01
    8.4997978210e+01    6.8994888306e+01
    8.5097717285e+01    6.9288558960e+01
    8.5197463989e+01    6.9584510803e+01
    8.5299087524e+01    6.9888420105e+01
    8.5398826599e+01    7.0188941956e+01
    8.5498565674e+01    7.0491844177e+01
    8.5598304749e+01    7.0797012329e+01
    8.5698043823e+01    7.1104553223e+01
    8.5797782898e+01    7.1414360046e+01
    8.5897521973e+01    7.1726531982e+01
    8.5999145508e+01    7.2046958923e+01
    8.6098884583e+01    7.2363830566e+01
    8.6197860718e+01    7.2680580139e+01
    8.6297599792e+01    7.3002044678e+01
    8.6399215698e+01    7.3332023621e+01
    8.6498954773e+01    7.3658248901e+01
    8.6598701477e+01    7.3986709595e+01
    8.6698440552e+01    7.4317588806e+01
    8.6798179626e+01    7.4650695801e+01
    8.6897918701e+01    7.4986213684e+01
    8.6997657776e+01    7.5324028015e+01
    8.7097396851e+01    7.5664062500e+01
    8.7199020386e+01    7.6012992859e+01
    8.7298759460e+01    7.6357803345e+01
    8.7398498535e+01    7.6704795837e+01
    8.7498237610e+01    7.7054183960e+01
    8.7597976685e+01    7.7405853271e+01
    8.7697715759e+01    7.7759689331e+01
    8.7797454834e+01    7.8115898132e+01
    8.7899078369e+01    7.8481185913e+01
    8.7998817444e+01    7.8841903687e+01
    8.8098556519e+01    7.9204872131e+01
    8.8198295593e+01    7.9570182800e+01
    8.8298034668e+01    7.9937629700e+01
    8.8397773743e+01    8.0307304382e+01
    8.8497512817e+01    8.0679229736e+01
    8.8599136353e+01    8.1060424805e+01
    8.8698883057e+01    8.1436759949e+01
    8.8798622131e+01    8.1815208435e+01
    8.8898368835e+01    8.2195968628e+01
    8.8998107910e+01    8.2578720093e+01
    8.9097854614e+01    8.2963768005e+01
    8.9197593689e+01    8.3350807190e+01
    8.9297340393e+01    8.3740020752e+01
    8.9398971558e+01    8.4138671875e+01
    8.9498710632e+01    8.4532119751e+01
    8.9598457336e+01    8.4927528381e+01
    8.9698204041e+01    8.5324989319e+01
    8.9797943115e+01    8.5724395752e+01
    8.9897682190e+01    8.6125747681e+01
    8.9997428894e+01    8.6529136658e+01
    9.0099052429e+01    8.6942138672e+01
    9.0198791504e+01    8.7349365234e+01
    9.0298530579e+01    8.7758506775e+01
    9.0398101807e+01    8.8168769836e+01
    9.0497840881e+01    8.8581520081e+01
    9.0597579956e+01    8.8996170044e+01
    9.0699134827e+01    8.9420150757e+01
    9.0798866272e+01    8.9838249207e+01
    9.0898605347e+01    9.0258117676e+01
    9.0998344421e+01    9.0679656982e+01
    9.1098083496e+01    9.1102859497e+01
    9.1197814941e+01    9.1527809143e+01
    9.1297554016e+01    9.1954200745e+01
    9.1399169922e+01    9.2390335083e+01
    9.1498901367e+01    9.2819869995e+01
    9.1598640442e+01    9.3250938416e+01
    9.1698371887e+01    9.3683517456e+01
    9.1798103333e+01    9.4117401123e+01
    9.1897834778e+01    9.4552787781e+01
    9.1997566223e+01    9.4989562988e+01
    9.2097297668e+01    9.5427520752e+01
    9.2198913574e+01    9.5875228882e+01
    9.2298645020e+01    9.6315803528e+01
    9.2398376465e+01    9.6757560730e+01
    9.2498100281e+01    9.7200561523e+01
    9.2597831726e+01    9.7644592285e+01
    9.2697563171e+01    9.8089767456e+01
    9.2797286987e+01    9.8535980225e+01
    9.2898727417e+01    9.8990921021e+01
    9.2998085022e+01    9.9437362671e+01
    9.3099113464e+01    9.9892234802e+01
    9.3198059082e+01    1.0033875275e+02
    9.3298667908e+01    1.0079346466e+02
    9.3399070740e+01    1.0124811554e+02
    9.3497413635e+01    1.0169414520e+02
    9.3597404480e+01    1.0214852142e+02
    9.3699035645e+01    1.0261098480e+02
    9.3798622131e+01    1.0306443024e+02
    9.3898002625e+01    1.0351809692e+02
    9.3999015808e+01    1.0397922516e+02
    9.4097991943e+01    1.0443133545e+02
    9.4198593140e+01    1.0489187622e+02
    9.4298995972e+01    1.0535159302e+02
    9.4397369385e+01    1.0580233765e+02
    9.4497375488e+01    1.0626145172e+02
    9.4598983765e+01    1.0672686005e+02
    9.4698585510e+01    1.0718431091e+02
    9.4797622681e+01    1.0763932037e+02
    9.4898628235e+01    1.0810218811e+02
    9.4997642517e+01    1.0855712891e+02
    9.5098251343e+01    1.0901928711e+02
    9.5198661804e+01    1.0947956848e+02
    9.5298881531e+01    1.0993997192e+02
    9.5398895264e+01    1.1039849854e+02
    9.5498725891e+01    1.1085614014e+02
    9.5598358154e+01    1.1131188965e+02
    9.5697807312e+01    1.1176775360e+02
    9.5798828125e+01    1.1222966766e+02
    9.5897888184e+01    1.1268272400e+02
    9.5998527527e+01    1.1314178467e+02
    9.6098976135e+01    1.1360089874e+02
    9.6197471619e+01    1.1404920959e+02
    9.6297546387e+01    1.1450547028e+02
    9.6397430420e+01    1.1495877075e+02
    9.6498870850e+01    1.1541994476e+02
    9.6598381042e+01    1.1587133026e+02
    9.6697700500e+01    1.1632075500e+02
    9.6798583984e+01    1.1677698517e+02
    9.6897537231e+01    1.1722447205e+02
    9.6998046875e+01    1.1767773438e+02
    9.7098373413e+01    1.1812897491e+02
    9.7198509216e+01    1.1857920837e+02
    9.7298469543e+01    1.1902744293e+02
    9.7398246765e+01    1.1947466278e+02
    9.7497848511e+01    1.1991984558e+02
    9.7598976135e+01    1.2037065887e+02
    9.7698219299e+01    1.2081280518e+02
    9.7798988342e+01    1.2126050568e+02
    9.7897872925e+01    1.2169958496e+02
    9.7998291016e+01    1.2214417267e+02
    9.8098526001e+01    1.2258769989e+02
    9.8198585510e+01    1.2302915955e+02
    9.8298461914e+01    1.2346854401e+02
    9.8398170471e+01    1.2390684509e+02
    9.8497703552e+01    1.2434307861e+02
    9.8598655701e+01    1.2478481293e+02
    9.8697837830e+01    1.2521685028e+02
    9.8798530579e+01    1.2565623474e+02
    9.8899055481e+01    1.2609246826e+02
    9.8997642517e+01    1.2652034760e+02
    9.9097816467e+01    1.2695435333e+02
    9.9197822571e+01    1.2738623810e+02
    9.9297660828e+01    1.2781597137e+02
    9.9398994446e+01    1.2825187683e+02
    9.9498489380e+01    1.2867832947e+02
    9.9597824097e+01    1.2910362244e+02
    9.9698646545e+01    1.2953404236e+02
    9.9797653198e+01    1.2995602417e+02
    9.9898139954e+01    1.3038308716e+02
    9.9998420715e+01    1.3080802917e+02
    1.0009857178e+02    1.3123170471e+02
    1.0019857025e+02    1.3165422058e+02
    1.0029840088e+02    1.3207450867e+02
    1.0039807129e+02    1.3249362183e+02
    1.0049774933e+02    1.3291120911e+02
    1.0059871674e+02    1.3333401489e+02
    1.0069790649e+02    1.3374851990e+02
    1.0079891205e+02    1.3416921997e+02
    1.0089777374e+02    1.3458030701e+02
    1.0099839020e+02    1.3499862671e+02
    1.0109758759e+02    1.3540908813e+02
    1.0119837189e+02    1.3582604980e+02
    1.0129743958e+02    1.3623471069e+02
    1.0139807892e+02    1.3664981079e+02
    1.0149891663e+02    1.3706393433e+02
    1.0159764862e+02    1.3746961975e+02
    1.0169760132e+02    1.3787939453e+02
    1.0179881287e+02    1.3829306030e+02
    1.0189785767e+02    1.3869749451e+02
    1.0199793243e+02    1.3910620117e+02
    1.0209844208e+02    1.3951550293e+02
    1.0219886780e+02    1.3992440796e+02
    1.0229778290e+02    1.4032569885e+02
    1.0239865112e+02    1.4073539734e+02
    1.0249768066e+02    1.4113641357e+02
    1.0259866333e+02    1.4154559326e+02
    1.0269889832e+02    1.4195069885e+02
    1.0279882050e+02    1.4235389709e+02
    1.0289747620e+02    1.4275219727e+02
    1.0299778748e+02    1.4315719604e+02
    1.0309854126e+02    1.4356269836e+02
    1.0319828796e+02    1.4396369934e+02
    1.0329804230e+02    1.4436500549e+02
    1.0339781189e+02    1.4476559448e+02
    1.0349794769e+02    1.4516780090e+02
    1.0359795380e+02    1.4556950378e+02
    1.0369779205e+02    1.4597000122e+02
    1.0379749298e+02    1.4636900330e+02
    1.0389865112e+02    1.4677500916e+02
    1.0399804688e+02    1.4717239380e+02
    1.0409868622e+02    1.4757521057e+02
    1.0419751740e+02    1.4797048950e+02
    1.0429743195e+02    1.4837060547e+02
    1.0439785004e+02    1.4877169800e+02
    1.0449772644e+02    1.4917030334e+02
    1.0459786224e+02    1.4957070923e+02
    1.0469785309e+02    1.4996958923e+02
    1.0479769135e+02    1.5036810303e+02
    1.0489739227e+02    1.5076629639e+02
    1.0499852753e+02    1.5116900635e+02
    1.0509795380e+02    1.5156629944e+02
    1.0519859314e+02    1.5196681213e+02
    1.0529772949e+02    1.5236230469e+02
    1.0539813995e+02    1.5276269531e+02
    1.0549812317e+02    1.5316049194e+02
    1.0559815216e+02    1.5355940247e+02
    1.0569831085e+02    1.5395809937e+02
    1.0579833221e+02    1.5435629272e+02
    1.0589765167e+02    1.5475158691e+02
    1.0599864960e+02    1.5515361023e+02
    1.0609809113e+02    1.5554890442e+02
    1.0619859314e+02    1.5594859314e+02
    1.0629795074e+02    1.5634349060e+02
    1.0639821625e+02    1.5674110413e+02
    1.0649887085e+02    1.5714169312e+02
    1.0659748077e+02    1.5753320312e+02
    1.0669786835e+02    1.5793080139e+02
    1.0679812622e+02    1.5832899475e+02
    1.0689826965e+02    1.5872549438e+02
    1.0699777985e+02    1.5911999512e+02
    1.0709893036e+02    1.5952088928e+02
    1.0719869232e+02    1.5991589355e+02
    1.0729797363e+02    1.6030841064e+02
    1.0739875031e+02    1.6070759583e+02
    1.0749813843e+02    1.6109989929e+02
    1.0759854889e+02    1.6149630737e+02
    1.0769747162e+02    1.6188729858e+02
    1.0779802704e+02    1.6228439331e+02
    1.0789810181e+02    1.6267889404e+02
    1.0799841309e+02    1.6307379150e+02
    1.0809825134e+02    1.6346620178e+02
    1.0819824219e+02    1.6386019897e+02
    1.0829804993e+02    1.6425180054e+02
    1.0839788818e+02    1.6464419556e+02
    1.0849759674e+02    1.6503509521e+02
    1.0859871674e+02    1.6543159485e+02
    1.0869793701e+02    1.6582009888e+02
    1.0879882050e+02    1.6621420288e+02
    1.0889797974e+02    1.6660180664e+02
    1.0899862671e+02    1.6699470520e+02
    1.0909765625e+02    1.6738081360e+02
    1.0919754791e+02    1.6776998901e+02
    1.0929830170e+02    1.6816130066e+02
    1.0939813995e+02    1.6854971313e+02
    1.0949820709e+02    1.6893710327e+02
    1.0959815979e+02    1.6932490540e+02
    1.0969774628e+02    1.6970989990e+02
    1.0979747772e+02    1.7009429932e+02
    1.0989858246e+02    1.7048388672e+02
    1.0999809265e+02    1.7086700439e+02
    1.1009748077e+02    1.7124929810e+02
    1.1019824219e+02    1.7163571167e+02
    1.1029740906e+02    1.7201559448e+02
    1.1039794922e+02    1.7239959717e+02
    1.1049836731e+02    1.7278279114e+02
    1.1059825134e+02    1.7316279602e+02
    1.1069844055e+02    1.7354360962e+02
    1.1079827118e+02    1.7392250061e+02
    1.1089823914e+02    1.7430079651e+02
    1.1099862671e+02    1.7467930603e+02
    1.1109837341e+02    1.7505511475e+02
    1.1119757843e+02    1.7542869568e+02
    1.1129856873e+02    1.7580740356e+02
    1.1139746857e+02    1.7617691040e+02
    1.1149822998e+02    1.7655310059e+02
    1.1159870148e+02    1.7692709351e+02
    1.1169777679e+02    1.7729528809e+02
    1.1179785919e+02    1.7766650391e+02
    1.1189774323e+02    1.7803520203e+02
    1.1199793243e+02    1.7840449524e+02
    1.1209799957e+02    1.7877290344e+02
    1.1219795990e+02    1.7913861084e+02
    1.1229875183e+02    1.7950779724e+02
    1.1239806366e+02    1.7986959839e+02
    1.1249768066e+02    1.8023089600e+02
    1.1259861755e+02    1.8059770203e+02
    1.1269792175e+02    1.8095581055e+02
    1.1279821014e+02    1.8131759644e+02
    1.1289881134e+02    1.8167890930e+02
    1.1299758911e+02    1.8203228760e+02
    1.1309847260e+02    1.8239279175e+02
    1.1319812775e+02    1.8274710083e+02
    1.1329759216e+02    1.8309989929e+02
    1.1339836121e+02    1.8345590210e+02
    1.1349825287e+02    1.8380729675e+02
    1.1359803009e+02    1.8415789795e+02
    1.1369744110e+02    1.8450579834e+02
    1.1379840088e+02    1.8485760498e+02
    1.1389781952e+02    1.8520280457e+02
    1.1399797058e+02    1.8555049133e+02
    1.1409857178e+02    1.8589680481e+02
    1.1419873047e+02    1.8624069214e+02
    1.1429759979e+02    1.8658000183e+02
    1.1439777374e+02    1.8692120361e+02
    1.1449756622e+02    1.8726069641e+02
    1.1459873962e+02    1.8760359192e+02
    1.1469863892e+02    1.8793989563e+02
    1.1479824829e+02    1.8827510071e+02
    1.1489791107e+02    1.8860778809e+02
    1.1499743652e+02    1.8893960571e+02
    1.1509826660e+02    1.8927420044e+02
    1.1519847870e+02    1.8960610962e+02
    1.1529873657e+02    1.8993539429e+02
    1.1539781189e+02    1.9026089478e+02
    1.1549816132e+02    1.9058801270e+02
    1.1559838867e+02    1.9091421509e+02
    1.1569769287e+02    1.9123541260e+02
    1.1579875946e+02    1.9156169128e+02
    1.1589864349e+02    1.9188229370e+02
    1.1599825287e+02    1.9219979858e+02
    1.1609783173e+02    1.9251710510e+02
    1.1619875336e+02    1.9283630371e+02
    1.1629818726e+02    1.9315039062e+02
    1.1639750671e+02    1.9346170044e+02
    1.1649809265e+02    1.9377619934e+02
    1.1659800720e+02    1.9408758545e+02
    1.1669837952e+02    1.9439820862e+02
    1.1679839325e+02    1.9470620728e+02
    1.1689790344e+02    1.9501129150e+02
    1.1699794006e+02    1.9531719971e+02
    1.1709754944e+02    1.9561990356e+02
    1.1719818878e+02    1.9592379761e+02
    1.1729862976e+02    1.9622610474e+02
    1.1739865875e+02    1.9652519226e+02
    1.1749793243e+02    1.9682168579e+02
    1.1759870148e+02    1.9711990356e+02
    1.1769744873e+02    1.9741122437e+02
    1.1779753876e+02    1.9770501709e+02
    1.1789752960e+02    1.9799681091e+02
    1.1799788666e+02    1.9828901672e+02
    1.1809815216e+02    1.9857830811e+02
    1.1819799805e+02    1.9886529541e+02
    1.1829807281e+02    1.9915159607e+02
    1.1839788055e+02    1.9943579102e+02
    1.1849743652e+02    1.9971679688e+02
    1.1859802246e+02    1.9999969482e+02
    1.1869747925e+02    2.0027819824e+02
    1.1879747772e+02    2.0055618286e+02
    1.1889785767e+02    2.0083450317e+02
    1.1899839020e+02    2.0111148071e+02
    1.1909763336e+02    2.0138208008e+02
    1.1919805908e+02    2.0165548706e+02
    1.1929808044e+02    2.0192649841e+02
    1.1939849091e+02    2.0219589233e+02
    1.1949803162e+02    2.0246260071e+02
    1.1959858704e+02    2.0272889709e+02
    1.1969857788e+02    2.0299288940e+02
    1.1979833221e+02    2.0325559998e+02
    1.1989777374e+02    2.0351470947e+02
    1.1999767303e+02    2.0377340698e+02
    1.2009835815e+02    2.0403302002e+02
    1.2019802094e+02    2.0428790283e+02
    1.2029799652e+02    2.0454238892e+02
    1.2039820862e+02    2.0479589844e+02
    1.2049771881e+02    2.0504608154e+02
    1.2059847260e+02    2.0529711914e+02
    1.2069750977e+02    2.0554280090e+02
    1.2079795074e+02    2.0578939819e+02
    1.2089871979e+02    2.0603639221e+02
    1.2099768829e+02    2.0627670288e+02
    1.2109799194e+02    2.0651828003e+02
    1.2119812775e+02    2.0675820923e+02
    1.2129827881e+02    2.0699638367e+02
    1.2139765930e+02    2.0723071289e+02
    1.2149836731e+02    2.0746710205e+02
    1.2159829712e+02    2.0769970703e+02
    1.2169863129e+02    2.0793209839e+02
    1.2179866028e+02    2.0816070557e+02
    1.2189823914e+02    2.0838758850e+02
    1.2199758148e+02    2.0861228943e+02
    1.2209786224e+02    2.0883729553e+02
    1.2219815063e+02    2.0906069946e+02
    1.2229828644e+02    2.0928228760e+02
    1.2239836121e+02    2.0950160217e+02
    1.2249781799e+02    2.0971720886e+02
    1.2259790802e+02    2.0993400574e+02
    1.2269824219e+02    2.1014859009e+02
    1.2279840851e+02    2.1036151123e+02
    1.2289829254e+02    2.1057160950e+02
    1.2299794006e+02    2.1077951050e+02
    1.2309767914e+02    2.1098619080e+02
    1.2319766235e+02    2.1119158936e+02
    1.2329833221e+02    2.1139651489e+02
    1.2339839172e+02    2.1159890747e+02
    1.2349762726e+02    2.1179800415e+02
    1.2359816742e+02    2.1199801636e+02
    1.2369757080e+02    2.1219400024e+02
    1.2379827118e+02    2.1238999939e+02
    1.2389746094e+02    2.1258099365e+02
    1.2399823761e+02    2.1277499390e+02
    1.2409835815e+02    2.1296499634e+02
    1.2419756317e+02    2.1315199280e+02
    1.2429827881e+02    2.1333999634e+02
    1.2439862823e+02    2.1352600098e+02
    1.2449739075e+02    2.1370700073e+02
    1.2459758759e+02    2.1388900757e+02
    1.2469741821e+02    2.1406900024e+02
    1.2479860687e+02    2.1424899292e+02
    1.2489746094e+02    2.1442300415e+02
    1.2499864960e+02    2.1460000610e+02
    1.2509841156e+02    2.1477301025e+02
    1.2519808960e+02    2.1494398499e+02
    1.2529763031e+02    2.1511299133e+02
    1.2539753723e+02    2.1528100586e+02
    1.2549826813e+02    2.1544799805e+02
    1.2559780884e+02    2.1561199951e+02
    1.2569748688e+02    2.1577502441e+02
    1.2579799652e+02    2.1593798828e+02
    1.2589849854e+02    2.1609799194e+02
    1.2599765778e+02    2.1625498962e+02
    1.2609831238e+02    2.1641300964e+02
    1.2619760895e+02    2.1656701660e+02
    1.2629810333e+02    2.1672100830e+02
    1.2639852142e+02    2.1687298584e+02
    1.2649813080e+02    2.1702301025e+02
    1.2659780121e+02    2.1717100525e+02
    1.2669776917e+02    2.1731698608e+02
    1.2679743958e+02    2.1746200562e+02
    1.2689746857e+02    2.1760598755e+02
    1.2699810791e+02    2.1774899292e+02
    1.2709770203e+02    2.1788897705e+02
    1.2719789124e+02    2.1802799988e+02
    1.2729844666e+02    2.1816600037e+02
    1.2739810944e+02    2.1830200195e+02
    1.2749778748e+02    2.1843499756e+02
    1.2759841919e+02    2.1856900024e+02
    1.2769786835e+02    2.1869900513e+02
    1.2779783630e+02    2.1882800293e+02
    1.2789788055e+02    2.1895600891e+02
    1.2799836731e+02    2.1908299255e+02
    1.2809753418e+02    2.1920799255e+02
    1.2819766235e+02    2.1933099365e+02
    1.2829794312e+02    2.1945399475e+02
    1.2839814758e+02    2.1957499695e+02
    1.2849829102e+02    2.1969300842e+02
    1.2859829712e+02    2.1981001282e+02
    1.2869830322e+02    2.1992700195e+02
    1.2879823303e+02    2.2004199219e+02
    1.2889782715e+02    2.2015399170e+02
    1.2899851990e+02    2.2026599121e+02
    1.2909776306e+02    2.2037500000e+02
    1.2919744873e+02    2.2048399353e+02
    1.2929832458e+02    2.2059300232e+02
    1.2939854431e+02    2.2069799805e+02
    1.2949754333e+02    2.2080200195e+02
    1.2959823608e+02    2.2090600586e+02
    1.2969761658e+02    2.2100700378e+02
    1.2979820251e+02    2.2110700989e+02
    1.2989869690e+02    2.2120700073e+02
    1.2999873352e+02    2.2130499268e+02
    1.3009840393e+02    2.2140100098e+02
    1.3019749451e+02    2.2149501038e+02
    1.3029823303e+02    2.2158898926e+02
    1.3039846802e+02    2.2168200684e+02
    1.3049792480e+02    2.2177101135e+02
    1.3059849548e+02    2.2186198425e+02
    1.3069778442e+02    2.2194900513e+02
    1.3079780579e+02    2.2203698730e+02
    1.3089845276e+02    2.2212298584e+02
    1.3099807739e+02    2.2220700073e+02
    1.3109826660e+02    2.2229000854e+02
    1.3119807434e+02    2.2237199402e+02
    1.3129815674e+02    2.2245199585e+02
    1.3139875793e+02    2.2253199768e+02
    1.3149780273e+02    2.2260998535e+02
    1.3159838867e+02    2.2268701172e+02
    1.3169827271e+02    2.2276300049e+02
    1.3179841614e+02    2.2283700562e+02
    1.3189808655e+02    2.2290998840e+02
    1.3199841309e+02    2.2298301697e+02
    1.3209884644e+02    2.2305401611e+02
    1.3219822693e+02    2.2312298584e+02
    1.3229878235e+02    2.2319200134e+02
    1.3239886475e+02    2.2326000977e+02
    1.3249876404e+02    2.2332499695e+02
    1.3259776306e+02    2.2338899231e+02
    1.3269816589e+02    2.2345399475e+02
    1.3279794312e+02    2.2351600647e+02
    1.3289869690e+02    2.2357801819e+02
    1.3299847412e+02    2.2363801575e+02
    1.3309799194e+02    2.2369700623e+02
    1.3319810486e+02    2.2375601196e+02
    1.3329803467e+02    2.2381300354e+02
    1.3339785767e+02    2.2386898804e+02
    1.3349792480e+02    2.2392398071e+02
    1.3359889221e+02    2.2397799683e+02
    1.3369787598e+02    2.2403100586e+02
    1.3379888916e+02    2.2408300781e+02
    1.3389843750e+02    2.2413200378e+02
    1.3399879456e+02    2.2418199158e+02
    1.3409817505e+02    2.2423098755e+02
    1.3419793701e+02    2.2427700806e+02
    1.3429887390e+02    2.2432398987e+02
    1.3439834595e+02    2.2436898804e+02
    1.3449897766e+02    2.2441299438e+02
    1.3459814453e+02    2.2445599365e+02
    1.3469819641e+02    2.2449798584e+02
    1.3479890442e+02    2.2453901672e+02
    1.3489834595e+02    2.2457800293e+02
    1.3499874878e+02    2.2461700439e+02
    1.3509904480e+02    2.2465499878e+02
    1.3519834900e+02    2.2469099426e+02
    1.3529852295e+02    2.2472599792e+02
    1.3539895630e+02    2.2476101685e+02
    1.3549804688e+02    2.2479400635e+02
    1.3559822083e+02    2.2482598877e+02
    1.3569848633e+02    2.2485699463e+02
    1.3579849243e+02    2.2488699341e+02
    1.3589866638e+02    2.2491499329e+02
    1.3599847412e+02    2.2494400024e+02
    1.3609819031e+02    2.2497001648e+02
    1.3619818115e+02    2.2499600220e+02
    1.3629812622e+02    2.2502000427e+02
    1.3639880371e+02    2.2504400635e+02
    1.3649864197e+02    2.2506600952e+02
    1.3659834290e+02    2.2508700562e+02
    1.3669885254e+02    2.2510699463e+02
    1.3679852295e+02    2.2512600708e+02
    1.3689813232e+02    2.2514401245e+02
    1.3699888611e+02    2.2516101074e+02
    1.3709808350e+02    2.2517701721e+02
    1.3719851685e+02    2.2519099426e+02
    1.3729910278e+02    2.2520501709e+02
    1.3739842224e+02    2.2521701050e+02
    1.3749888611e+02    2.2522799683e+02
    1.3759808350e+02    2.2523898315e+02
    1.3769842529e+02    2.2524800110e+02
    1.3779870605e+02    2.2525598145e+02
    1.3789894104e+02    2.2526298523e+02
    1.3799868774e+02    2.2526899719e+02
    1.3809878540e+02    2.2527301025e+02
    1.3819885254e+02    2.2527700806e+02
    1.3829884338e+02    2.2527999878e+02
    1.3839871216e+02    2.2528100586e+02
    1.3849858093e+02    2.2528099060e+02
    1.3859904480e+02    2.2528100586e+02
    1.3869880676e+02    2.2527899170e+02
    1.3879852295e+02    2.2527600098e+02
    1.3889901733e+02    2.2527200317e+02
    1.3899818420e+02    2.2526698303e+02
    1.3909892273e+02    2.2525997925e+02
    1.3919841003e+02    2.2525299072e+02
    1.3929902649e+02    2.2524497986e+02
    1.3939840698e+02    2.2523500061e+02
    1.3949891663e+02    2.2522399902e+02
    1.3959916687e+02    2.2521200562e+02
    1.3969831848e+02    2.2519900513e+02
    1.3979832458e+02    2.2518600464e+02
    1.3989862061e+02    2.2517001343e+02
    1.3999859619e+02    2.2515499878e+02
    1.4009831238e+02    2.2513700867e+02
    1.4019830322e+02    2.2512001038e+02
    1.4029820251e+02    2.2509898376e+02
    1.4039825439e+02    2.2508000183e+02
    1.4049906921e+02    2.2505700684e+02
    1.4059901428e+02    2.2503500366e+02
    1.4069885254e+02    2.2501199341e+02
    1.4079869080e+02    2.2498699951e+02
    1.4089828491e+02    2.2496099854e+02
    1.4099922180e+02    2.2493399048e+02
    1.4109887695e+02    2.2490600586e+02
    1.4119853210e+02    2.2487698364e+02
    1.4129933167e+02    2.2484698486e+02
    1.4139877319e+02    2.2481500244e+02
    1.4149940491e+02    2.2478298950e+02
    1.4159890747e+02    2.2475097656e+02
    1.4169932556e+02    2.2471499634e+02
    1.4179846191e+02    2.2468099976e+02
    1.4189900208e+02    2.2464398193e+02
    1.4199833679e+02    2.2460702515e+02
    1.4209878540e+02    2.2456799316e+02
    1.4219920349e+02    2.2452801514e+02
    1.4229841614e+02    2.2448800659e+02
    1.4239855957e+02    2.2444598389e+02
    1.4249885559e+02    2.2440301514e+02
    1.4259872437e+02    2.2435998535e+02
    1.4269894409e+02    2.2431500244e+02
    1.4279867554e+02    2.2427001953e+02
    1.4289881897e+02    2.2422299194e+02
    1.4299894714e+02    2.2417599487e+02
    1.4309901428e+02    2.2412701416e+02
    1.4319873047e+02    2.2407800293e+02
    1.4329875183e+02    2.2402697754e+02
    1.4339872742e+02    2.2397698975e+02
    1.4349867249e+02    2.2392401123e+02
    1.4359852600e+02    2.2387097168e+02
    1.4369941711e+02    2.2381701660e+02
    1.4379925537e+02    2.2376101685e+02
    1.4389906311e+02    2.2370498657e+02
    1.4399884033e+02    2.2364895630e+02
    1.4409857178e+02    2.2359197998e+02
    1.4419923401e+02    2.2353204346e+02
    1.4429876709e+02    2.2347302246e+02
    1.4439956665e+02    2.2341198730e+02
    1.4449916077e+02    2.2335101318e+02
    1.4459872437e+02    2.2328997803e+02
    1.4469886780e+02    2.2322601318e+02
    1.4479917908e+02    2.2316201782e+02
    1.4489959717e+02    2.2309698486e+02
    1.4499900818e+02    2.2303201294e+02
    1.4509953308e+02    2.2296499634e+02
    1.4519888306e+02    2.2289797974e+02
    1.4529934692e+02    2.2282901001e+02
    1.4539860535e+02    2.2276098633e+02
    1.4549897766e+02    2.2269100952e+02
    1.4559930420e+02    2.2261996460e+02
    1.4569906616e+02    2.2254898071e+02
    1.4579931641e+02    2.2247598267e+02
    1.4589953613e+02    2.2240301514e+02
    1.4599969482e+02    2.2232797241e+02
    1.4609866333e+02    2.2225497437e+02
    1.4619874573e+02    2.2217898560e+02
    1.4629879761e+02    2.2210299683e+02
    1.4639877319e+02    2.2202496338e+02
    1.4649873352e+02    2.2194702148e+02
    1.4659938049e+02    2.2186895752e+02
    1.4669923401e+02    2.2178903198e+02
    1.4679884338e+02    2.2171002197e+02
    1.4689973450e+02    2.2162796021e+02
    1.4699945068e+02    2.2154598999e+02
    1.4709910583e+02    2.2146401978e+02
    1.4719871521e+02    2.2138195801e+02
    1.4729942322e+02    2.2129699707e+02
    1.4739894104e+02    2.2121301270e+02
    1.4749954224e+02    2.2112796021e+02
    1.4759895325e+02    2.2104202271e+02
    1.4769944763e+02    2.2095498657e+02
    1.4779875183e+02    2.2086901855e+02
    1.4789913940e+02    2.2078103638e+02
    1.4799949646e+02    2.2069302368e+02
    1.4809977722e+02    2.2060299683e+02
    1.4819886780e+02    2.2051397705e+02
    1.4829893494e+02    2.2042401123e+02
    1.4839906311e+02    2.2033203125e+02
    1.4849914551e+02    2.2024099731e+02
    1.4859916687e+02    2.2014901733e+02
    1.4869914246e+02    2.2005599976e+02
    1.4879908752e+02    2.1996301270e+02
    1.4889895630e+02    2.1986901855e+02
    1.4899876404e+02    2.1977499390e+02
    1.4909968567e+02    2.1967800903e+02
    1.4919938660e+02    2.1958297729e+02
    1.4929905701e+02    2.1948797607e+02
    1.4939981079e+02    2.1938998413e+02
    1.4949937439e+02    2.1929397583e+02
    1.4959890747e+02    2.1919598389e+02
    1.4969949341e+02    2.1909701538e+02
    1.4979893494e+02    2.1899996948e+02
    1.4989942932e+02    2.1890002441e+02
    1.4999987793e+02    2.1879998779e+02
    1.5009916687e+02    2.1870001221e+02
    1.5019926453e+02    2.1860003662e+02
    1.5029957581e+02    2.1849902344e+02
    1.5039984131e+02    2.1839801025e+02
    1.5049893188e+02    2.1829696655e+02
    1.5059910583e+02    2.1819400024e+02
    1.5069898987e+02    2.1809201050e+02
    1.5079908752e+02    2.1798803711e+02
    1.5089999390e+02    2.1788497925e+02
    1.5099992371e+02    2.1778002930e+02
    1.5109997559e+02    2.1767697144e+02
    1.5119990540e+02    2.1757199097e+02
    1.5129977417e+02    2.1746798706e+02
    1.5139962769e+02    2.1736297607e+02
    1.5149943542e+02    2.1725802612e+02
    1.5159919739e+02    2.1715197754e+02
    1.5170004272e+02    2.1704498291e+02
    1.5179972839e+02    2.1693899536e+02
    1.5189938354e+02    2.1683300781e+02
    1.5199986267e+02    2.1672500610e+02
    1.5209938049e+02    2.1661798096e+02
    1.5219964600e+02    2.1651199341e+02
    1.5229902649e+02    2.1640499878e+02
    1.5239961243e+02    2.1629602051e+02
    1.5249905396e+02    2.1618899536e+02
    1.5259957886e+02    2.1607998657e+02
    1.5269995117e+02    2.1597100830e+02
    1.5279908752e+02    2.1586300659e+02
    1.5289952087e+02    2.1575500488e+02
    1.5299986267e+02    2.1564602661e+02
    1.5310003662e+02    2.1553698730e+02
    1.5320010376e+02    2.1542697144e+02
    1.5329911804e+02    2.1531997681e+02
    1.5339939880e+02    2.1521099854e+02
    1.5349966431e+02    2.1510198975e+02
    1.5359962463e+02    2.1499200439e+02
    1.5369963074e+02    2.1488296509e+02
    1.5379960632e+02    2.1477496338e+02
    1.5389976501e+02    2.1466503906e+02
    1.5399987793e+02    2.1455700684e+02
    1.5409979248e+02    2.1444796753e+02
    1.5419985962e+02    2.1433798218e+02
    1.5429957581e+02    2.1422897339e+02
    1.5439961243e+02    2.1412002563e+02
    1.5449948120e+02    2.1401101685e+02
    1.5459931946e+02    2.1390301514e+02
    1.5470011902e+02    2.1379403687e+02
    1.5480003357e+02    2.1368499756e+02
    1.5489967346e+02    2.1357797241e+02
    1.5500021362e+02    2.1346798706e+02
    1.5509967041e+02    2.1336099243e+02
    1.5519915771e+02    2.1325399780e+02
    1.5529974365e+02    2.1314498901e+02
    1.5539950562e+02    2.1303799438e+02
    1.5549989319e+02    2.1292999268e+02
    1.5559936523e+02    2.1282397461e+02
    1.5570014954e+02    2.1271697998e+02
    1.5579954529e+02    2.1260998535e+02
    1.5590028381e+02    2.1250299072e+02
    1.5599989319e+02    2.1239801025e+02
    1.5609947205e+02    2.1229299927e+02
    1.5620013428e+02    2.1218597412e+02
    1.5629965210e+02    2.1208203125e+02
    1.5640023804e+02    2.1197698975e+02
    1.5650016785e+02    2.1187301636e+02
    1.5659959412e+02    2.1177001953e+02
    1.5669984436e+02    2.1166702271e+02
    1.5679992676e+02    2.1156402588e+02
    1.5690023804e+02    2.1146099854e+02
    1.5700032043e+02    2.1135998535e+02
    1.5710038757e+02    2.1125900269e+02
    1.5719935608e+02    2.1115899658e+02
    1.5729954529e+02    2.1105899048e+02
    1.5739981079e+02    2.1095901489e+02
    1.5750004578e+02    2.1085998535e+02
    1.5760025024e+02    2.1076199341e+02
    1.5770002747e+02    2.1066397095e+02
    1.5780015564e+02    2.1056796265e+02
    1.5790019226e+02    2.1047198486e+02
    1.5800024414e+02    2.1037500000e+02
    1.5810026550e+02    2.1028097534e+02
    1.5820011902e+02    2.1018698120e+02
    1.5830006409e+02    2.1009402466e+02
    1.5839997864e+02    2.1000100708e+02
    1.5849984741e+02    2.0990798950e+02
    1.5859956360e+02    2.0981802368e+02
    1.5870013428e+02    2.0972695923e+02
    1.5879983521e+02    2.0963796997e+02
    1.5889956665e+02    2.0954898071e+02
    1.5900035095e+02    2.0946002197e+02
    1.5910000610e+02    2.0937304688e+02
    1.5920040894e+02    2.0928601074e+02
    1.5929980469e+02    2.0920104980e+02
    1.5940043640e+02    2.0911602783e+02
    1.5949995422e+02    2.0903198242e+02
    1.5959944153e+02    2.0895001221e+02
    1.5969978333e+02    2.0886798096e+02
    1.5980009460e+02    2.0878594971e+02
    1.5989947510e+02    2.0870703125e+02
    1.5999990845e+02    2.0862799072e+02
    1.6009953308e+02    2.0855004883e+02
    1.6019990540e+02    2.0847198486e+02
    1.6030010986e+02    2.0839605713e+02
    1.6039990234e+02    2.0832098389e+02
    1.6049978638e+02    2.0824603271e+02
    1.6060002136e+02    2.0817395020e+02
    1.6070022583e+02    2.0810101318e+02
    1.6079988098e+02    2.0802996826e+02
    1.6090000916e+02    2.0796099854e+02
    1.6099955750e+02    2.0789202881e+02
    1.6109962463e+02    2.0782299805e+02
    1.6119966125e+02    2.0775701904e+02
    1.6130061340e+02    2.0769000244e+02
    1.6139991760e+02    2.0762597656e+02
    1.6149960327e+02    2.0756201172e+02
    1.6160015869e+02    2.0749902344e+02
    1.6170004272e+02    2.0743695068e+02
    1.6179991150e+02    2.0737701416e+02
    1.6189973450e+02    2.0731799316e+02
    1.6200048828e+02    2.0725903320e+02
    1.6210014343e+02    2.0720196533e+02
    1.6220045471e+02    2.0714501953e+02
    1.6229997253e+02    2.0709002686e+02
    1.6240061951e+02    2.0703601074e+02
    1.6249996948e+02    2.0698303223e+02
    1.6260017395e+02    2.0693200684e+02
    1.6269978333e+02    2.0688000488e+02
    1.6279988098e+02    2.0683099365e+02
    1.6290051270e+02    2.0678204346e+02
    1.6300030518e+02    2.0673400879e+02
    1.6310043335e+02    2.0668695068e+02
    1.6319967651e+02    2.0664196777e+02
    1.6330072021e+02    2.0659704590e+02
    1.6339982605e+02    2.0655401611e+02
    1.6350032043e+02    2.0651104736e+02
    1.6360015869e+02    2.0646997070e+02
    1.6370016479e+02    2.0642999268e+02
    1.6379983521e+02    2.0639099121e+02
    1.6389973450e+02    2.0635302734e+02
    1.6400012207e+02    2.0631500244e+02
    1.6409977722e+02    2.0627899170e+02
    1.6419999695e+02    2.0624401855e+02
    1.6430064392e+02    2.0620898438e+02
    1.6440043640e+02    2.0617602539e+02
    1.6450071716e+02    2.0614398193e+02
    1.6459988403e+02    2.0611303711e+02
    1.6469981384e+02    2.0608300781e+02
    1.6480003357e+02    2.0605499268e+02
    1.6489991760e+02    2.0602600098e+02
    1.6500003052e+02    2.0600000000e+02
    1.6510032654e+02    2.0597399902e+02
    1.6519990540e+02    2.0594897461e+02
    1.6530078125e+02    2.0592504883e+02
    1.6540086365e+02    2.0590203857e+02
    1.6550082397e+02    2.0588104248e+02
    1.6560025024e+02    2.0586004639e+02
    1.6570028687e+02    2.0584002686e+02
    1.6580087280e+02    2.0582098389e+02
    1.6590061951e+02    2.0580297852e+02
    1.6600039673e+02    2.0578503418e+02
    1.6610003662e+02    2.0576898193e+02
    1.6619996643e+02    2.0575500488e+02
    1.6630052185e+02    2.0574102783e+02
    1.6640084839e+02    2.0572705078e+02
    1.6650041199e+02    2.0571496582e+02
    1.6660025024e+02    2.0570397949e+02
    1.6670045471e+02    2.0569299316e+02
    1.6680026245e+02    2.0568402100e+02
    1.6690011597e+02    2.0567504883e+02
    1.6700048828e+02    2.0566699219e+02
    1.6710041809e+02    2.0565997314e+02
    1.6720011902e+02    2.0565399170e+02
    1.6730087280e+02    2.0564904785e+02
    1.6740028381e+02    2.0564501953e+02
    1.6750059509e+02    2.0564099121e+02
    1.6760002136e+02    2.0563897705e+02
    1.6770028687e+02    2.0563702393e+02
    1.6780004883e+02    2.0563598633e+02
    1.6790026855e+02    2.0563702393e+02
    1.6800091553e+02    2.0563696289e+02
    1.6810002136e+02    2.0563903809e+02
    1.6820068359e+02    2.0564099121e+02
    1.6830085754e+02    2.0564398193e+02
    1.6840071106e+02    2.0564801025e+02
    1.6850053406e+02    2.0565301514e+02
    1.6860069275e+02    2.0565905762e+02
    1.6870054626e+02    2.0566497803e+02
    1.6880084229e+02    2.0567102051e+02
    1.6890055847e+02    2.0567901611e+02
    1.6900106812e+02    2.0568701172e+02
    1.6910015869e+02    2.0569604492e+02
    1.6920082092e+02    2.0570599365e+02
    1.6930044556e+02    2.0571600342e+02
    1.6940008545e+02    2.0572705078e+02
    1.6950010681e+02    2.0573797607e+02
    1.6960046387e+02    2.0575097656e+02
    1.6970060730e+02    2.0576202393e+02
    1.6980058289e+02    2.0577600098e+02
    1.6990011597e+02    2.0578900146e+02
    1.7000105286e+02    2.0580303955e+02
    1.7010054016e+02    2.0581799316e+02
    1.7020100403e+02    2.0583300781e+02
    1.7030044556e+02    2.0584802246e+02
    1.7040080261e+02    2.0586499023e+02
    1.7050059509e+02    2.0588000488e+02
    1.7060108948e+02    2.0589697266e+02
    1.7070106506e+02    2.0591400146e+02
    1.7080059814e+02    2.0593103027e+02
    1.7090104675e+02    2.0594799805e+02
    1.7100064087e+02    2.0596600342e+02
    1.7110055542e+02    2.0598498535e+02
    1.7120098877e+02    2.0600299072e+02
    1.7130029297e+02    2.0602197266e+02
    1.7140020752e+02    2.0604101562e+02
    1.7150091553e+02    2.0605902100e+02
    1.7160092163e+02    2.0608001709e+02
    1.7170098877e+02    2.0609796143e+02
    1.7180047607e+02    2.0611700439e+02
    1.7190054321e+02    2.0613696289e+02
    1.7200100708e+02    2.0615698242e+02
    1.7210113525e+02    2.0617700195e+02
    1.7220068359e+02    2.0619598389e+02
    1.7230076599e+02    2.0621600342e+02
    1.7240086365e+02    2.0623498535e+02
    1.7250062561e+02    2.0625402832e+02
    1.7260075378e+02    2.0627502441e+02
    1.7270037842e+02    2.0629302979e+02
    1.7280105591e+02    2.0631304932e+02
    1.7290077209e+02    2.0633197021e+02
    1.7300086975e+02    2.0635101318e+02
    1.7310076904e+02    2.0636999512e+02
    1.7320065308e+02    2.0638897705e+02
    1.7330097961e+02    2.0640704346e+02
    1.7340100098e+02    2.0642602539e+02
    1.7350100708e+02    2.0644299316e+02
    1.7360064697e+02    2.0646099854e+02
    1.7370097351e+02    2.0647900391e+02
    1.7380122375e+02    2.0649597168e+02
    1.7390098572e+02    2.0651300049e+02
    1.7400056458e+02    2.0652996826e+02
    1.7410113525e+02    2.0654595947e+02
    1.7420091248e+02    2.0656201172e+02
    1.7430038452e+02    2.0657800293e+02
    1.7440051270e+02    2.0659204102e+02
    1.7450097656e+02    2.0660803223e+02
    1.7460108948e+02    2.0662200928e+02
    1.7470094299e+02    2.0663604736e+02
    1.7480085754e+02    2.0664996338e+02
    1.7490124512e+02    2.0666204834e+02
    1.7500119019e+02    2.0667498779e+02
    1.7510050964e+02    2.0668701172e+02
    1.7520071411e+02    2.0669799805e+02
    1.7530062866e+02    2.0670898438e+02
    1.7540110779e+02    2.0672003174e+02
    1.7550048828e+02    2.0672998047e+02
    1.7560093689e+02    2.0674005127e+02
    1.7570074463e+02    2.0674896240e+02
    1.7580090332e+02    2.0675695801e+02
    1.7590101624e+02    2.0676501465e+02
    1.7600076294e+02    2.0677203369e+02
    1.7610116577e+02    2.0677801514e+02
    1.7620086670e+02    2.0678399658e+02
    1.7630122375e+02    2.0678997803e+02
    1.7640153503e+02    2.0679498291e+02
    1.7650105286e+02    2.0679797363e+02
    1.7660127258e+02    2.0680200195e+02
    1.7670144653e+02    2.0680798340e+02
    1.7680078125e+02    2.0680395508e+02
    1.7690106201e+02    2.0681201172e+02
    1.7700146484e+02    2.0680798340e+02
    1.7710096741e+02    2.0680700684e+02
    1.7720062256e+02    2.0681298828e+02
    1.7730128479e+02    2.0680999756e+02
    1.7740161133e+02    2.0681304932e+02
    1.7750125122e+02    2.0680499268e+02
    1.7760073853e+02    2.0679998779e+02
    1.7770092773e+02    2.0680102539e+02
    1.7780114746e+02    2.0680102539e+02
    1.7790138245e+02    2.0678900146e+02
    1.7800164795e+02    2.0678601074e+02
    1.7810162354e+02    2.0677697754e+02
    1.7820112610e+02    2.0677496338e+02
    1.7830157471e+02    2.0676501465e+02
    1.7840136719e+02    2.0675604248e+02
    1.7850073242e+02    2.0675292969e+02
    1.7860151672e+02    2.0674499512e+02
    1.7870132446e+02    2.0673199463e+02
    1.7880084229e+02    2.0672302246e+02
    1.7890144348e+02    2.0671496582e+02
    1.7900119019e+02    2.0670098877e+02
    1.7910096741e+02    2.0668402100e+02
    1.7920152283e+02    2.0667407227e+02
    1.7930108643e+02    2.0665997314e+02
    1.7940168762e+02    2.0664697266e+02
    1.7950093079e+02    2.0663500977e+02
    1.7960159302e+02    2.0661993408e+02
    1.7970126343e+02    2.0660900879e+02
    1.7980145264e+02    2.0659002686e+02
    1.7990130615e+02    2.0657507324e+02
    1.8000085449e+02    2.0655395508e+02
    1.8010163879e+02    2.0654101562e+02
    1.8020118713e+02    2.0651904297e+02
    1.8030101013e+02    2.0650091553e+02
    1.8040086365e+02    2.0649096680e+02
    1.8050149536e+02    2.0646801758e+02
    1.8060139465e+02    2.0644592285e+02
    1.8070140076e+02    2.0643096924e+02
    1.8080136108e+02    2.0640600586e+02
    1.8090173340e+02    2.0638391113e+02
    1.8100100708e+02    2.0636895752e+02
    1.8110136414e+02    2.0634503174e+02
    1.8120164490e+02    2.0632196045e+02
    1.8130174255e+02    2.0630096436e+02
    1.8140089417e+02    2.0627502441e+02
    1.8150143433e+02    2.0625396729e+02
    1.8160101318e+02    2.0622900391e+02
    1.8170126343e+02    2.0621203613e+02
    1.8180154419e+02    2.0618395996e+02
    1.8190185547e+02    2.0616400146e+02
    1.8200117493e+02    2.0613000488e+02
    1.8210156250e+02    2.0610693359e+02
    1.8220095825e+02    2.0608001709e+02
    1.8230140686e+02    2.0605407715e+02
    1.8240188599e+02    2.0602697754e+02
    1.8250164795e+02    2.0600201416e+02
    1.8260119629e+02    2.0597894287e+02
    1.8270179749e+02    2.0594799805e+02
    1.8280140686e+02    2.0592303467e+02
    1.8290106201e+02    2.0589599609e+02
    1.8300175476e+02    2.0586004639e+02
    1.8310162354e+02    2.0582794189e+02
    1.8320140076e+02    2.0580798340e+02
    1.8330120850e+02    2.0577502441e+02
    1.8340107727e+02    2.0574096680e+02
    1.8350117493e+02    2.0571301270e+02
    1.8360112000e+02    2.0568597412e+02
    1.8370129395e+02    2.0565502930e+02
    1.8380177307e+02    2.0562792969e+02
    1.8390185547e+02    2.0559698486e+02
    1.8400198364e+02    2.0556402588e+02
    1.8410113525e+02    2.0553796387e+02
    1.8420135498e+02    2.0550201416e+02
    1.8430163574e+02    2.0547497559e+02
    1.8440197754e+02    2.0543701172e+02
    1.8450132751e+02    2.0540393066e+02
    1.8460174561e+02    2.0537298584e+02
    1.8470120239e+02    2.0534808350e+02
    1.8480172729e+02    2.0531298828e+02
    1.8490130615e+02    2.0528503418e+02
    1.8500193787e+02    2.0524798584e+02
    1.8510159302e+02    2.0521606445e+02
    1.8520132446e+02    2.0518395996e+02
    1.8530111694e+02    2.0514904785e+02
    1.8540197754e+02    2.0511596680e+02
    1.8550187683e+02    2.0508807373e+02
    1.8560182190e+02    2.0505895996e+02
    1.8570184326e+02    2.0501904297e+02
    1.8580191040e+02    2.0498699951e+02
    1.8590203857e+02    2.0495306396e+02
    1.8600120544e+02    2.0492596436e+02
    1.8610145569e+02    2.0488903809e+02
    1.8620178223e+02    2.0485998535e+02
    1.8630113220e+02    2.0482806396e+02
    1.8640159607e+02    2.0479699707e+02
    1.8650210571e+02    2.0476293945e+02
    1.8660166931e+02    2.0472601318e+02
    1.8670129395e+02    2.0469793701e+02
    1.8680201721e+02    2.0466900635e+02
    1.8690177917e+02    2.0463696289e+02
    1.8700161743e+02    2.0460400391e+02
    1.8710153198e+02    2.0456799316e+02
    1.8720150757e+02    2.0454107666e+02
    1.8730157471e+02    2.0450201416e+02
    1.8740170288e+02    2.0447192383e+02
    1.8750192261e+02    2.0443902588e+02
    1.8760221863e+02    2.0441497803e+02
    1.8770155334e+02    2.0437701416e+02
    1.8780200195e+02    2.0434997559e+02
    1.8790147400e+02    2.0431805420e+02
    1.8800210571e+02    2.0428698730e+02
    1.8810174561e+02    2.0425195312e+02
    1.8820147705e+02    2.0422601318e+02
    1.8830128479e+02    2.0419696045e+02
    1.8840222168e+02    2.0415893555e+02
    1.8850219727e+02    2.0413702393e+02
    1.8860226440e+02    2.0410296631e+02
    1.8870133972e+02    2.0407501221e+02
    1.8880157471e+02    2.0403698730e+02
    1.8890188599e+02    2.0400994873e+02
    1.8900227356e+02    2.0399005127e+02
    1.8910169983e+02    2.0395001221e+02
    1.8920225525e+02    2.0392993164e+02
    1.8930184937e+02    2.0390002441e+02
    1.8940153503e+02    2.0386999512e+02
    1.8950129700e+02    2.0384002686e+02
    1.8960220337e+02    2.0380004883e+02
    1.8970213318e+02    2.0377996826e+02
    1.8980216980e+02    2.0374993896e+02
    1.8990228271e+02    2.0372003174e+02
    1.9000140381e+02    2.0369995117e+02
    1.9010168457e+02    2.0366992188e+02
    1.9020205688e+02    2.0364001465e+02
    1.9030145264e+02    2.0360998535e+02
    1.9040199280e+02    2.0357995605e+02
    1.9050157166e+02    2.0355004883e+02
    1.9060229492e+02    2.0353002930e+02
    1.9070204163e+02    2.0350000000e+02
    1.9080186462e+02    2.0347009277e+02
    1.9090177917e+02    2.0344006348e+02
    1.9100178528e+02    2.0342004395e+02
    1.9110188293e+02    2.0338000488e+02
    1.9120207214e+02    2.0335998535e+02
    1.9130235291e+02    2.0332995605e+02
    1.9140162659e+02    2.0330993652e+02
    1.9150207520e+02    2.0326989746e+02
    1.9160154724e+02    2.0325000000e+02
    1.9170216370e+02    2.0321997070e+02
    1.9180180359e+02    2.0318994141e+02
    1.9190151978e+02    2.0316003418e+02
    1.9200242615e+02    2.0313000488e+02
    1.9210232544e+02    2.0309997559e+02
    1.9220231628e+02    2.0306994629e+02
    1.9230238342e+02    2.0303991699e+02
    1.9240145874e+02    2.0301000977e+02
    1.9250172424e+02    2.0297998047e+02
    1.9260206604e+02    2.0294995117e+02
    1.9270251465e+02    2.0290991211e+02
    1.9280194092e+02    2.0289001465e+02
    1.9290147400e+02    2.0284997559e+02
    1.9300216675e+02    2.0282006836e+02
    1.9310188293e+02    2.0279003906e+02
    1.9320167542e+02    2.0275000000e+02
    1.9330155945e+02    2.0271008301e+02
    1.9340153503e+02    2.0268005371e+02
    1.9350161743e+02    2.0265002441e+02
    1.9360177612e+02    2.0260998535e+02
    1.9370202637e+02    2.0256994629e+02
    1.9380236816e+02    2.0252990723e+02
    1.9390170288e+02    2.0248999023e+02
    1.9400224304e+02    2.0245007324e+02
    1.9410177612e+02    2.0241003418e+02
    1.9420249939e+02    2.0236999512e+02
    1.9430221558e+02    2.0231994629e+02
    1.9440200806e+02    2.0228991699e+02
    1.9450190735e+02    2.0223999023e+02
    1.9460189819e+02    2.0220007324e+02
    1.9470198059e+02    2.0216003418e+02
    1.9480215454e+02    2.0210998535e+02
    1.9490243530e+02    2.0206994629e+02
    1.9500167847e+02    2.0201989746e+02
    1.9510214233e+02    2.0196997070e+02
    1.9520269775e+02    2.0192004395e+02
    1.9530223083e+02    2.0188000488e+02
    1.9540185547e+02    2.0183007812e+02
    1.9550271606e+02    2.0178002930e+02
    1.9560252380e+02    2.0172998047e+02
    1.9570245361e+02    2.0167993164e+02
    1.9580247498e+02    2.0161999512e+02
    1.9590258789e+02    2.0156994629e+02
    1.9600167847e+02    2.0152001953e+02
    1.9610200500e+02    2.0147009277e+02
    1.9620242310e+02    2.0141003418e+02
    1.9630181885e+02    2.0134997559e+02
    1.9640246582e+02    2.0130004883e+02
    1.9650207520e+02    2.0123999023e+02
    1.9660180664e+02    2.0118005371e+02
    1.9670280457e+02    2.0111999512e+02
    1.9680276489e+02    2.0105993652e+02
    1.9690171814e+02    2.0100000000e+02
    1.9700192261e+02    2.0093994141e+02
    1.9710226440e+02    2.0088000488e+02
    1.9720274353e+02    2.0081994629e+02
    1.9730218506e+02    2.0075000000e+02
    1.9740177917e+02    2.0069006348e+02
    1.9750263977e+02    2.0063000488e+02
    1.9760249329e+02    2.0056005859e+02
    1.9770248413e+02    2.0048999023e+02
    1.9780262756e+02    2.0042004395e+02
    1.9790176392e+02    2.0034997559e+02
    1.9800218201e+02    2.0028002930e+02
    1.9810275269e+02    2.0021008301e+02
    1.9820231628e+02    2.0014001465e+02
    1.9830203247e+02    2.0006005859e+02
    1.9840188599e+02    2.0000000000e+02
    1.9850190735e+02    1.9991003418e+02
    1.9860208130e+02    1.9983996582e+02
    1.9870239258e+02    1.9977001953e+02
    1.9880288696e+02    1.9969006348e+02
    1.9890234375e+02    1.9960998535e+02
    1.9900196838e+02    1.9953002930e+02
    1.9910293579e+02    1.9945007324e+02
    1.9920288086e+02    1.9936999512e+02
    1.9930180359e+02    1.9929003906e+02
    1.9940208435e+02    1.9920996094e+02
    1.9950250244e+02    1.9913000488e+02
    1.9960192871e+02    1.9904003906e+02
    1.9970268250e+02    1.9895007324e+02
    1.9980242920e+02    1.9885998535e+02
    1.9990232849e+02    1.9877001953e+02
endcurve
