Curveplot
LS-DYNA keyword deck by LS-PrePost
Abscissa
Ordinate
XY data
CHOP_NASX_mo-1 #pts=3000
* Minval=    -2.3296997070e+01 at time=       299.3084716797
* Maxval=     5.1992004395e+01 at time=       175.2014617920
    0.0000000000e+00    0.0000000000e+00
    9.8665714264e-02    1.5424400335e-03
    1.9887307286e-01    3.1089799013e-03
    2.9908046126e-01    4.6755201183e-03
    3.9928781986e-01    6.2420698814e-03
    4.9949517846e-01    7.8086098656e-03
    5.9970253706e-01    9.3751503155e-03
    6.9932085276e-01    1.0932499543e-02
    7.9968386889e-01    1.2501499616e-02
    8.9898151159e-01    1.4053798281e-02
    9.9915391207e-01    1.5619798563e-02
    1.0998978615e+00    1.7194699496e-02
    1.1999748945e+00    1.8759204075e-02
    1.2987960577e+00    2.0304106176e-02
    1.3993667364e+00    2.1876307204e-02
    1.4999196529e+00    2.3448208347e-02
    1.5987406969e+00    2.4993104860e-02
    1.6998659372e+00    2.6574013755e-02
    1.7999436855e+00    2.8138546273e-02
    1.8996568918e+00    2.9697393999e-02
    1.9994639158e+00    3.1257692724e-02
    2.0987761021e+00    3.2810177654e-02
    2.1985299587e+00    3.4369330853e-02
    2.2983815670e+00    3.5930085927e-02
    2.3998730183e+00    3.7516709417e-02
    2.4992706776e+00    3.9071105421e-02
    2.5997676849e+00    4.0643140674e-02
    2.6999757290e+00    4.2210701853e-02
    2.7988300323e+00    4.3756816536e-02
    2.8986189365e+00    4.5316860080e-02
    2.9991533756e+00    4.6887725592e-02
    3.0992131233e+00    4.8450231552e-02
    3.1998617649e+00    5.0021234900e-02
    3.2991583347e+00    5.1570817828e-02
    3.3992121220e+00    5.3132366389e-02
    3.4992592335e+00    5.4694227874e-02
    3.5987131596e+00    5.6247778237e-02
    3.6993260384e+00    5.7820580900e-02
    3.7997486591e+00    5.9391781688e-02
    3.8994097710e+00    6.0952555388e-02
    3.9999620914e+00    6.2528789043e-02
    4.0991630554e+00    6.4085319638e-02
    4.1985726357e+00    6.5646499395e-02
    4.2996191978e+00    6.7234456539e-02
    4.3994731903e+00    6.8804740906e-02
    4.4987592697e+00    7.0366606116e-02
    4.5998926163e+00    7.1957923472e-02
    4.6993927956e+00    7.3523648083e-02
    4.7994699478e+00    7.5098186731e-02
    4.8983769417e+00    7.6653741300e-02
    4.9993224144e+00    7.8240491450e-02
    5.0995249748e+00    7.9814389348e-02
    5.1995201111e+00    8.1383571029e-02
    5.2986416817e+00    8.2937523723e-02
    5.3995928764e+00    8.4518246353e-02
    5.4984164238e+00    8.6063742638e-02
    5.5999279022e+00    8.7649174035e-02
    5.6984696388e+00    8.9185930789e-02
    5.7986989021e+00    9.0746708214e-02
    5.8993062973e+00    9.2310912907e-02
    5.9984145164e+00    9.3849286437e-02
    6.0998477936e+00    9.5421217382e-02
    6.1989188194e+00    9.6954017878e-02
    6.2996253967e+00    9.8509460688e-02
    6.3983716965e+00    1.0003245622e-01
    6.4995007515e+00    1.0158935934e-01
    6.5993127823e+00    1.0312302411e-01
    6.6993141174e+00    1.0465718061e-01
    6.7991056442e+00    1.0618603230e-01
    6.8997559547e+00    1.0772635043e-01
    6.9994716644e+00    1.0924987495e-01
    7.0997943878e+00    1.1078017950e-01
    7.1987619400e+00    1.1228802800e-01
    7.2993636131e+00    1.1381920427e-01
    7.3990545273e+00    1.1533378810e-01
    7.4989185333e+00    1.1685042083e-01
    7.5992770195e+00    1.1837103218e-01
    7.6987156868e+00    1.1987739056e-01
    7.7994089127e+00    1.2140054256e-01
    7.8997044563e+00    1.2291640788e-01
    7.9995851517e+00    1.2442514300e-01
    8.0999584198e+00    1.2593936920e-01
    8.1994724274e+00    1.2743885815e-01
    8.2992858887e+00    1.2894296646e-01
    8.3986196518e+00    1.3043804467e-01
    8.4988069534e+00    1.3194426894e-01
    8.5989942551e+00    1.3344913721e-01
    8.6984653473e+00    1.3494221866e-01
    8.7998790741e+00    1.3646396995e-01
    8.8996896744e+00    1.3795989752e-01
    8.9992752075e+00    1.3945239782e-01
    9.0993385315e+00    1.4095112681e-01
    9.1996097565e+00    1.4245237410e-01
    9.2996873856e+00    1.4395135641e-01
    9.3993835449e+00    1.4544411004e-01
    9.4990024567e+00    1.4693418145e-01
    9.5992116928e+00    1.4843188226e-01
    9.6999759674e+00    1.4993791282e-01
    9.7993879318e+00    1.5142145753e-01
    9.8992424011e+00    1.5291017294e-01
    9.9996871948e+00    1.5440599620e-01
    1.0099941254e+01    1.5838566422e-01
    1.0198670387e+01    1.6231139004e-01
    1.0299817085e+01    1.6633136570e-01
    1.0399135590e+01    1.7027902603e-01
    1.0499294281e+01    1.7425948381e-01
    1.0598592758e+01    1.7820519209e-01
    1.0698574066e+01    1.8217706680e-01
    1.0798555374e+01    1.8614965677e-01
    1.0898838043e+01    1.9013366103e-01
    1.0998833656e+01    1.9410555065e-01
    1.1099402428e+01    1.9809953868e-01
    1.1198697090e+01    2.0204299688e-01
    1.1298677444e+01    2.0601220429e-01
    1.1398848534e+01    2.0998935401e-01
    1.1499307632e+01    2.1397514641e-01
    1.1599677086e+01    2.1795769036e-01
    1.1698794365e+01    2.2188782692e-01
    1.1798995972e+01    2.2586032748e-01
    1.1898798943e+01    2.2981420159e-01
    1.1999782562e+01    2.3381283879e-01
    1.2099208832e+01    2.3774753511e-01
    1.2199954033e+01    2.4173247814e-01
    1.2299825668e+01    2.4567991495e-01
    1.2399702072e+01    2.4962538481e-01
    1.2499883652e+01    2.5358185172e-01
    1.2598860741e+01    2.5748884678e-01
    1.2699087143e+01    2.6144242287e-01
    1.2799306870e+01    2.6539325714e-01
    1.2899601936e+01    2.6934480667e-01
    1.2999082565e+01    2.7325984836e-01
    1.3098941803e+01    2.7718609571e-01
    1.3198799133e+01    2.8111043572e-01
    1.3298561096e+01    2.8502869606e-01
    1.3398999214e+01    2.8897184134e-01
    1.3499709129e+01    2.9292517900e-01
    1.3599534035e+01    2.9684394598e-01
    1.3699357986e+01    3.0076363683e-01
    1.3798517227e+01    3.0465835333e-01
    1.3898679733e+01    3.0859422684e-01
    1.3999144554e+01    3.1254303455e-01
    1.4099323273e+01    3.1648236513e-01
    1.4199502945e+01    3.2042160630e-01
    1.4298810959e+01    3.2432845235e-01
    1.4398548126e+01    3.2825097442e-01
    1.4498391151e+01    3.3217808604e-01
    1.4599130630e+01    3.3614027500e-01
    1.4699625015e+01    3.4009042382e-01
    1.4799732208e+01    3.4402295947e-01
    1.4899262428e+01    3.4793135524e-01
    1.4999880791e+01    3.5187780857e-01
    1.5098719597e+01    3.5575023293e-01
    1.5198610306e+01    3.5965940356e-01
    1.5299570084e+01    3.6360448599e-01
    1.5399980545e+01    3.6752235889e-01
    1.5499902725e+01    3.7141558528e-01
    1.5599719048e+01    3.7529641390e-01
    1.5699064255e+01    3.7915343046e-01
    1.5798649788e+01    3.8301330805e-01
    1.5898917198e+01    3.8689213991e-01
    1.5999511719e+01    3.9077630639e-01
    1.6099826813e+01    3.9464274049e-01
    1.6199512482e+01    3.9847797155e-01
    1.6299785614e+01    4.0232726932e-01
    1.6399372101e+01    4.0614312887e-01
    1.6499305725e+01    4.0996307135e-01
    1.6599048615e+01    4.1376826167e-01
    1.6699186325e+01    4.1758030653e-01
    1.6798429489e+01    4.2135068774e-01
    1.6899503708e+01    4.2518270016e-01
    1.6999053955e+01    4.2894938588e-01
    1.7099515915e+01    4.3274360895e-01
    1.7199779510e+01    4.3652349710e-01
    1.7299049377e+01    4.4025892019e-01
    1.7399724960e+01    4.4404190779e-01
    1.7499521255e+01    4.4778570533e-01
    1.7598663330e+01    4.5150011778e-01
    1.7699377060e+01    4.5526739955e-01
    1.7799608231e+01    4.5901229978e-01
    1.7898965836e+01    4.6271938086e-01
    1.7999240875e+01    4.6645638347e-01
    1.8099725723e+01    4.7019791603e-01
    1.8198949814e+01    4.7388878465e-01
    1.8299024582e+01    4.7760710120e-01
    1.8399129868e+01    4.8132342100e-01
    1.8499340057e+01    4.8503938317e-01
    1.8599550247e+01    4.8875042796e-01
    1.8698759079e+01    4.9242180586e-01
    1.8798530579e+01    4.9610948563e-01
    1.8899085999e+01    4.9982309341e-01
    1.8998956680e+01    5.0350832939e-01
    1.9099990845e+01    5.0723344088e-01
    1.9199626923e+01    5.1090407372e-01
    1.9299144745e+01    5.1456862688e-01
    1.9399421692e+01    5.1825845242e-01
    1.9499637604e+01    5.2194261551e-01
    1.9599853516e+01    5.2562320232e-01
    1.9699192047e+01    5.2926731110e-01
    1.9799736023e+01    5.3295260668e-01
    1.9899597168e+01    5.3660750389e-01
    1.9999458313e+01    5.4025965929e-01
    2.0099317551e+01    5.4658156633e-01
    2.0199178696e+01    5.5291461945e-01
    2.0298517227e+01    5.5921220779e-01
    2.0399871826e+01    5.6563568115e-01
    2.0498962402e+01    5.7191449404e-01
    2.0598831177e+01    5.7824045420e-01
    2.0699207306e+01    5.8459657431e-01
    2.0799760818e+01    5.9096240997e-01
    2.0899932861e+01    5.9730273485e-01
    2.0999078751e+01    6.0357517004e-01
    2.1099082947e+01    6.0989993811e-01
    2.1200040817e+01    6.1628198624e-01
    2.1299140930e+01    6.2254387140e-01
    2.1398736954e+01    6.2883442640e-01
    2.1499895096e+01    6.3521921635e-01
    2.1598661423e+01    6.4144879580e-01
    2.1699058533e+01    6.4777511358e-01
    2.1798717499e+01    6.5404987335e-01
    2.1899429321e+01    6.6038417816e-01
    2.1999353409e+01    6.6666078568e-01
    2.2098709106e+01    6.7289549112e-01
    2.2198734283e+01    6.7916327715e-01
    2.2299903870e+01    6.8549555540e-01
    2.2399820328e+01    6.9174170494e-01
    2.2499740601e+01    6.9798099995e-01
    2.2599123001e+01    7.0418143272e-01
    2.2699390411e+01    7.1042829752e-01
    2.2799650192e+01    7.1666878462e-01
    2.2899888992e+01    7.2289961576e-01
    2.2999135971e+01    7.2906059027e-01
    2.3098852158e+01    7.3524212837e-01
    2.3198562622e+01    7.4141710997e-01
    2.3298440933e+01    7.4759435654e-01
    2.3399662018e+01    7.5384950638e-01
    2.3499134064e+01    7.5999307632e-01
    2.3598976135e+01    7.6615512371e-01
    2.3698818207e+01    7.7231431007e-01
    2.3799158096e+01    7.7850216627e-01
    2.3899055481e+01    7.8465950489e-01
    2.3999254227e+01    7.9083490372e-01
    2.4099449158e+01    7.9700678587e-01
    2.4199836731e+01    8.0318701267e-01
    2.4298568726e+01    8.0926400423e-01
    2.4400054932e+01    8.1550645828e-01
    2.4499914169e+01    8.2164478302e-01
    2.4599782944e+01    8.2777988911e-01
    2.4699327469e+01    8.3388996124e-01
    2.4799566269e+01    8.4003728628e-01
    2.4899822235e+01    8.4617877007e-01
    2.4998540878e+01    8.5221838951e-01
    2.5100027084e+01    8.5841888189e-01
    2.5199466705e+01    8.6448490620e-01
    2.5299388885e+01    8.7057060003e-01
    2.5399816513e+01    8.7667602301e-01
    2.5499284744e+01    8.8271141052e-01
    2.5599239349e+01    8.8876348734e-01
    2.5699201584e+01    8.9480531216e-01
    2.5799791336e+01    9.0087121725e-01
    2.5898660660e+01    9.0682178736e-01
    2.5998544693e+01    9.1282004118e-01
    2.6099594116e+01    9.1887372732e-01
    2.6198757172e+01    9.2480152845e-01
    2.6299083710e+01    9.3078249693e-01
    2.6398723602e+01    9.3670856953e-01
    2.6498689651e+01    9.4263857603e-01
    2.6598659515e+01    9.4855189323e-01
    2.6699123383e+01    9.5448482037e-01
    2.6799583435e+01    9.6039283276e-01
    2.6899261475e+01    9.6624338627e-01
    2.6999736786e+01    9.7213339806e-01
    2.7100051880e+01    9.7799187899e-01
    2.7199480057e+01    9.8379606009e-01
    2.7299264908e+01    9.8960500956e-01
    2.7399196625e+01    9.9541127682e-01
    2.7499994278e+01    1.0012484789e+00
    2.7598958969e+01    1.0069828033e+00
    2.7699207306e+01    1.0127749443e+00
    2.7799465179e+01    1.0185576677e+00
    2.7899227142e+01    1.0243064165e+00
    2.7999715805e+01    1.0300801992e+00
    2.8098754883e+01    1.0357708931e+00
    2.8199239731e+01    1.0415399075e+00
    2.8299148560e+01    1.0472674370e+00
    2.8399087906e+01    1.0529870987e+00
    2.8499320984e+01    1.0587159395e+00
    2.8599552155e+01    1.0644365549e+00
    2.8700038910e+01    1.0701562166e+00
    2.8799930573e+01    1.0758439302e+00
    2.8899827957e+01    1.0815241337e+00
    2.8999727249e+01    1.0871872902e+00
    2.9099624634e+01    1.0928536654e+00
    2.9198661804e+01    1.0984629393e+00
    2.9300012589e+01    1.1041907072e+00
    2.9399641037e+01    1.1098208427e+00
    2.9499870300e+01    1.1154779196e+00
    2.9598558426e+01    1.1210454702e+00
    2.9698783875e+01    1.1266885996e+00
    2.9799528122e+01    1.1323487759e+00
    2.9899206161e+01    1.1379439831e+00
    2.9999074936e+01    1.1435505152e+00
    3.0098939896e+01    1.1550612450e+00
    3.0198802948e+01    1.1666264534e+00
    3.0299003601e+01    1.1782330275e+00
    3.0398899078e+01    1.1897886992e+00
    3.0498756409e+01    1.2013406754e+00
    3.0598539352e+01    1.2128794193e+00
    3.0698753357e+01    1.2244689465e+00
    3.0798460007e+01    1.2359899282e+00
    3.0899412155e+01    1.2476520538e+00
    3.0999244690e+01    1.2591710091e+00
    3.1099538803e+01    1.2707489729e+00
    3.1199554443e+01    1.2822840214e+00
    3.1299940109e+01    1.2938469648e+00
    3.1398616791e+01    1.3052139282e+00
    3.1498872757e+01    1.3167530298e+00
    3.1599708557e+01    1.3283550739e+00
    3.1698604584e+01    1.3397209644e+00
    3.1799562454e+01    1.3513100147e+00
    3.1899860382e+01    1.3628039360e+00
    3.1999465942e+01    1.3742120266e+00
    3.2099044800e+01    1.3855969906e+00
    3.2199005127e+01    1.3970220089e+00
    3.2298976898e+01    1.4084219933e+00
    3.2398956299e+01    1.4198189974e+00
    3.2500015259e+01    1.4313189983e+00
    3.2598815918e+01    1.4425469637e+00
    3.2699146271e+01    1.4539411068e+00
    3.2799465179e+01    1.4653190374e+00
    3.2899955750e+01    1.4766979218e+00
    3.2999244690e+01    1.4879269600e+00
    3.3099006653e+01    1.4991930723e+00
    3.3198947906e+01    1.5104579926e+00
    3.3298881531e+01    1.5217089653e+00
    3.3398788452e+01    1.5329380035e+00
    3.3498664856e+01    1.5441670418e+00
    3.3598518372e+01    1.5553789139e+00
    3.3700004578e+01    1.5667589903e+00
    3.3799858093e+01    1.5779581070e+00
    3.3899078369e+01    1.5890830755e+00
    3.3999279022e+01    1.6003079414e+00
    3.4099468231e+01    1.6115379333e+00
    3.4199657440e+01    1.6227530241e+00
    3.4298976898e+01    1.6338649988e+00
    3.4398822784e+01    1.6450330019e+00
    3.4498683929e+01    1.6561939716e+00
    3.4600006104e+01    1.6675039530e+00
    3.4698703766e+01    1.6785259247e+00
    3.4799999237e+01    1.6898159981e+00
    3.4899131775e+01    1.7008590698e+00
    3.4999439240e+01    1.7120089531e+00
    3.5098583221e+01    1.7230219841e+00
    3.5199813843e+01    1.7342540026e+00
    3.5299800873e+01    1.7453180552e+00
    3.5399803162e+01    1.7563719749e+00
    3.5499828339e+01    1.7674040794e+00
    3.5599868774e+01    1.7784230709e+00
    3.5699928284e+01    1.7894090414e+00
    3.5799468994e+01    1.8003200293e+00
    3.5899879456e+01    1.8113020658e+00
    3.5999172211e+01    1.8221400976e+00
    3.6099941254e+01    1.8331050873e+00
    3.6198822021e+01    1.8438479900e+00
    3.6299247742e+01    1.8547259569e+00
    3.6398387909e+01    1.8654408455e+00
    3.6498443604e+01    1.8762300014e+00
    3.6598506927e+01    1.8869819641e+00
    3.6698467255e+01    1.8976989985e+00
    3.6798519135e+01    1.9084079266e+00
    3.6898571014e+01    1.9190831184e+00
    3.6999034882e+01    1.9297850132e+00
    3.7099430084e+01    1.9404559135e+00
    3.7199806213e+01    1.9510959387e+00
    3.7298713684e+01    1.9615660906e+00
    3.7398700714e+01    1.9721319675e+00
    3.7498680115e+01    1.9826680422e+00
    3.7599437714e+01    1.9932780266e+00
    3.7699954987e+01    2.0038340092e+00
    3.7798725128e+01    2.0141930580e+00
    3.7899040222e+01    2.0246999264e+00
    3.7998901367e+01    2.0351428986e+00
    3.8098854065e+01    2.0455791950e+00
    3.8199676514e+01    2.0560998917e+00
    3.8298599243e+01    2.0664010048e+00
    3.8398880005e+01    2.0768249035e+00
    3.8499145508e+01    2.0872349739e+00
    3.8599403381e+01    2.0976281166e+00
    3.8699810028e+01    2.1080210209e+00
    3.8799743652e+01    2.1183497906e+00
    3.8899318695e+01    2.1286330223e+00
    3.8999256134e+01    2.1389350891e+00
    3.9099193573e+01    2.1492249966e+00
    3.9199428558e+01    2.1595261097e+00
    3.9299346924e+01    2.1697938442e+00
    3.9399574280e+01    2.1800820827e+00
    3.9499832153e+01    2.1903591156e+00
    3.9598548889e+01    2.2004609108e+00
    3.9698802948e+01    2.2107110023e+00
    3.9799804688e+01    2.2210278511e+00
    3.9899700165e+01    2.2312080860e+00
    3.9999599457e+01    2.2413849831e+00
    4.0099491119e+01    2.2592890263e+00
    4.0199382782e+01    2.2772128582e+00
    4.0299308777e+01    2.2951438427e+00
    4.0398658752e+01    2.3129518032e+00
    4.0498542786e+01    2.3308470249e+00
    4.0599205017e+01    2.3488729000e+00
    4.0699443817e+01    2.3668220043e+00
    4.0798583984e+01    2.3845610619e+00
    4.0899005890e+01    2.4025161266e+00
    4.0999259949e+01    2.4204361439e+00
    4.1099006653e+01    2.4382479191e+00
    4.1199893951e+01    2.4562580585e+00
    4.1299819946e+01    2.4740810394e+00
    4.1399124146e+01    2.4917759895e+00
    4.1499900818e+01    2.5097260475e+00
    4.1598678589e+01    2.5272920132e+00
    4.1698535919e+01    2.5450408459e+00
    4.1798995972e+01    2.5628719330e+00
    4.1898971558e+01    2.5805919170e+00
    4.1999313354e+01    2.5983581543e+00
    4.2099376678e+01    2.6160449982e+00
    4.2199447632e+01    2.6337039471e+00
    4.2299526215e+01    2.6513369083e+00
    4.2399623871e+01    2.6689429283e+00
    4.2499732971e+01    2.6865339279e+00
    4.2599319458e+01    2.7040059566e+00
    4.2699764252e+01    2.7216048241e+00
    4.2798641205e+01    2.7389030457e+00
    4.2898471832e+01    2.7563309669e+00
    4.2998527527e+01    2.7737619877e+00
    4.3098300934e+01    2.7911200523e+00
    4.3198326111e+01    2.8084990978e+00
    4.3298343658e+01    2.8258318901e+00
    4.3398330688e+01    2.8431520462e+00
    4.3499904633e+01    2.8607208729e+00
    4.3599796295e+01    2.8779761791e+00
    4.3699680328e+01    2.8952178955e+00
    4.3799571991e+01    2.9124569893e+00
    4.3899032593e+01    2.9295990467e+00
    4.3999256134e+01    2.9468650818e+00
    4.4099460602e+01    2.9641201496e+00
    4.4199665070e+01    2.9813630581e+00
    4.4299095154e+01    2.9984598160e+00
    4.4398963928e+01    3.0156190395e+00
    4.4498863220e+01    3.0327630043e+00
    4.4598987579e+01    3.0499351025e+00
    4.4699558258e+01    3.0671749115e+00
    4.4799873352e+01    3.0843460560e+00
    4.4898685455e+01    3.1012370586e+00
    4.4999061584e+01    3.1183698177e+00
    4.5098480225e+01    3.1353199482e+00
    4.5198535919e+01    3.1523489952e+00
    4.5298606873e+01    3.1693449020e+00
    4.5398704529e+01    3.1863059998e+00
    4.5498825073e+01    3.2032408714e+00
    4.5598976135e+01    3.2201468945e+00
    4.5699150085e+01    3.2370150089e+00
    4.5798889160e+01    3.2537720203e+00
    4.5899417877e+01    3.2706308365e+00
    4.5998348236e+01    3.2871711254e+00
    4.6099803925e+01    3.3041059971e+00
    4.6198802948e+01    3.3205828667e+00
    4.6299346924e+01    3.3372790813e+00
    4.6398906708e+01    3.3537590504e+00
    4.6499076843e+01    3.3703010082e+00
    4.6599254608e+01    3.3868088722e+00
    4.6699428558e+01    3.4032618999e+00
    4.6799594879e+01    3.4196739197e+00
    4.6899757385e+01    3.4360449314e+00
    4.6999172211e+01    3.4522478580e+00
    4.7099685669e+01    3.4685981274e+00
    4.7198627472e+01    3.4846589565e+00
    4.7298973083e+01    3.5009138584e+00
    4.7399055481e+01    3.5170869827e+00
    4.7499118805e+01    3.5332267284e+00
    4.7599098206e+01    3.5493199825e+00
    4.7699497223e+01    3.5654537678e+00
    4.7798332214e+01    3.5813093185e+00
    4.7899093628e+01    3.5974411964e+00
    4.7999114990e+01    3.6134297848e+00
    4.8099136353e+01    3.6293950081e+00
    4.8199150085e+01    3.6453356743e+00
    4.8299163818e+01    3.6612529755e+00
    4.8399497986e+01    3.6771898270e+00
    4.8499809265e+01    3.6931011677e+00
    4.8598567963e+01    3.7087390423e+00
    4.8699710846e+01    3.7247281075e+00
    4.8799705505e+01    3.7405152321e+00
    4.8899715424e+01    3.7562758923e+00
    4.8999729156e+01    3.7720041275e+00
    4.9099742889e+01    3.7877199650e+00
    4.9199687958e+01    3.8034090996e+00
    4.9299121857e+01    3.8189921379e+00
    4.9399105072e+01    3.8346378803e+00
    4.9499420166e+01    3.8503170013e+00
    4.9599727631e+01    3.8659729958e+00
    4.9698486328e+01    3.8813619614e+00
    4.9798564911e+01    3.8969321251e+00
    4.9898513794e+01    3.9124631882e+00
    4.9998458862e+01    3.9279618263e+00
    5.0098396301e+01    3.9528889656e+00
    5.0198333740e+01    3.9779469967e+00
    5.0298988342e+01    4.0031609535e+00
    5.0399051666e+01    4.0282182693e+00
    5.0498958588e+01    4.0532169342e+00
    5.0599754333e+01    4.0784149170e+00
    5.0698848724e+01    4.1031761169e+00
    5.0798778534e+01    4.1281371117e+00
    5.0899791718e+01    4.1533446312e+00
    5.0998546600e+01    4.1779732704e+00
    5.1099422455e+01    4.2031106949e+00
    5.1199409485e+01    4.2280049324e+00
    5.1299392700e+01    4.2528772354e+00
    5.1398460388e+01    4.2775049210e+00
    5.1498828888e+01    4.3024291992e+00
    5.1599227905e+01    4.3273220062e+00
    5.1698795319e+01    4.3519878387e+00
    5.1799270630e+01    4.3768410683e+00
    5.1898498535e+01    4.4013409615e+00
    5.1999736786e+01    4.4263000488e+00
    5.2098293304e+01    4.4505510330e+00
    5.2198513031e+01    4.4751653671e+00
    5.2298740387e+01    4.4997420311e+00
    5.2398986816e+01    4.5242743492e+00
    5.2499252319e+01    4.5487623215e+00
    5.2598693848e+01    4.5730128288e+00
    5.2699298859e+01    4.5975031853e+00
    5.2798324585e+01    4.6215581894e+00
    5.2898887634e+01    4.6459450722e+00
    5.2998146057e+01    4.6699590683e+00
    5.3098270416e+01    4.6941318512e+00
    5.3198638916e+01    4.7183213234e+00
    5.3298763275e+01    4.7424001694e+00
    5.3398845673e+01    4.7664418221e+00
    5.3498863220e+01    4.7904219627e+00
    5.3598827362e+01    4.8143548965e+00
    5.3698783875e+01    4.8382711411e+00
    5.3798748016e+01    4.8621520996e+00
    5.3898376465e+01    4.8859310150e+00
    5.3998661041e+01    4.9098563194e+00
    5.4098922729e+01    4.9337391853e+00
    5.4199176788e+01    4.9576001167e+00
    5.4299434662e+01    4.9814462662e+00
    5.4398975372e+01    5.0050849915e+00
    5.4498928070e+01    5.0288119316e+00
    5.4598907471e+01    5.0525121689e+00
    5.4699142456e+01    5.0762381554e+00
    5.4799526215e+01    5.0999741554e+00
    5.4898410797e+01    5.1233248711e+00
    5.4998855591e+01    5.1470079422e+00
    5.5099414825e+01    5.1706819534e+00
    5.5199550629e+01    5.1942100525e+00
    5.5299709320e+01    5.2176890373e+00
    5.5398262024e+01    5.2407469749e+00
    5.5498493195e+01    5.2641501427e+00
    5.5598762512e+01    5.2874960899e+00
    5.5699066162e+01    5.3108038902e+00
    5.5799133301e+01    5.3340039253e+00
    5.5898250580e+01    5.3569250107e+00
    5.5998855591e+01    5.3801240921e+00
    5.6098251343e+01    5.4029998779e+00
    5.6198928833e+01    5.4260997772e+00
    5.6299610138e+01    5.4491400719e+00
    5.6399494171e+01    5.4719295502e+00
    5.6498153687e+01    5.4943799973e+00
    5.6598472595e+01    5.5171499252e+00
    5.6698787689e+01    5.5398502350e+00
    5.6799095154e+01    5.5624704361e+00
    5.6899394989e+01    5.5850400925e+00
    5.6998844147e+01    5.6073598862e+00
    5.7099479675e+01    5.6298999786e+00
    5.7198535919e+01    5.6520199776e+00
    5.7298126221e+01    5.6742200851e+00
    5.7398303986e+01    5.6964902878e+00
    5.7498462677e+01    5.7187199593e+00
    5.7599483490e+01    5.7410798073e+00
    5.7698429108e+01    5.7629399300e+00
    5.7798900604e+01    5.7850899696e+00
    5.7898387909e+01    5.8069801331e+00
    5.7998489380e+01    5.8289699554e+00
    5.8098590851e+01    5.8509302139e+00
    5.8198692322e+01    5.8728499413e+00
    5.8298336029e+01    5.8946304321e+00
    5.8398750305e+01    5.9165401459e+00
    5.8499137878e+01    5.9383997917e+00
    5.8599510193e+01    5.9602298737e+00
    5.8698715210e+01    5.9817399979e+00
    5.8798801422e+01    6.0034298897e+00
    5.8898906708e+01    6.0250601768e+00
    5.8999023438e+01    6.0466699600e+00
    5.9099143982e+01    6.0682301521e+00
    5.9198684692e+01    6.0896396637e+00
    5.9298103333e+01    6.1109900475e+00
    5.9398941040e+01    6.1325902939e+00
    5.9499332428e+01    6.1540899277e+00
    5.9598171234e+01    6.1751999855e+00
    5.9698547363e+01    6.1966099739e+00
    5.9799266815e+01    6.2180600166e+00
    5.9899276733e+01    6.2393002510e+00
    5.9999275208e+01    6.2605299950e+00
    6.0099266052e+01    6.2928600311e+00
    6.0199249268e+01    6.3252301216e+00
    6.0298599243e+01    6.3573703766e+00
    6.0399562836e+01    6.3900098801e+00
    6.0499507904e+01    6.4222998619e+00
    6.0598796844e+01    6.4543499947e+00
    6.0699085236e+01    6.4866900444e+00
    6.0798671722e+01    6.5187802315e+00
    6.0898384094e+01    6.5508899689e+00
    6.0998741150e+01    6.5831699371e+00
    6.1098243713e+01    6.6151499748e+00
    6.1198612213e+01    6.6473693848e+00
    6.1298496246e+01    6.6794104576e+00
    6.1398799896e+01    6.7115402222e+00
    6.1499267578e+01    6.7436795235e+00
    6.1598220825e+01    6.7753000259e+00
    6.1698783875e+01    6.8073697090e+00
    6.1799381256e+01    6.8394103050e+00
    6.1898834229e+01    6.8710198402e+00
    6.1998859406e+01    6.9027595520e+00
    6.2099220276e+01    6.9345302582e+00
    6.2199611664e+01    6.9662303925e+00
    6.2298370361e+01    6.9973602295e+00
    6.2398792267e+01    7.0289502144e+00
    6.2499240875e+01    7.0604796410e+00
    6.2598773956e+01    7.0916500092e+00
    6.2699558258e+01    7.1231498718e+00
    6.2798755646e+01    7.1540794373e+00
    6.2899490356e+01    7.1854305267e+00
    6.2998657227e+01    7.2161998749e+00
    6.3099346161e+01    7.2473797798e+00
    6.3199203491e+01    7.2782201767e+00
    6.3299476624e+01    7.3091201782e+00
    6.3398059845e+01    7.3394503593e+00
    6.3498203278e+01    7.3701906204e+00
    6.3598281860e+01    7.4008703232e+00
    6.3698345184e+01    7.4314994812e+00
    6.3798412323e+01    7.4620800018e+00
    6.3899494171e+01    7.4929304123e+00
    6.3998321533e+01    7.5230603218e+00
    6.4098655701e+01    7.5536103249e+00
    6.4198974609e+01    7.5841197968e+00
    6.4299301147e+01    7.6145896912e+00
    6.4398712158e+01    7.6447401047e+00
    6.4498733521e+01    7.6750402451e+00
    6.4598770142e+01    7.7053003311e+00
    6.4699050903e+01    7.7355904579e+00
    6.4799507141e+01    7.7659001350e+00
    6.4898460388e+01    7.7957000732e+00
    6.4998977661e+01    7.8259301186e+00
    6.5099517822e+01    7.8560996056e+00
    6.5198020935e+01    7.8855996132e+00
    6.5298271179e+01    7.9155702591e+00
    6.5398559570e+01    7.9454703331e+00
    6.5498901367e+01    7.9753198624e+00
    6.5599288940e+01    8.0051002502e+00
    6.5698081970e+01    8.0343494415e+00
    6.5799057007e+01    8.0641593933e+00
    6.5898315430e+01    8.0933599472e+00
    6.5998672485e+01    8.1228399277e+00
    6.6099273682e+01    8.1522998810e+00
    6.6198547363e+01    8.1812400818e+00
    6.6299369812e+01    8.2106103897e+00
    6.6398918152e+01    8.2395401001e+00
    6.6499366760e+01    8.2685699463e+00
    6.6598175049e+01    8.2971200943e+00
    6.6698631287e+01    8.3259696960e+00
    6.6799079895e+01    8.3547401428e+00
    6.6899513245e+01    8.3834199905e+00
    6.6999481201e+01    8.4119901657e+00
    6.7098686218e+01    8.4401893616e+00
    6.7199401855e+01    8.4687099457e+00
    6.7298522949e+01    8.4967708588e+00
    6.7398216248e+01    8.5248899460e+00
    6.7498466492e+01    8.5531702042e+00
    6.7599105835e+01    8.5814304352e+00
    6.7698150635e+01    8.6091394424e+00
    6.7798721313e+01    8.6372795105e+00
    6.7899284363e+01    8.6653594971e+00
    6.7999114990e+01    8.6931896210e+00
    6.8099319458e+01    8.7210102081e+00
    6.8197891235e+01    8.7483100891e+00
    6.8299293518e+01    8.7764596939e+00
    6.8398277283e+01    8.8037900925e+00
    6.8498756409e+01    8.8314599991e+00
    6.8599227905e+01    8.8591604233e+00
    6.8698150635e+01    8.8863201141e+00
    6.8798355103e+01    8.9137306213e+00
    6.8898590088e+01    8.9410905838e+00
    6.8998832703e+01    8.9684801102e+00
    6.9099082947e+01    8.9957103729e+00
    6.9198181152e+01    9.0226593018e+00
    6.9298210144e+01    9.0498294830e+00
    6.9398376465e+01    9.0769195557e+00
    6.9499244690e+01    9.1041603088e+00
    6.9598175049e+01    9.1308202744e+00
    6.9698638916e+01    9.1578102112e+00
    6.9799362183e+01    9.1849098206e+00
    6.9899452209e+01    9.2116394043e+00
    6.9997894287e+01    9.2379608154e+00
    7.0097953796e+01    9.2756004333e+00
    7.0198013306e+01    9.3133897781e+00
    7.0298385620e+01    9.3511896133e+00
    7.0397972107e+01    9.3886604309e+00
    7.0497970581e+01    9.4263401031e+00
    7.0598266602e+01    9.4640398026e+00
    7.0698616028e+01    9.5016899109e+00
    7.0798156738e+01    9.5390195847e+00
    7.0898239136e+01    9.5765295029e+00
    7.0998672485e+01    9.6141395569e+00
    7.1099128723e+01    9.6517000198e+00
    7.1198059082e+01    9.6885404587e+00
    7.1298225403e+01    9.7259407043e+00
    7.1398330688e+01    9.7631998062e+00
    7.1498901367e+01    9.8005199432e+00
    7.1597961426e+01    9.8373203278e+00
    7.1698646545e+01    9.8746004105e+00
    7.1799377441e+01    9.9117898941e+00
    7.1898872375e+01    9.9484901428e+00
    7.1999336243e+01    9.9854602814e+00
    7.2098213196e+01    1.0021679878e+01
    7.2198783875e+01    1.0058540344e+01
    7.2299377441e+01    1.0095199585e+01
    7.2398338318e+01    1.0131219864e+01
    7.2498985291e+01    1.0167790413e+01
    7.2597938538e+01    1.0203630447e+01
    7.2698936462e+01    1.0240150452e+01
    7.2798332214e+01    1.0275929451e+01
    7.2899261475e+01    1.0312250137e+01
    7.2998626709e+01    1.0347829819e+01
    7.3097946167e+01    1.0383310318e+01
    7.3198951721e+01    1.0419209480e+01
    7.3299400330e+01    1.0454899788e+01
    7.3398155212e+01    1.0489889145e+01
    7.3498458862e+01    1.0525329590e+01
    7.3598686218e+01    1.0560710907e+01
    7.3698890686e+01    1.0595930099e+01
    7.3799095154e+01    1.0631179810e+01
    7.3898948669e+01    1.0666229248e+01
    7.3999420166e+01    1.0701410294e+01
    7.4098297119e+01    1.0735919952e+01
    7.4198692322e+01    1.0770999908e+01
    7.4299095154e+01    1.0805910110e+01
    7.4399269104e+01    1.0840820312e+01
    7.4499359131e+01    1.0875579834e+01
    7.4597831726e+01    1.0909669876e+01
    7.4697959900e+01    1.0944310188e+01
    7.4798286438e+01    1.0978950500e+01
    7.4898857117e+01    1.1013690948e+01
    7.4997894287e+01    1.1047740936e+01
    7.5098503113e+01    1.1082329750e+01
    7.5198562622e+01    1.1116640091e+01
    7.5298904419e+01    1.1150910378e+01
    7.5399284363e+01    1.1185079575e+01
    7.5498069763e+01    1.1218649864e+01
    7.5598571777e+01    1.1252710342e+01
    7.5699127197e+01    1.1286760330e+01
    7.5798065186e+01    1.1320119858e+01
    7.5899368286e+01    1.1354129791e+01
    7.5998306274e+01    1.1387289047e+01
    7.6098739624e+01    1.1420869827e+01
    7.6198127747e+01    1.1453929901e+01
    7.6299057007e+01    1.1487390518e+01
    7.6398429871e+01    1.1520250320e+01
    7.6498603821e+01    1.1553319931e+01
    7.6599174500e+01    1.1586310387e+01
    7.6698097229e+01    1.1618720055e+01
    7.6798660278e+01    1.1651490211e+01
    7.6899208069e+01    1.1684260368e+01
    7.6998306274e+01    1.1716420174e+01
    7.7099166870e+01    1.1749030113e+01
    7.7198432922e+01    1.1780969620e+01
    7.7298416138e+01    1.1813079834e+01
    7.7398780823e+01    1.1845320702e+01
    7.7498352051e+01    1.1877140045e+01
    7.7598548889e+01    1.1909139633e+01
    7.7699234009e+01    1.1941160202e+01
    7.7798362732e+01    1.1972620010e+01
    7.7899032593e+01    1.2004480362e+01
    7.7998100281e+01    1.2035699844e+01
    7.8098434448e+01    1.2067289352e+01
    7.8198776245e+01    1.2098899841e+01
    7.8298385620e+01    1.2130090714e+01
    7.8399032593e+01    1.2161589622e+01
    7.8498085022e+01    1.2192440033e+01
    7.8598670959e+01    1.2223789215e+01
    7.8698104858e+01    1.2254600525e+01
    7.8798423767e+01    1.2285629272e+01
    7.8898788452e+01    1.2316669464e+01
    7.8999168396e+01    1.2347520828e+01
    7.9097923279e+01    1.2377850533e+01
    7.9198036194e+01    1.2408510208e+01
    7.9297828674e+01    1.2439070702e+01
    7.9398124695e+01    1.2469650269e+01
    7.9498718262e+01    1.2500179291e+01
    7.9599296570e+01    1.2530750275e+01
    7.9698318481e+01    1.2560680389e+01
    7.9798080444e+01    1.2590779305e+01
    7.9898269653e+01    1.2621000290e+01
    7.9998451233e+01    1.2651050568e+01
    8.0098617554e+01    1.2692640305e+01
    8.0198776245e+01    1.2734360695e+01
    8.0297973633e+01    1.2775640488e+01
    8.0398445129e+01    1.2817378998e+01
    8.0497947693e+01    1.2858678818e+01
    8.0599060059e+01    1.2900560379e+01
    8.0697914124e+01    1.2941499710e+01
    8.0798088074e+01    1.2982880592e+01
    8.0898307800e+01    1.3024188995e+01
    8.0998809814e+01    1.3065580368e+01
    8.1097900391e+01    1.3106430054e+01
    8.1198966980e+01    1.3147850037e+01
    8.1298370361e+01    1.3188690186e+01
    8.1398605347e+01    1.3229670525e+01
    8.1499275208e+01    1.3270771027e+01
    8.1598442078e+01    1.3311229706e+01
    8.1699234009e+01    1.3352230072e+01
    8.1798530579e+01    1.3392478943e+01
    8.1897857666e+01    1.3432720184e+01
    8.1999053955e+01    1.3473600388e+01
    8.2098083496e+01    1.3513370514e+01
    8.2198829651e+01    1.3553809166e+01
    8.2297943115e+01    1.3593521118e+01
    8.2398750305e+01    1.3633699417e+01
    8.2497940063e+01    1.3673040390e+01
    8.2599136353e+01    1.3713178635e+01
    8.2698791504e+01    1.3752559662e+01
    8.2798385620e+01    1.3791740417e+01
    8.2897949219e+01    1.3830780029e+01
    8.2999046326e+01    1.3870309830e+01
    8.3098541260e+01    1.3909099579e+01
    8.3199142456e+01    1.3948179245e+01
    8.3298110962e+01    1.3986449242e+01
    8.3398666382e+01    1.4025289536e+01
    8.3499122620e+01    1.4063949585e+01
    8.3597854614e+01    1.4101850510e+01
    8.3698188782e+01    1.4140239716e+01
    8.3798522949e+01    1.4178539276e+01
    8.3897804260e+01    1.4216339111e+01
    8.3998382568e+01    1.4254619598e+01
    8.4098884583e+01    1.4292730331e+01
    8.4197814941e+01    1.4330179214e+01
    8.4298294067e+01    1.4368150711e+01
    8.4397979736e+01    1.4405739784e+01
    8.4498130798e+01    1.4443439484e+01
    8.4598312378e+01    1.4481060028e+01
    8.4698509216e+01    1.4518690109e+01
    8.4798606873e+01    1.4556079865e+01
    8.4899253845e+01    1.4593639374e+01
    8.4998344421e+01    1.4630530357e+01
    8.5099014282e+01    1.4668009758e+01
    8.5198188782e+01    1.4704689980e+01
    8.5299186707e+01    1.4742069244e+01
    8.5397994995e+01    1.4778429985e+01
    8.5498504639e+01    1.4815320969e+01
    8.5599098206e+01    1.4852170944e+01
    8.5698104858e+01    1.4888328552e+01
    8.5797729492e+01    1.4924509048e+01
    8.5898422241e+01    1.4961071014e+01
    8.5999107361e+01    1.4997400284e+01
    8.6099044800e+01    1.5033430099e+01
    8.6198532104e+01    1.5069050789e+01
    8.6297996521e+01    1.5104650497e+01
    8.6399009705e+01    1.5140570641e+01
    8.6498611450e+01    1.5175960541e+01
    8.6597625732e+01    1.5210990906e+01
    8.6698287964e+01    1.5246400833e+01
    8.6798950195e+01    1.5281690598e+01
    8.6897956848e+01    1.5316329002e+01
    8.6998817444e+01    1.5351420403e+01
    8.7098220825e+01    1.5385919571e+01
    8.7198150635e+01    1.5420550346e+01
    8.7299079895e+01    1.5455381393e+01
    8.7398658752e+01    1.5489601135e+01
    8.7498130798e+01    1.5523740768e+01
    8.7598899841e+01    1.5558090210e+01
    8.7698127747e+01    1.5591999054e+01
    8.7798904419e+01    1.5626139641e+01
    8.7898139954e+01    1.5659851074e+01
    8.7998779297e+01    1.5693840027e+01
    8.8097587585e+01    1.5727090836e+01
    8.8198059082e+01    1.5760848999e+01
    8.8298675537e+01    1.5794569016e+01
    8.8397895813e+01    1.5827718735e+01
    8.8498611450e+01    1.5861209869e+01
    8.8597763062e+01    1.5894180298e+01
    8.8698501587e+01    1.5927539825e+01
    8.8797897339e+01    1.5960310936e+01
    8.8898391724e+01    1.5993330002e+01
    8.8998924255e+01    1.6026229858e+01
    8.9097831726e+01    1.6058540344e+01
    8.9198394775e+01    1.6091329575e+01
    8.9298904419e+01    1.6123931885e+01
    8.9397712708e+01    1.6155879974e+01
    8.9497779846e+01    1.6188240051e+01
    8.9598510742e+01    1.6220680237e+01
    8.9697662354e+01    1.6252429962e+01
    8.9799003601e+01    1.6284879684e+01
    8.9897674561e+01    1.6316280365e+01
    8.9997970581e+01    1.6348169327e+01
    9.0098243713e+01    1.6394268036e+01
    9.0198501587e+01    1.6440490723e+01
    9.0298751831e+01    1.6486629486e+01
    9.0397926331e+01    1.6532249451e+01
    9.0498855591e+01    1.6578609467e+01
    9.0598960876e+01    1.6624481201e+01
    9.0699050903e+01    1.6670289993e+01
    9.0799163818e+01    1.6716011047e+01
    9.0898490906e+01    1.6761310577e+01
    9.0999046326e+01    1.6807130814e+01
    9.1099060059e+01    1.6852550507e+01
    9.1198524475e+01    1.6897769928e+01
    9.1297676086e+01    1.6942611694e+01
    9.1398414612e+01    1.6988121033e+01
    9.1499061584e+01    1.7033580780e+01
    9.1598091125e+01    1.7078170776e+01
    9.1698982239e+01    1.7123430252e+01
    9.1798377991e+01    1.7167869568e+01
    9.1897811890e+01    1.7212270737e+01
    9.1998817444e+01    1.7257289886e+01
    9.2097976685e+01    1.7301198959e+01
    9.2198867798e+01    1.7345869064e+01
    9.2298149109e+01    1.7389530182e+01
    9.2399131775e+01    1.7433950424e+01
    9.2498512268e+01    1.7477380753e+01
    9.2597877502e+01    1.7520669937e+01
    9.2697708130e+01    1.7564039230e+01
    9.2799026489e+01    1.7607929230e+01
    9.2898323059e+01    1.7650760651e+01
    9.2998008728e+01    1.7693588257e+01
    9.3097648621e+01    1.7736171722e+01
    9.3198387146e+01    1.7779090881e+01
    9.3297500610e+01    1.7821239471e+01
    9.3398200989e+01    1.7863861084e+01
    9.3498794556e+01    1.7906290054e+01
    9.3597633362e+01    1.7947830200e+01
    9.3698081970e+01    1.7989971161e+01
    9.3798515320e+01    1.8031999588e+01
    9.3898735046e+01    1.8073810577e+01
    9.3997825623e+01    1.8115039825e+01
    9.4098381042e+01    1.8156829834e+01
    9.4198898315e+01    1.8198431015e+01
    9.4297859192e+01    1.8239311218e+01
    9.4398071289e+01    1.8280639648e+01
    9.4498252869e+01    1.8321880341e+01
    9.4598472595e+01    1.8363021851e+01
    9.4698722839e+01    1.8404048920e+01
    9.4798881531e+01    1.8445018768e+01
    9.4898048401e+01    1.8485479355e+01
    9.4998756409e+01    1.8526439667e+01
    9.5097946167e+01    1.8566680908e+01
    9.5198738098e+01    1.8607379913e+01
    9.5297683716e+01    1.8647270203e+01
    9.5398208618e+01    1.8687709808e+01
    9.5498626709e+01    1.8727859497e+01
    9.5598861694e+01    1.8767940521e+01
    9.5697959900e+01    1.8807310104e+01
    9.5798217773e+01    1.8847000122e+01
    9.5899002075e+01    1.8886829376e+01
    9.5998146057e+01    1.8925760269e+01
    9.6098182678e+01    1.8964988708e+01
    9.6197776794e+01    1.9003839493e+01
    9.6298912048e+01    1.9043119431e+01
    9.6398475647e+01    1.9081670761e+01
    9.6498977661e+01    1.9120479584e+01
    9.6598091125e+01    1.9158489227e+01
    9.6698844910e+01    1.9196969986e+01
    9.6797950745e+01    1.9234771729e+01
    9.6898712158e+01    1.9272949219e+01
    9.6998214722e+01    1.9310499191e+01
    9.7097724915e+01    1.9348020554e+01
    9.7198402405e+01    1.9385820389e+01
    9.7298225403e+01    1.9423038483e+01
    9.7398559570e+01    1.9460430145e+01
    9.7497909546e+01    1.9497390747e+01
    9.7598747253e+01    1.9534698486e+01
    9.7698051453e+01    1.9571319580e+01
    9.7798912048e+01    1.9608369827e+01
    9.7898231506e+01    1.9644748688e+01
    9.7998313904e+01    1.9681289673e+01
    9.8098892212e+01    1.9717899323e+01
    9.8197853088e+01    1.9753799438e+01
    9.8298690796e+01    1.9790298462e+01
    9.8398025513e+01    1.9826099396e+01
    9.8498847961e+01    1.9862300873e+01
    9.8598106384e+01    1.9897800446e+01
    9.8698974609e+01    1.9933799744e+01
    9.8797836304e+01    1.9968900681e+01
    9.8898475647e+01    2.0004499435e+01
    9.8997512817e+01    2.0039402008e+01
    9.9098251343e+01    2.0074800491e+01
    9.9199012756e+01    2.0110000610e+01
    9.9297470093e+01    2.0144300461e+01
    9.9398101807e+01    2.0179300308e+01
    9.9497741699e+01    2.0213699341e+01
    9.9598617554e+01    2.0248600006e+01
    9.9697898865e+01    2.0282600403e+01
    9.9797409058e+01    2.0316799164e+01
    9.9897827148e+01    2.0350898743e+01
    9.9998229980e+01    2.0385099411e+01
    1.0009860229e+02    2.0436498642e+01
    1.0019895935e+02    2.0487899780e+01
    1.0029766846e+02    2.0538497925e+01
    1.0039761353e+02    2.0589599609e+01
    1.0049803925e+02    2.0640899658e+01
    1.0059819031e+02    2.0691900253e+01
    1.0069831848e+02    2.0742799759e+01
    1.0079846191e+02    2.0793701172e+01
    1.0089839935e+02    2.0844400406e+01
    1.0099899292e+02    2.0895301819e+01
    1.0109806824e+02    2.0945299149e+01
    1.0119821167e+02    2.0995800018e+01
    1.0129826355e+02    2.1046100616e+01
    1.0139749908e+02    2.1095901489e+01
    1.0149790192e+02    2.1146099091e+01
    1.0159793091e+02    2.1196102142e+01
    1.0169889832e+02    2.1246498108e+01
    1.0179837036e+02    2.1295902252e+01
    1.0189788818e+02    2.1345100403e+01
    1.0199812317e+02    2.1394599915e+01
    1.0209883881e+02    2.1444099426e+01
    1.0219863129e+02    2.1493000031e+01
    1.0229736328e+02    2.1541198730e+01
    1.0239849091e+02    2.1590400696e+01
    1.0249801636e+02    2.1638698578e+01
    1.0259841919e+02    2.1687099457e+01
    1.0269841003e+02    2.1735198975e+01
    1.0279743195e+02    2.1782699585e+01
    1.0289849854e+02    2.1830902100e+01
    1.0299900055e+02    2.1878700256e+01
    1.0309874725e+02    2.1925899506e+01
    1.0319805145e+02    2.1972599030e+01
    1.0329891968e+02    2.2020000458e+01
    1.0339807892e+02    2.2066299438e+01
    1.0349875641e+02    2.2113199234e+01
    1.0359767914e+02    2.2159202576e+01
    1.0369821167e+02    2.2205699921e+01
    1.0379872131e+02    2.2252101898e+01
    1.0389772797e+02    2.2297698975e+01
    1.0399839783e+02    2.2343997955e+01
    1.0409898376e+02    2.2390001297e+01
    1.0419795990e+02    2.2435298920e+01
    1.0429847717e+02    2.2481101990e+01
    1.0439781952e+02    2.2526199341e+01
    1.0449800873e+02    2.2571701050e+01
    1.0459824371e+02    2.2617099762e+01
    1.0469851685e+02    2.2662399292e+01
    1.0479872131e+02    2.2707500458e+01
    1.0489794922e+02    2.2751998901e+01
    1.0499871826e+02    2.2797100067e+01
    1.0509796143e+02    2.2841400146e+01
    1.0519880676e+02    2.2886398315e+01
    1.0529811096e+02    2.2930398941e+01
    1.0539871216e+02    2.2974800110e+01
    1.0549797058e+02    2.3018501282e+01
    1.0559771729e+02    2.3062299728e+01
    1.0569760895e+02    2.3105899811e+01
    1.0579885864e+02    2.3150001526e+01
    1.0589743042e+02    2.3192699432e+01
    1.0599835205e+02    2.3236297607e+01
    1.0609763336e+02    2.3278898239e+01
    1.0619763947e+02    2.3321800232e+01
    1.0629888916e+02    2.3364898682e+01
    1.0639858246e+02    2.3407199860e+01
    1.0649806213e+02    2.3449201584e+01
    1.0659837341e+02    2.3491401672e+01
    1.0669835663e+02    2.3533199310e+01
    1.0679754639e+02    2.3574501038e+01
    1.0689842224e+02    2.3616298676e+01
    1.0699841309e+02    2.3657600403e+01
    1.0709803009e+02    2.3698600769e+01
    1.0719848633e+02    2.3739799500e+01
    1.0729750824e+02    2.3780097961e+01
    1.0739810944e+02    2.3820999146e+01
    1.0749771118e+02    2.3861400604e+01
    1.0759860229e+02    2.3902099609e+01
    1.0769795227e+02    2.3942100525e+01
    1.0779885864e+02    2.3982500076e+01
    1.0789824677e+02    2.4022098541e+01
    1.0799849701e+02    2.4062000275e+01
    1.0809751892e+02    2.4101200104e+01
    1.0819824219e+02    2.4141000748e+01
    1.0829821777e+02    2.4180297852e+01
    1.0839765930e+02    2.4219301224e+01
    1.0849858093e+02    2.4258701324e+01
    1.0859793854e+02    2.4297399521e+01
    1.0869889832e+02    2.4336402893e+01
    1.0879839325e+02    2.4374799728e+01
    1.0889752197e+02    2.4412799835e+01
    1.0899835205e+02    2.4451299667e+01
    1.0909757996e+02    2.4489099503e+01
    1.0919790649e+02    2.4527099609e+01
    1.0929759979e+02    2.4564599991e+01
    1.0939836884e+02    2.4602499008e+01
    1.0949816895e+02    2.4639799118e+01
    1.0959761810e+02    2.4676902771e+01
    1.0969857025e+02    2.4714399338e+01
    1.0979839325e+02    2.4751197815e+01
    1.0989724731e+02    2.4787601471e+01
    1.0999772644e+02    2.4824300766e+01
    1.1009816742e+02    2.4881998062e+01
    1.1019860840e+02    2.4940000534e+01
    1.1029739380e+02    2.4996898651e+01
    1.1039779663e+02    2.5054601669e+01
    1.1049887085e+02    2.5112501144e+01
    1.1059739685e+02    2.5168899536e+01
    1.1069754028e+02    2.5226200104e+01
    1.1079766846e+02    2.5283201218e+01
    1.1089855957e+02    2.5340698242e+01
    1.1099758911e+02    2.5396900177e+01
    1.1109839630e+02    2.5454101562e+01
    1.1119872284e+02    2.5510900497e+01
    1.1129740143e+02    2.5566600800e+01
    1.1139820862e+02    2.5623298645e+01
    1.1149748993e+02    2.5679100037e+01
    1.1159802246e+02    2.5735401154e+01
    1.1169774628e+02    2.5791198730e+01
    1.1179882812e+02    2.5847497940e+01
    1.1189839172e+02    2.5902698517e+01
    1.1199748993e+02    2.5957700729e+01
    1.1209845734e+02    2.6013298035e+01
    1.1219869995e+02    2.6068399429e+01
    1.1229734802e+02    2.6122398376e+01
    1.1239859009e+02    2.6177501678e+01
    1.1249825287e+02    2.6231698990e+01
    1.1259860229e+02    2.6285898209e+01
    1.1269872284e+02    2.6339899063e+01
    1.1279875183e+02    2.6393501282e+01
    1.1289827728e+02    2.6446701050e+01
    1.1299752045e+02    2.6499498367e+01
    1.1309738159e+02    2.6552299500e+01
    1.1319831848e+02    2.6605499268e+01
    1.1329762268e+02    2.6657701492e+01
    1.1339849854e+02    2.6710399628e+01
    1.1349758911e+02    2.6761999130e+01
    1.1359819794e+02    2.6814199448e+01
    1.1369877625e+02    2.6866300583e+01
    1.1379768372e+02    2.6917301178e+01
    1.1389835358e+02    2.6969100952e+01
    1.1399746704e+02    2.7019901276e+01
    1.1409803772e+02    2.7071401596e+01
    1.1419854736e+02    2.7122699738e+01
    1.1429749298e+02    2.7173000336e+01
    1.1439795685e+02    2.7223999023e+01
    1.1449871063e+02    2.7275001526e+01
    1.1459726715e+02    2.7324798584e+01
    1.1469754028e+02    2.7375198364e+01
    1.1479766083e+02    2.7425498962e+01
    1.1489848328e+02    2.7476001740e+01
    1.1499772644e+02    2.7525598526e+01
    1.1509857178e+02    2.7575801849e+01
    1.1519824982e+02    2.7625099182e+01
    1.1529720306e+02    2.7673999786e+01
    1.1539865875e+02    2.7723899841e+01
    1.1549820709e+02    2.7772699356e+01
    1.1559786224e+02    2.7821300507e+01
    1.1569760895e+02    2.7869699478e+01
    1.1579740906e+02    2.7917900085e+01
    1.1589843750e+02    2.7966598511e+01
    1.1599783325e+02    2.8014200211e+01
    1.1609723663e+02    2.8061599731e+01
    1.1619870758e+02    2.8109800339e+01
    1.1629853821e+02    2.8156900406e+01
    1.1639833832e+02    2.8203800201e+01
    1.1649813843e+02    2.8250398636e+01
    1.1659792328e+02    2.8296798706e+01
    1.1669824219e+02    2.8343200684e+01
    1.1679752350e+02    2.8388799667e+01
    1.1689846802e+02    2.8435100555e+01
    1.1699816895e+02    2.8480499268e+01
    1.1709786987e+02    2.8525798798e+01
    1.1719792175e+02    2.8570999146e+01
    1.1729865265e+02    2.8616401672e+01
    1.1739762878e+02    2.8660701752e+01
    1.1749801636e+02    2.8705600739e+01
    1.1759738922e+02    2.8749702454e+01
    1.1769831085e+02    2.8794298172e+01
    1.1779768372e+02    2.8838199615e+01
    1.1789864349e+02    2.8882400513e+01
    1.1799746704e+02    2.8925699234e+01
    1.1809818268e+02    2.8969598770e+01
    1.1819730377e+02    2.9012601852e+01
    1.1829847717e+02    2.9056299210e+01
    1.1839798737e+02    2.9099199295e+01
    1.1849741364e+02    2.9141799927e+01
    1.1859837341e+02    2.9184900284e+01
    1.1869783783e+02    2.9227001190e+01
    1.1879739380e+02    2.9269100189e+01
    1.1889729309e+02    2.9311100006e+01
    1.1899820709e+02    2.9353401184e+01
    1.1909752655e+02    2.9394699097e+01
    1.1919847870e+02    2.9436498642e+01
    1.1929866028e+02    2.9477800369e+01
    1.1939778137e+02    2.9518499374e+01
    1.1949736786e+02    2.9559198380e+01
    1.1959845734e+02    2.9600301743e+01
    1.1969795227e+02    2.9640501022e+01
    1.1979775238e+02    2.9680702209e+01
    1.1989830780e+02    2.9720998764e+01
    1.1999716187e+02    2.9760400772e+01
    1.2009763336e+02    2.9823301315e+01
    1.2019808960e+02    2.9886699677e+01
    1.2029853821e+02    2.9949899673e+01
    1.2039749146e+02    3.0012001038e+01
    1.2049719238e+02    3.0074501038e+01
    1.2059735870e+02    3.0137098312e+01
    1.2069745636e+02    3.0199501038e+01
    1.2079754639e+02    3.0261800766e+01
    1.2089856720e+02    3.0324501038e+01
    1.2099752045e+02    3.0385898590e+01
    1.2109806824e+02    3.0448099136e+01
    1.2119793701e+02    3.0509702682e+01
    1.2129810333e+02    3.0571300507e+01
    1.2139730835e+02    3.0632198334e+01
    1.2149810791e+02    3.0693901062e+01
    1.2159729004e+02    3.0754499435e+01
    1.2169834900e+02    3.0815999985e+01
    1.2179788208e+02    3.0876401901e+01
    1.2189745331e+02    3.0936599731e+01
    1.2199735260e+02    3.0996801376e+01
    1.2209835052e+02    3.1057401657e+01
    1.2219854736e+02    3.1117298126e+01
    1.2229857635e+02    3.1176799774e+01
    1.2239768219e+02    3.1235498428e+01
    1.2249742126e+02    3.1294298172e+01
    1.2259796906e+02    3.1353399277e+01
    1.2269819641e+02    3.1412000656e+01
    1.2279744720e+02    3.1469799042e+01
    1.2289707184e+02    3.1527500153e+01
    1.2299794006e+02    3.1585601807e+01
    1.2309786224e+02    3.1642999649e+01
    1.2319766998e+02    3.1700002670e+01
    1.2329704285e+02    3.1756502151e+01
    1.2339798737e+02    3.1813499451e+01
    1.2349710846e+02    3.1869401932e+01
    1.2359776306e+02    3.1925901413e+01
    1.2369837952e+02    3.1982099533e+01
    1.2379730225e+02    3.2037300110e+01
    1.2389836121e+02    3.2093399048e+01
    1.2399745178e+02    3.2148200989e+01
    1.2409861755e+02    3.2204200745e+01
    1.2419757080e+02    3.2258499146e+01
    1.2429799652e+02    3.2313598633e+01
    1.2439842224e+02    3.2368598938e+01
    1.2449741364e+02    3.2422500610e+01
    1.2459757996e+02    3.2476997375e+01
    1.2469780731e+02    3.2531303406e+01
    1.2479731750e+02    3.2584999084e+01
    1.2489810944e+02    3.2639198303e+01
    1.2499735260e+02    3.2692401886e+01
    1.2509738159e+02    3.2745903015e+01
    1.2519792175e+02    3.2799400330e+01
    1.2529855347e+02    3.2852699280e+01
    1.2539733124e+02    3.2904701233e+01
    1.2549848175e+02    3.2957801819e+01
    1.2559816742e+02    3.3009902954e+01
    1.2569793701e+02    3.3061698914e+01
    1.2579778290e+02    3.3113296509e+01
    1.2589769745e+02    3.3164600372e+01
    1.2599716949e+02    3.3215499878e+01
    1.2609832001e+02    3.3266899109e+01
    1.2619714355e+02    3.3316802979e+01
    1.2629862213e+02    3.3367797852e+01
    1.2639849854e+02    3.3417800903e+01
    1.2649836731e+02    3.3467300415e+01
    1.2659821320e+02    3.3516601562e+01
    1.2669799805e+02    3.3565597534e+01
    1.2679756165e+02    3.3614101410e+01
    1.2689852905e+02    3.3663097382e+01
    1.2699774933e+02    3.3710899353e+01
    1.2709764862e+02    3.3758903503e+01
    1.2719848633e+02    3.3807098389e+01
    1.2729759216e+02    3.3854099274e+01
    1.2739821625e+02    3.3901802063e+01
    1.2749790192e+02    3.3948699951e+01
    1.2759723663e+02    3.3995300293e+01
    1.2769812012e+02    3.4042297363e+01
    1.2779743195e+02    3.4088401794e+01
    1.2789833832e+02    3.4135101318e+01
    1.2799722290e+02    3.4180599213e+01
    1.2809788513e+02    3.4226699829e+01
    1.2819859314e+02    3.4272602081e+01
    1.2829808044e+02    3.4317695618e+01
    1.2839758301e+02    3.4362701416e+01
    1.2849856567e+02    3.4408100128e+01
    1.2859796143e+02    3.4452598572e+01
    1.2869741821e+02    3.4496898651e+01
    1.2879853821e+02    3.4541496277e+01
    1.2889797974e+02    3.4585304260e+01
    1.2899728394e+02    3.4628700256e+01
    1.2909791565e+02    3.4672500610e+01
    1.2919775391e+02    3.4715599060e+01
    1.2929753113e+02    3.4758598328e+01
    1.2939721680e+02    3.4801200867e+01
    1.2949838257e+02    3.4844299316e+01
    1.2959838867e+02    3.4886505127e+01
    1.2969790649e+02    3.4928398132e+01
    1.2979780579e+02    3.4970203400e+01
    1.2989839172e+02    3.5012001038e+01
    1.2999765015e+02    3.5052997589e+01
    1.3009811401e+02    3.5119396210e+01
    1.3019854736e+02    3.5186199188e+01
    1.3029731750e+02    3.5251701355e+01
    1.3039796448e+02    3.5318302155e+01
    1.3049731445e+02    3.5383804321e+01
    1.3059744263e+02    3.5449703217e+01
    1.3069747925e+02    3.5515399933e+01
    1.3079747009e+02    3.5580902100e+01
    1.3089741516e+02    3.5646102905e+01
    1.3099781799e+02    3.5711498260e+01
    1.3109826660e+02    3.5776699066e+01
    1.3119873047e+02    3.5841903687e+01
    1.3129742432e+02    3.5905696869e+01
    1.3139808655e+02    3.5970497131e+01
    1.3149879456e+02    3.6035202026e+01
    1.3159805298e+02    3.6098697662e+01
    1.3169767761e+02    3.6162296295e+01
    1.3179754639e+02    3.6225799561e+01
    1.3189866638e+02    3.6289798737e+01
    1.3199757385e+02    3.6352199554e+01
    1.3209857178e+02    3.6415599823e+01
    1.3219819641e+02    3.6477798462e+01
    1.3229826355e+02    3.6540100098e+01
    1.3239842224e+02    3.6601898193e+01
    1.3249851990e+02    3.6663597107e+01
    1.3259863281e+02    3.6724895477e+01
    1.3269755554e+02    3.6785095215e+01
    1.3279733276e+02    3.6845600128e+01
    1.3289866638e+02    3.6906696320e+01
    1.3299803162e+02    3.6966297150e+01
    1.3309800720e+02    3.7025798798e+01
    1.3319775391e+02    3.7084896088e+01
    1.3329884338e+02    3.7144496918e+01
    1.3339854431e+02    3.7202899933e+01
    1.3349763489e+02    3.7260601044e+01
    1.3359831238e+02    3.7319099426e+01
    1.3369894409e+02    3.7377296448e+01
    1.3379786682e+02    3.7434196472e+01
    1.3389753723e+02    3.7491203308e+01
    1.3399858093e+02    3.7548995972e+01
    1.3409869385e+02    3.7605903625e+01
    1.3419778442e+02    3.7662101746e+01
    1.3429815674e+02    3.7718696594e+01
    1.3439851379e+02    3.7775100708e+01
    1.3449812317e+02    3.7830898285e+01
    1.3459820557e+02    3.7886695862e+01
    1.3469836426e+02    3.7942401886e+01
    1.3479844666e+02    3.7997703552e+01
    1.3489758301e+02    3.8052398682e+01
    1.3499827576e+02    3.8107700348e+01
    1.3509764099e+02    3.8161899567e+01
    1.3519810486e+02    3.8216503143e+01
    1.3529867554e+02    3.8270900726e+01
    1.3539773560e+02    3.8324100494e+01
    1.3549792480e+02    3.8377597809e+01
    1.3559759521e+02    3.8430595398e+01
    1.3569888306e+02    3.8484001160e+01
    1.3579867554e+02    3.8536296844e+01
    1.3589772034e+02    3.8587898254e+01
    1.3599885559e+02    3.8640304565e+01
    1.3609834290e+02    3.8691394806e+01
    1.3619784546e+02    3.8742301941e+01
    1.3629899597e+02    3.8793495178e+01
    1.3639845276e+02    3.8843597412e+01
    1.3649876404e+02    3.8893699646e+01
    1.3659858704e+02    3.8943302155e+01
    1.3669839478e+02    3.8992401123e+01
    1.3679815674e+02    3.9041301727e+01
    1.3689805603e+02    3.9089797974e+01
    1.3699896240e+02    3.9138599396e+01
    1.3709815979e+02    3.9186195374e+01
    1.3719894409e+02    3.9234302521e+01
    1.3729797363e+02    3.9281299591e+01
    1.3739852905e+02    3.9328701019e+01
    1.3749896240e+02    3.9375904083e+01
    1.3759906006e+02    3.9422603607e+01
    1.3769827271e+02    3.9468696594e+01
    1.3779899597e+02    3.9515094757e+01
    1.3789823914e+02    3.9560699463e+01
    1.3799818420e+02    3.9606300354e+01
    1.3809872437e+02    3.9652000427e+01
    1.3819766235e+02    3.9696701050e+01
    1.3829826355e+02    3.9741901398e+01
    1.3839894104e+02    3.9786899567e+01
    1.3849832153e+02    3.9831100464e+01
    1.3859922791e+02    3.9875598907e+01
    1.3869865417e+02    3.9919300079e+01
    1.3879818726e+02    3.9962699890e+01
    1.3889869690e+02    4.0006198883e+01
    1.3899798584e+02    4.0048900604e+01
    1.3909805298e+02    4.0091602325e+01
    1.3919790649e+02    4.0133995056e+01
    1.3929922485e+02    4.0176601410e+01
    1.3939889526e+02    4.0218299866e+01
    1.3949848938e+02    4.0259696960e+01
    1.3959921265e+02    4.0301197052e+01
    1.3969900513e+02    4.0342098236e+01
    1.3979888916e+02    4.0382602692e+01
    1.3989784241e+02    4.0422599792e+01
    1.3999880981e+02    4.0463005066e+01
    1.4009895325e+02    4.0527500153e+01
    1.4019770813e+02    4.0591098785e+01
    1.4029931641e+02    4.0656200409e+01
    1.4039883423e+02    4.0719802856e+01
    1.4049908447e+02    4.0783699036e+01
    1.4059910583e+02    4.0847202301e+01
    1.4069906616e+02    4.0910400391e+01
    1.4079896545e+02    4.0973396301e+01
    1.4089801025e+02    4.1035697937e+01
    1.4099829102e+02    4.1098598480e+01
    1.4109863281e+02    4.1161300659e+01
    1.4119902039e+02    4.1223697662e+01
    1.4129789734e+02    4.1285003662e+01
    1.4139840698e+02    4.1347099304e+01
    1.4149897766e+02    4.1408901215e+01
    1.4159809875e+02    4.1469600677e+01
    1.4169807434e+02    4.1530597687e+01
    1.4179895020e+02    4.1591899872e+01
    1.4189811707e+02    4.1651802063e+01
    1.4199890137e+02    4.1712398529e+01
    1.4209819031e+02    4.1771697998e+01
    1.4219903564e+02    4.1831703186e+01
    1.4229911804e+02    4.1890697479e+01
    1.4239929199e+02    4.1949497223e+01
    1.4249798584e+02    4.2006996155e+01
    1.4259878540e+02    4.2065402985e+01
    1.4269871521e+02    4.2122798920e+01
    1.4279849243e+02    4.2179897308e+01
    1.4289849854e+02    4.2236602783e+01
    1.4299856567e+02    4.2292903900e+01
    1.4309939575e+02    4.2349300385e+01
    1.4319888306e+02    4.2404602051e+01
    1.4329837036e+02    4.2459400177e+01
    1.4339881897e+02    4.2514404297e+01
    1.4349829102e+02    4.2568397522e+01
    1.4359901428e+02    4.2622798920e+01
    1.4369804382e+02    4.2676101685e+01
    1.4379948425e+02    4.2730102539e+01
    1.4389863586e+02    4.2782798767e+01
    1.4399841309e+02    4.2835601807e+01
    1.4409846497e+02    4.2888195038e+01
    1.4419880676e+02    4.2940601349e+01
    1.4429913330e+02    4.2992801666e+01
    1.4439941406e+02    4.3044597626e+01
    1.4449818420e+02    4.3095497131e+01
    1.4459843445e+02    4.3146797180e+01
    1.4469845581e+02    4.3197799683e+01
    1.4479898071e+02    4.3248703003e+01
    1.4489952087e+02    4.3299201965e+01
    1.4499850464e+02    4.3348800659e+01
    1.4509913635e+02    4.3398799896e+01
    1.4519943237e+02    4.3448398590e+01
    1.4529823303e+02    4.3496795654e+01
    1.4539884949e+02    4.3545799255e+01
    1.4549905396e+02    4.3594295502e+01
    1.4559866333e+02    4.3642097473e+01
    1.4569827271e+02    4.3689399719e+01
    1.4579949951e+02    4.3737197876e+01
    1.4589967346e+02    4.3784099579e+01
    1.4599902344e+02    4.3830097198e+01
    1.4609843445e+02    4.3875801086e+01
    1.4619949341e+02    4.3921802521e+01
    1.4629890442e+02    4.3966697693e+01
    1.4639828491e+02    4.4011302948e+01
    1.4649859619e+02    4.4055702209e+01
    1.4659832764e+02    4.4099502563e+01
    1.4669960022e+02    4.4143501282e+01
    1.4679930115e+02    4.4186599731e+01
    1.4689895630e+02    4.4229198456e+01
    1.4699862671e+02    4.4271400452e+01
    1.4709931946e+02    4.4313899994e+01
    1.4719830322e+02    4.4355201721e+01
    1.4729884338e+02    4.4396797180e+01
    1.4739921570e+02    4.4438102722e+01
    1.4749946594e+02    4.4479103088e+01
    1.4759971619e+02    4.4519802094e+01
    1.4769874573e+02    4.4559703827e+01
    1.4779931641e+02    4.4599895477e+01
    1.4789837646e+02    4.4639297485e+01
    1.4799914551e+02    4.4679096222e+01
    1.4809881592e+02    4.4718097687e+01
    1.4819937134e+02    4.4757301331e+01
    1.4829978943e+02    4.4796104431e+01
    1.4839930725e+02    4.4834297180e+01
    1.4849859619e+02    4.4872097015e+01
    1.4859945679e+02    4.4910102844e+01
    1.4869882202e+02    4.4947200775e+01
    1.4879832458e+02    4.4984302521e+01
    1.4889836121e+02    4.5021202087e+01
    1.4899934387e+02    4.5058197021e+01
    1.4909965515e+02    4.5093898773e+01
    1.4919953918e+02    4.5129997253e+01
    1.4929936218e+02    4.5164802551e+01
    1.4939907837e+02    4.5199401855e+01
    1.4949867249e+02    4.5233795166e+01
    1.4959951782e+02    4.5268997192e+01
    1.4969857788e+02    4.5302497864e+01
    1.4979928589e+02    4.5336200714e+01
    1.4989831543e+02    4.5369003296e+01
    1.4999844360e+02    4.5401798248e+01
    1.5009982300e+02    4.5458297729e+01
    1.5019857788e+02    4.5514602661e+01
    1.5029881287e+02    4.5570198059e+01
    1.5039935303e+02    4.5626003265e+01
    1.5049972534e+02    4.5680797577e+01
    1.5059971619e+02    4.5735900879e+01
    1.5069960022e+02    4.5790996552e+01
    1.5079942322e+02    4.5844802856e+01
    1.5089970398e+02    4.5898696899e+01
    1.5099987793e+02    4.5953498840e+01
    1.5109855652e+02    4.6005397797e+01
    1.5119882202e+02    4.6059501648e+01
    1.5129908752e+02    4.6112297058e+01
    1.5139938354e+02    4.6165798187e+01
    1.5149975586e+02    4.6217903137e+01
    1.5159864807e+02    4.6269100189e+01
    1.5169856262e+02    4.6321205139e+01
    1.5179890442e+02    4.6373397827e+01
    1.5189938354e+02    4.6423900604e+01
    1.5200001526e+02    4.6475898743e+01
    1.5209915161e+02    4.6524902344e+01
    1.5219969177e+02    4.6575096130e+01
    1.5229971313e+02    4.6624801636e+01
    1.5239985657e+02    4.6673896790e+01
    1.5249853516e+02    4.6722103119e+01
    1.5259881592e+02    4.6770996094e+01
    1.5269865417e+02    4.6818302155e+01
    1.5280007935e+02    4.6866500854e+01
    1.5289971924e+02    4.6913200378e+01
    1.5299972534e+02    4.6959903717e+01
    1.5309895325e+02    4.7005298615e+01
    1.5320008850e+02    4.7051101685e+01
    1.5329959106e+02    4.7096096039e+01
    1.5339892578e+02    4.7140102386e+01
    1.5349899292e+02    4.7184299469e+01
    1.5359980774e+02    4.7227901459e+01
    1.5369886780e+02    4.7271099091e+01
    1.5379875183e+02    4.7314502716e+01
    1.5389941406e+02    4.7357295990e+01
    1.5399943542e+02    4.7399799347e+01
    1.5409939575e+02    4.7441093445e+01
    1.5419932556e+02    4.7483100891e+01
    1.5429899597e+02    4.7524200439e+01
    1.5439924622e+02    4.7565002441e+01
    1.5449951172e+02    4.7606498718e+01
    1.5459892273e+02    4.7646202087e+01
    1.5469885254e+02    4.7686599731e+01
    1.5479905701e+02    4.7726196289e+01
    1.5489941406e+02    4.7766204834e+01
    1.5499975586e+02    4.7804893494e+01
    1.5510020447e+02    4.7844001770e+01
    1.5519865417e+02    4.7881294250e+01
    1.5529893494e+02    4.7919998169e+01
    1.5539941406e+02    4.7956893921e+01
    1.5549934387e+02    4.7994400024e+01
    1.5559884644e+02    4.8031295776e+01
    1.5569993591e+02    4.8067901611e+01
    1.5579946899e+02    4.8103805542e+01
    1.5589881897e+02    4.8138603210e+01
    1.5599964905e+02    4.8174301147e+01
    1.5609889221e+02    4.8208496094e+01
    1.5619984436e+02    4.8242004395e+01
    1.5629914856e+02    4.8276199341e+01
    1.5640005493e+02    4.8308898926e+01
    1.5649925232e+02    4.8342399597e+01
    1.5659895325e+02    4.8374397278e+01
    1.5670010376e+02    4.8406402588e+01
    1.5679968262e+02    4.8437896729e+01
    1.5689921570e+02    4.8469100952e+01
    1.5700018311e+02    4.8499198914e+01
    1.5710003662e+02    4.8530105591e+01
    1.5719883728e+02    4.8559501648e+01
    1.5729916382e+02    4.8589805603e+01
    1.5739930725e+02    4.8619094849e+01
    1.5749929810e+02    4.8647399902e+01
    1.5760023499e+02    4.8676498413e+01
    1.5769902039e+02    4.8704399109e+01
    1.5779937744e+02    4.8733100891e+01
    1.5789981079e+02    4.8761299133e+01
    1.5800036621e+02    4.8788002014e+01
    1.5809999084e+02    4.8815200806e+01
    1.5820010376e+02    4.8842102051e+01
    1.5830035400e+02    4.8869499207e+01
    1.5839970398e+02    4.8895301819e+01
    1.5850039673e+02    4.8921195984e+01
    1.5859959412e+02    4.8946502686e+01
    1.5869894409e+02    4.8972297668e+01
    1.5880001831e+02    4.8997299194e+01
    1.5889973450e+02    4.9021499634e+01
    1.5900045776e+02    4.9045402527e+01
    1.5910038757e+02    4.9069396973e+01
    1.5920033264e+02    4.9093002319e+01
    1.5930026245e+02    4.9115097046e+01
    1.5940013123e+02    4.9138000488e+01
    1.5949986267e+02    4.9159706116e+01
    1.5959992981e+02    4.9181396484e+01
    1.5970042419e+02    4.9202705383e+01
    1.5979937744e+02    4.9222602844e+01
    1.5989991760e+02    4.9243003845e+01
    1.5999955750e+02    4.9262695312e+01
    1.6009945679e+02    4.9303497314e+01
    1.6019999695e+02    4.9344596863e+01
    1.6029956055e+02    4.9385192871e+01
    1.6040017700e+02    4.9425300598e+01
    1.6049943542e+02    4.9464805603e+01
    1.6059945679e+02    4.9504402161e+01
    1.6069937134e+02    4.9542900085e+01
    1.6079919434e+02    4.9582298279e+01
    1.6090058899e+02    4.9621200562e+01
    1.6100035095e+02    4.9658996582e+01
    1.6110008240e+02    4.9696594238e+01
    1.6120022583e+02    4.9734001160e+01
    1.6130033875e+02    4.9771202087e+01
    1.6140045166e+02    4.9807998657e+01
    1.6150056458e+02    4.9844497681e+01
    1.6159919739e+02    4.9879699707e+01
    1.6170042419e+02    4.9916297913e+01
    1.6180044556e+02    4.9950897217e+01
    1.6189970398e+02    4.9985702515e+01
    1.6200039673e+02    5.0021095276e+01
    1.6210055542e+02    5.0055198669e+01
    1.6219932556e+02    5.0087593079e+01
    1.6229995728e+02    5.0121902466e+01
    1.6239994812e+02    5.0153999329e+01
    1.6250006104e+02    5.0186408997e+01
    1.6260025024e+02    5.0218200684e+01
    1.6269911194e+02    5.0249298096e+01
    1.6280029297e+02    5.0281097412e+01
    1.6289912415e+02    5.0311294556e+01
    1.6299943542e+02    5.0340904236e+01
    1.6309927368e+02    5.0370002747e+01
    1.6319975281e+02    5.0399200439e+01
    1.6329919434e+02    5.0428100586e+01
    1.6339987183e+02    5.0456001282e+01
    1.6349919128e+02    5.0483306885e+01
    1.6359997559e+02    5.0510108948e+01
    1.6370071411e+02    5.0537498474e+01
    1.6379924011e+02    5.0563301086e+01
    1.6389988708e+02    5.0589202881e+01
    1.6400065613e+02    5.0615493774e+01
    1.6410057068e+02    5.0640190125e+01
    1.6420045471e+02    5.0665596008e+01
    1.6430012512e+02    5.0689109802e+01
    1.6440036011e+02    5.0714103699e+01
    1.6450061035e+02    5.0737594604e+01
    1.6459930420e+02    5.0761199951e+01
    1.6469955444e+02    5.0784103394e+01
    1.6479981995e+02    5.0806594849e+01
    1.6490008545e+02    5.0828804016e+01
    1.6500030518e+02    5.0851699829e+01
    1.6510040283e+02    5.0873405457e+01
    1.6520027161e+02    5.0894309998e+01
    1.6529980469e+02    5.0914497375e+01
    1.6540028381e+02    5.0935195923e+01
    1.6550033569e+02    5.0955406189e+01
    1.6559982300e+02    5.0975402832e+01
    1.6569937134e+02    5.0993797302e+01
    1.6580049133e+02    5.1013290405e+01
    1.6589985657e+02    5.1031204224e+01
    1.6600065613e+02    5.1048599243e+01
    1.6609982300e+02    5.1066009521e+01
    1.6620069885e+02    5.1083198547e+01
    1.6629995728e+02    5.1099502563e+01
    1.6640005493e+02    5.1115493774e+01
    1.6649963379e+02    5.1130104065e+01
    1.6660075378e+02    5.1145797729e+01
    1.6670031738e+02    5.1159591675e+01
    1.6679986572e+02    5.1173896790e+01
    1.6690097046e+02    5.1187400818e+01
    1.6699986267e+02    5.1200401306e+01
    1.6710029602e+02    5.1213699341e+01
    1.6720060730e+02    5.1225807190e+01
    1.6730075073e+02    5.1237998962e+01
    1.6740069580e+02    5.1250305176e+01
    1.6749989319e+02    5.1261894226e+01
    1.6760052490e+02    5.1272895813e+01
    1.6769973755e+02    5.1283798218e+01
    1.6779985046e+02    5.1294303894e+01
    1.6790008545e+02    5.1304199219e+01
    1.6800047302e+02    5.1313507080e+01
    1.6810089111e+02    5.1323402405e+01
    1.6819972229e+02    5.1332603455e+01
    1.6829995728e+02    5.1341293335e+01
    1.6840101624e+02    5.1349700928e+01
    1.6849998474e+02    5.1358596802e+01
    1.6859976196e+02    5.1366195679e+01
    1.6870039368e+02    5.1373405457e+01
    1.6879978943e+02    5.1379997253e+01
    1.6890104675e+02    5.1386894226e+01
    1.6900088501e+02    5.1392593384e+01
    1.6909999084e+02    5.1398506165e+01
    1.6919999695e+02    5.1402999878e+01
    1.6930000305e+02    5.1407897949e+01
    1.6939999390e+02    5.1412399292e+01
    1.6949992371e+02    5.1415603638e+01
    1.6960099792e+02    5.1418609619e+01
    1.6970071411e+02    5.1421302795e+01
    1.6979986572e+02    5.1423797607e+01
    1.6990084839e+02    5.1425506592e+01
    1.7000071716e+02    5.1427398682e+01
    1.7010044861e+02    5.1447998047e+01
    1.7020010376e+02    5.1468399048e+01
    1.7030073547e+02    5.1488998413e+01
    1.7039956665e+02    5.1508499146e+01
    1.7050013733e+02    5.1527404785e+01
    1.7060087585e+02    5.1546501160e+01
    1.7070094299e+02    5.1564895630e+01
    1.7080087280e+02    5.1583106995e+01
    1.7089993286e+02    5.1601104736e+01
    1.7100007629e+02    5.1618194580e+01
    1.7110064697e+02    5.1635894775e+01
    1.7120075989e+02    5.1652305603e+01
    1.7130079651e+02    5.1668601990e+01
    1.7140077209e+02    5.1684692383e+01
    1.7150073242e+02    5.1700004578e+01
    1.7160072327e+02    5.1716003418e+01
    1.7170072937e+02    5.1730995178e+01
    1.7179974365e+02    5.1745002747e+01
    1.7190087891e+02    5.1759002686e+01
    1.7200126648e+02    5.1773002625e+01
    1.7210127258e+02    5.1787994385e+01
    1.7220051575e+02    5.1800003052e+01
    1.7230043030e+02    5.1811996460e+01
    1.7240051270e+02    5.1824996948e+01
    1.7250039673e+02    5.1835998535e+01
    1.7260040283e+02    5.1846992493e+01
    1.7270040894e+02    5.1858009338e+01
    1.7280029297e+02    5.1869003296e+01
    1.7290115356e+02    5.1877998352e+01
    1.7300033569e+02    5.1887992859e+01
    1.7310124207e+02    5.1897994995e+01
    1.7320054626e+02    5.1906005859e+01
    1.7329991150e+02    5.1913002014e+01
    1.7340031433e+02    5.1921005249e+01
    1.7350056458e+02    5.1927993774e+01
    1.7360006714e+02    5.1934997559e+01
    1.7370083618e+02    5.1942008972e+01
    1.7380108643e+02    5.1947006226e+01
    1.7390025330e+02    5.1952003479e+01
    1.7399981689e+02    5.1958000183e+01
    1.7410046387e+02    5.1962997437e+01
    1.7420014954e+02    5.1967002869e+01
    1.7430003357e+02    5.1971000671e+01
    1.7440055847e+02    5.1974998474e+01
    1.7450079346e+02    5.1978004456e+01
    1.7460101318e+02    5.1980995178e+01
    1.7470118713e+02    5.1984001160e+01
    1.7480143738e+02    5.1987007141e+01
    1.7490014648e+02    5.1987998962e+01
    1.7500128174e+02    5.1989006042e+01
    1.7510144043e+02    5.1991004944e+01
    1.7520146179e+02    5.1992004395e+01
    1.7530003357e+02    5.1991996765e+01
    1.7540045166e+02    5.1991004944e+01
    1.7550082397e+02    5.1991004944e+01
    1.7560038757e+02    5.1989990234e+01
    1.7570002747e+02    5.1987998962e+01
    1.7580131531e+02    5.1986000061e+01
    1.7590124512e+02    5.1982994080e+01
    1.7600093079e+02    5.1979995728e+01
    1.7610028076e+02    5.1977005005e+01
    1.7620121765e+02    5.1972999573e+01
    1.7630105591e+02    5.1969009399e+01
    1.7640083313e+02    5.1963996887e+01
    1.7650123596e+02    5.1958000183e+01
    1.7660098267e+02    5.1952995300e+01
    1.7670072937e+02    5.1945999146e+01
    1.7680047607e+02    5.1939002991e+01
    1.7690136719e+02    5.1933006287e+01
    1.7700044250e+02    5.1923995972e+01
    1.7710104370e+02    5.1916999817e+01
    1.7720143127e+02    5.1908004761e+01
    1.7729997253e+02    5.1899002075e+01
    1.7740155029e+02    5.1889999390e+01
    1.7750085449e+02    5.1880996704e+01
    1.7760137939e+02    5.1871002197e+01
    1.7770123291e+02    5.1861000061e+01
    1.7780120850e+02    5.1850990295e+01
    1.7790127563e+02    5.1839004517e+01
    1.7800146484e+02    5.1828002930e+01
    1.7810014343e+02    5.1816001892e+01
    1.7820027161e+02    5.1804000854e+01
    1.7830030823e+02    5.1791999817e+01
    1.7840060425e+02    5.1778999329e+01
    1.7850158691e+02    5.1766998291e+01
    1.7860157776e+02    5.1752998352e+01
    1.7870152283e+02    5.1740005493e+01
    1.7880137634e+02    5.1724998474e+01
    1.7890087891e+02    5.1709999084e+01
    1.7900053406e+02    5.1694999695e+01
    1.7910031128e+02    5.1680000305e+01
    1.7920170593e+02    5.1663002014e+01
    1.7930166626e+02    5.1646995544e+01
    1.7940020752e+02    5.1629997253e+01
    1.7950073242e+02    5.1613006592e+01
    1.7960025024e+02    5.1595008850e+01
    1.7970062256e+02    5.1575996399e+01
    1.7980009460e+02    5.1557006836e+01
    1.7990124512e+02    5.1536994934e+01
    1.8000090027e+02    5.1516998291e+01
    1.8010049438e+02    5.1515007019e+01
    1.8020022583e+02    5.1512001038e+01
    1.8030046082e+02    5.1508003235e+01
    1.8040121460e+02    5.1502990723e+01
    1.8050132751e+02    5.1498992920e+01
    1.8060163879e+02    5.1492996216e+01
    1.8070072937e+02    5.1488006592e+01
    1.8080090332e+02    5.1482009888e+01
    1.8090046692e+02    5.1475990295e+01
    1.8100085449e+02    5.1470001221e+01
    1.8110119629e+02    5.1462005615e+01
    1.8120146179e+02    5.1455001831e+01
    1.8130160522e+02    5.1447006226e+01
    1.8140095520e+02    5.1440010071e+01
    1.8150068665e+02    5.1431999207e+01
    1.8160107422e+02    5.1423004150e+01
    1.8170111084e+02    5.1414001465e+01
    1.8180114746e+02    5.1404998779e+01
    1.8190126038e+02    5.1394996643e+01
    1.8200148010e+02    5.1385002136e+01
    1.8210174561e+02    5.1375000000e+01
    1.8220167542e+02    5.1363998413e+01
    1.8230134583e+02    5.1352996826e+01
    1.8240049744e+02    5.1341995239e+01
    1.8250172424e+02    5.1330001831e+01
    1.8260151672e+02    5.1317993164e+01
    1.8270152283e+02    5.1304992676e+01
    1.8280136108e+02    5.1291000366e+01
    1.8290182495e+02    5.1277999878e+01
    1.8300149536e+02    5.1263992310e+01
    1.8310113525e+02    5.1250000000e+01
    1.8320121765e+02    5.1235000610e+01
    1.8330157471e+02    5.1220001221e+01
    1.8340196228e+02    5.1203994751e+01
    1.8350128174e+02    5.1187988281e+01
    1.8360116577e+02    5.1171005249e+01
    1.8370196533e+02    5.1154006958e+01
    1.8380137634e+02    5.1137008667e+01
    1.8390177917e+02    5.1118011475e+01
    1.8400068665e+02    5.1100997925e+01
    1.8410122681e+02    5.1082000732e+01
    1.8420080566e+02    5.1063003540e+01
    1.8430105591e+02    5.1043991089e+01
    1.8440133667e+02    5.1024002075e+01
    1.8450158691e+02    5.1003997803e+01
    1.8460154724e+02    5.0984008789e+01
    1.8470158386e+02    5.0962997437e+01
    1.8480166626e+02    5.0942001343e+01
    1.8490174866e+02    5.0920989990e+01
    1.8500056458e+02    5.0899002075e+01
    1.8510107422e+02    5.0875991821e+01
    1.8520097351e+02    5.0852996826e+01
    1.8530169678e+02    5.0830001831e+01
    1.8540072632e+02    5.0807006836e+01
    1.8550105286e+02    5.0782012939e+01
    1.8560186768e+02    5.0758010864e+01
    1.8570100403e+02    5.0733001709e+01
    1.8580166626e+02    5.0707000732e+01
    1.8590101624e+02    5.0680999756e+01
    1.8600061035e+02    5.0654998779e+01
    1.8610078430e+02    5.0628005981e+01
    1.8620199585e+02    5.0601013184e+01
    1.8630151367e+02    5.0572998047e+01
    1.8640130615e+02    5.0544998169e+01
    1.8650088501e+02    5.0516006470e+01
    1.8660171509e+02    5.0486999512e+01
    1.8670063782e+02    5.0457992554e+01
    1.8680200195e+02    5.0427001953e+01
    1.8690107727e+02    5.0397003174e+01
    1.8700065613e+02    5.0365997314e+01
    1.8710116577e+02    5.0334991455e+01
    1.8720164490e+02    5.0303009033e+01
    1.8730192566e+02    5.0271011353e+01
    1.8740109253e+02    5.0238998413e+01
    1.8750213623e+02    5.0205001831e+01
    1.8760104370e+02    5.0172988892e+01
    1.8770075989e+02    5.0138992310e+01
    1.8780149841e+02    5.0106002808e+01
    1.8790112305e+02    5.0070999146e+01
    1.8800134277e+02    5.0037002563e+01
    1.8810165405e+02    5.0002990723e+01
    1.8820181274e+02    4.9967987061e+01
    1.8830122375e+02    4.9932006836e+01
    1.8840159607e+02    4.9895996094e+01
    1.8850177002e+02    4.9860000610e+01
    1.8860136414e+02    4.9824005127e+01
    1.8870098877e+02    4.9787994385e+01
    1.8880158997e+02    4.9750000000e+01
    1.8890190125e+02    4.9712005615e+01
    1.8900201416e+02    4.9673995972e+01
    1.8910128784e+02    4.9636001587e+01
    1.8920199585e+02    4.9597991943e+01
    1.8930108643e+02    4.9558990479e+01
    1.8940197754e+02    4.9518005371e+01
    1.8950148010e+02    4.9477996826e+01
    1.8960076904e+02    4.9439010620e+01
    1.8970230103e+02    4.9398010254e+01
    1.8980081177e+02    4.9356994629e+01
    1.8990170288e+02    4.9315002441e+01
    1.9000173950e+02    4.9272994995e+01
    1.9010183716e+02    4.9244995117e+01
    1.9020219421e+02    4.9216995239e+01
    1.9030174255e+02    4.9188995361e+01
    1.9040229797e+02    4.9160003662e+01
    1.9050181580e+02    4.9132003784e+01
    1.9060142517e+02    4.9100997925e+01
    1.9070120239e+02    4.9071990967e+01
    1.9080209351e+02    4.9042007446e+01
    1.9090237427e+02    4.9011993408e+01
    1.9100091553e+02    4.8982009888e+01
    1.9110215759e+02    4.8951004028e+01
    1.9120104980e+02    4.8919998169e+01
    1.9130145264e+02    4.8889007568e+01
    1.9140209961e+02    4.8856994629e+01
    1.9150111389e+02    4.8826004028e+01
    1.9160235596e+02    4.8792999268e+01
    1.9170106506e+02    4.8761993408e+01
    1.9180126953e+02    4.8729995728e+01
    1.9190124512e+02    4.8697006226e+01
    1.9200216675e+02    4.8662994385e+01
    1.9210148621e+02    4.8629989624e+01
    1.9220179749e+02    4.8595993042e+01
    1.9230168152e+02    4.8561004639e+01
    1.9240103149e+02    4.8526992798e+01
    1.9250248718e+02    4.8491012573e+01
    1.9260156250e+02    4.8455993652e+01
    1.9270173645e+02    4.8420989990e+01
    1.9280242920e+02    4.8384002686e+01
    1.9290164185e+02    4.8347991943e+01
    1.9300245667e+02    4.8310989380e+01
    1.9310197449e+02    4.8273010254e+01
    1.9320184326e+02    4.8235992432e+01
    1.9330233765e+02    4.8197998047e+01
    1.9340104675e+02    4.8158996582e+01
    1.9350172424e+02    4.8118988037e+01
    1.9360148621e+02    4.8080001831e+01
    1.9370193481e+02    4.8040008545e+01
    1.9380155945e+02    4.8000000000e+01
    1.9390161133e+02    4.7958999634e+01
    1.9400172424e+02    4.7917999268e+01
    1.9410163879e+02    4.7876998901e+01
    1.9420256042e+02    4.7833999634e+01
    1.9430139160e+02    4.7792999268e+01
    1.9440206909e+02    4.7750000000e+01
[...]
    2.5130491638e+02    6.2579956055e+00
    2.5140538025e+02    6.1589965820e+00
    2.5150572205e+02    6.0599975586e+00
    2.5160601807e+02    5.9620056152e+00
    2.5170582581e+02    5.8639831543e+00
    2.5180516052e+02    5.7660217285e+00
    2.5190498352e+02    5.6679992676e+00
    2.5200596619e+02    5.5690002441e+00
    2.5210566711e+02    5.4709777832e+00
    2.5220509338e+02    5.3730163574e+00
    2.5230494690e+02    5.2749938965e+00
    2.5240481567e+02    5.1770019531e+00
    2.5250604248e+02    5.0780029297e+00
    2.5260557556e+02    4.9790039062e+00
    2.5270521545e+02    4.8820190430e+00
    2.5280621338e+02    4.7820129395e+00
    2.5290567017e+02    4.6839904785e+00
    2.5300587463e+02    4.5849914551e+00
    2.5310554504e+02    4.4869995117e+00
    2.5320610046e+02    4.3890075684e+00
    2.5330502319e+02    4.2909851074e+00
    2.5340547180e+02    4.1920166016e+00
    2.5350616455e+02    4.0929870605e+00
    2.5360499573e+02    3.9960021973e+00
    2.5370527649e+02    3.8980102539e+00
    2.5380572510e+02    3.7990112305e+00
    2.5390626526e+02    3.6999816895e+00
    2.5400550842e+02    3.6019897461e+00
    2.5410627747e+02    3.5039978027e+00
    2.5420605469e+02    3.4059753418e+00
    2.5430586243e+02    3.3080139160e+00
    2.5440570068e+02    3.2099914551e+00
    2.5450552368e+02    3.1130065918e+00
    2.5460604858e+02    3.0140075684e+00
    2.5470532227e+02    2.9169921875e+00
    2.5480589294e+02    2.8179931641e+00
    2.5490513611e+02    2.7210083008e+00
    2.5500570679e+02    2.6220092773e+00
    2.5510539246e+02    2.5239868164e+00
    2.5520503235e+02    2.4270019531e+00
    2.5530590820e+02    2.3269958496e+00
    2.5540518188e+02    2.2309875488e+00
    2.5550561523e+02    2.1319885254e+00
    2.5560559082e+02    2.0350036621e+00
    2.5570628357e+02    1.9360046387e+00
    2.5580549622e+02    1.8379821777e+00
    2.5590586853e+02    1.7399902344e+00
    2.5600622559e+02    1.6419982910e+00
    2.5610522461e+02    1.5449829102e+00
    2.5620507812e+02    1.4470214844e+00
    2.5630508423e+02    1.3489990234e+00
    2.5640521240e+02    1.2510070801e+00
    2.5650537109e+02    1.1539916992e+00
    2.5660549927e+02    1.0549926758e+00
    2.5670632935e+02    9.5599365234e-01
    2.5680584717e+02    8.5900878906e-01
    2.5690545654e+02    7.6199340820e-01
    2.5700643921e+02    6.6302490234e-01
    2.5710620117e+02    5.6500244141e-01
    2.5720635986e+02    4.6801757812e-01
    2.5730532837e+02    3.7100219727e-01
    2.5740625000e+02    2.7200317383e-01
    2.5750619507e+02    1.7501831055e-01
    2.5760534668e+02    7.8979492188e-02
    2.5770587158e+02   -2.0019531250e-02
    2.5780606079e+02   -1.1700439453e-01
    2.5790609741e+02   -2.1398925781e-01
    2.5800650024e+02   -3.1198120117e-01
    2.5810531616e+02   -4.0798950195e-01
    2.5820581055e+02   -5.0601196289e-01
    2.5830630493e+02   -6.0400390625e-01
    2.5840594482e+02   -7.0101928711e-01
    2.5850567627e+02   -7.9702758789e-01
    2.5860638428e+02   -8.9498901367e-01
    2.5870550537e+02   -9.9099731445e-01
    2.5880569458e+02   -1.0870056152e+00
    2.5890557861e+02   -1.1849975586e+00
    2.5900656128e+02   -1.2819824219e+00
    2.5910580444e+02   -1.3789978027e+00
    2.5920590210e+02   -1.4750061035e+00
    2.5930596924e+02   -1.5710144043e+00
    2.5940612793e+02   -1.6679992676e+00
    2.5950640869e+02   -1.7650146484e+00
    2.5960549927e+02   -1.8599853516e+00
    2.5970645142e+02   -1.9570007324e+00
    2.5980569458e+02   -2.0529785156e+00
    2.5990631104e+02   -2.1499938965e+00
    2.6000549316e+02   -2.2449951172e+00
    2.6010577393e+02   -2.3409729004e+00
    2.6020565796e+02   -2.4360046387e+00
    2.6030560303e+02   -2.5310058594e+00
    2.6040560913e+02   -2.6270141602e+00
    2.6050573730e+02   -2.7219848633e+00
    2.6060604858e+02   -2.8169860840e+00
    2.6070571899e+02   -2.9119873047e+00
    2.6080548096e+02   -3.0059814453e+00
    2.6090591431e+02   -3.1010131836e+00
    2.6100650024e+02   -3.1950073242e+00
    2.6110546875e+02   -3.2890014648e+00
    2.6120556641e+02   -3.3829956055e+00
    2.6130599976e+02   -3.4780273438e+00
    2.6140661621e+02   -3.5729980469e+00
    2.6150588989e+02   -3.6660156250e+00
    2.6160656738e+02   -3.7609863281e+00
    2.6170593262e+02   -3.8529968262e+00
    2.6180664062e+02   -3.9479980469e+00
    2.6190664673e+02   -4.0410156250e+00
    2.6200640869e+02   -4.1340026855e+00
    2.6210598755e+02   -4.2270202637e+00
    2.6220660400e+02   -4.3219909668e+00
    2.6230636597e+02   -4.4140014648e+00
    2.6240597534e+02   -4.5069885254e+00
    2.6250555420e+02   -4.5989990234e+00
    2.6260559082e+02   -4.6919860840e+00
    2.6270596313e+02   -4.7850036621e+00
    2.6280630493e+02   -4.8779907227e+00
    2.6290655518e+02   -4.9709777832e+00
    2.6300552368e+02   -5.0620117188e+00
    2.6310604858e+02   -5.1539916992e+00
    2.6320635986e+02   -5.2480163574e+00
    2.6330575562e+02   -5.3389892578e+00
    2.6340628052e+02   -5.4309997559e+00
    2.6350680542e+02   -5.5239868164e+00
    2.6360659790e+02   -5.6159973145e+00
    2.6370632935e+02   -5.7070007324e+00
    2.6380612183e+02   -5.7979736328e+00
    2.6390664673e+02   -5.8900146484e+00
    2.6400604248e+02   -5.9809875488e+00
    2.6410690308e+02   -6.0729980469e+00
    2.6420657349e+02   -6.1640014648e+00
    2.6430630493e+02   -6.2539978027e+00
    2.6440612793e+02   -6.3450012207e+00
    2.6450595093e+02   -6.4349975586e+00
    2.6460580444e+02   -6.5249938965e+00
    2.6470568848e+02   -6.6159973145e+00
    2.6480630493e+02   -6.7059936523e+00
    2.6490582275e+02   -6.7960205078e+00
    2.6500558472e+02   -6.8850097656e+00
    2.6510690308e+02   -6.9760131836e+00
    2.6520559692e+02   -7.0639953613e+00
    2.6530569458e+02   -7.1529846191e+00
    2.6540573120e+02   -7.2419738770e+00
    2.6550564575e+02   -7.3309936523e+00
    2.6560595703e+02   -7.4200134277e+00
    2.6570623779e+02   -7.5090026855e+00
    2.6580630493e+02   -7.5969848633e+00
    2.6590655518e+02   -7.6860046387e+00
    2.6600570679e+02   -7.7729797363e+00
    2.6610629272e+02   -7.8619995117e+00
    2.6620693970e+02   -7.9499816895e+00
    2.6630627441e+02   -8.0359802246e+00
    2.6640698242e+02   -8.1250000000e+00
    2.6650686646e+02   -8.2120056152e+00
    2.6660702515e+02   -8.2989807129e+00
    2.6670596313e+02   -8.3850097656e+00
    2.6680661011e+02   -8.4729919434e+00
    2.6690701294e+02   -8.5599975586e+00
    2.6700604248e+02   -8.6449890137e+00
    2.6710653687e+02   -8.7320251465e+00
    2.6720578003e+02   -8.8179931641e+00
    2.6730648804e+02   -8.9039916992e+00
    2.6740594482e+02   -8.9899902344e+00
    2.6750701904e+02   -9.0760192871e+00
    2.6760595703e+02   -9.1610107422e+00
    2.6770626831e+02   -9.2469787598e+00
    2.6780670166e+02   -9.3330078125e+00
    2.6790597534e+02   -9.4169921875e+00
    2.6800665283e+02   -9.5020141602e+00
    2.6810607910e+02   -9.5859985352e+00
    2.6820657349e+02   -9.6709899902e+00
    2.6830688477e+02   -9.7560119629e+00
    2.6840591431e+02   -9.8389892578e+00
    2.6850643921e+02   -9.9240112305e+00
    2.6860644531e+02   -1.0007019043e+01
    2.6870623779e+02   -1.0091003418e+01
    2.6880590820e+02   -1.0174011230e+01
    2.6890667725e+02   -1.0257995605e+01
    2.6900592041e+02   -1.0339996338e+01
    2.6910632324e+02   -1.0422973633e+01
    2.6920666504e+02   -1.0505004883e+01
    2.6930612183e+02   -1.0587982178e+01
    2.6940686035e+02   -1.0669982910e+01
    2.6950619507e+02   -1.0752014160e+01
    2.6960681152e+02   -1.0832977295e+01
    2.6970632935e+02   -1.0914001465e+01
    2.6980630493e+02   -1.0995025635e+01
    2.6990628052e+02   -1.1076019287e+01
    2.7000616455e+02   -1.1156005859e+01
    2.7010714722e+02   -1.1238983154e+01
    2.7020666504e+02   -1.1320007324e+01
    2.7030599976e+02   -1.1401000977e+01
    2.7040698242e+02   -1.1483978271e+01
    2.7050671387e+02   -1.1563995361e+01
    2.7060635376e+02   -1.1643981934e+01
    2.7070608521e+02   -1.1725006104e+01
    2.7080624390e+02   -1.1804016113e+01
    2.7090701294e+02   -1.1885009766e+01
    2.7100671387e+02   -1.1964019775e+01
    2.7110662842e+02   -1.2044982910e+01
    2.7120651245e+02   -1.2122985840e+01
    2.7130603027e+02   -1.2201995850e+01
    2.7140704346e+02   -1.2281005859e+01
    2.7150665283e+02   -1.2359985352e+01
    2.7160647583e+02   -1.2436981201e+01
    2.7170623779e+02   -1.2515014648e+01
    2.7180731201e+02   -1.2593994141e+01
    2.7190704346e+02   -1.2671997070e+01
    2.7200714111e+02   -1.2750000000e+01
    2.7210729980e+02   -1.2826019287e+01
    2.7220611572e+02   -1.2902008057e+01
    2.7230627441e+02   -1.2979003906e+01
    2.7240628052e+02   -1.3055999756e+01
    2.7250717163e+02   -1.3133026123e+01
    2.7260675049e+02   -1.3209014893e+01
    2.7270642090e+02   -1.3284027100e+01
    2.7280615234e+02   -1.3359008789e+01
    2.7290725708e+02   -1.3434997559e+01
    2.7300692749e+02   -1.3509979248e+01
    2.7310714722e+02   -1.3584991455e+01
    2.7320666504e+02   -1.3659973145e+01
    2.7330679321e+02   -1.3732971191e+01
    2.7340670776e+02   -1.3807983398e+01
    2.7350643921e+02   -1.3881011963e+01
    2.7360723877e+02   -1.3954986572e+01
    2.7370727539e+02   -1.4028015137e+01
    2.7380685425e+02   -1.4100982666e+01
    2.7390628052e+02   -1.4171997070e+01
    2.7400698853e+02   -1.4246002197e+01
    2.7410638428e+02   -1.4316986084e+01
    2.7420721436e+02   -1.4390014648e+01
    2.7430673218e+02   -1.4459991455e+01
    2.7440747070e+02   -1.4532989502e+01
    2.7450720215e+02   -1.4602996826e+01
    2.7460751343e+02   -1.4674011230e+01
    2.7470645142e+02   -1.4744018555e+01
    2.7480670166e+02   -1.4813995361e+01
    2.7490722656e+02   -1.4882995605e+01
    2.7500695801e+02   -1.4953002930e+01
    2.7510693359e+02   -1.5022003174e+01
    2.7520718384e+02   -1.5091003418e+01
    2.7530630493e+02   -1.5158996582e+01
    2.7540704346e+02   -1.5226989746e+01
    2.7550708008e+02   -1.5294006348e+01
    2.7560751343e+02   -1.5363006592e+01
    2.7570672607e+02   -1.5429992676e+01
    2.7580737305e+02   -1.5497009277e+01
    2.7590707397e+02   -1.5563018799e+01
    2.7600701904e+02   -1.5628997803e+01
    2.7610702515e+02   -1.5695007324e+01
    2.7620721436e+02   -1.5760986328e+01
    2.7630746460e+02   -1.5825988770e+01
    2.7640637207e+02   -1.5890991211e+01
    2.7650668335e+02   -1.5955017090e+01
    2.7660638428e+02   -1.6018981934e+01
    2.7670700073e+02   -1.6084014893e+01
    2.7680648804e+02   -1.6147003174e+01
    2.7690704346e+02   -1.6210998535e+01
    2.7700653076e+02   -1.6274017334e+01
    2.7710687256e+02   -1.6337005615e+01
    2.7720654297e+02   -1.6398986816e+01
    2.7730758667e+02   -1.6462005615e+01
    2.7740689087e+02   -1.6523010254e+01
    2.7750747681e+02   -1.6584991455e+01
    2.7760723877e+02   -1.6645996094e+01
    2.7770755005e+02   -1.6707000732e+01
    2.7780648804e+02   -1.6768005371e+01
    2.7790692139e+02   -1.6828002930e+01
    2.7800711060e+02   -1.6888000488e+01
    2.7810729980e+02   -1.6947998047e+01
    2.7820745850e+02   -1.7008026123e+01
    2.7830670166e+02   -1.7067016602e+01
    2.7840750122e+02   -1.7126007080e+01
    2.7850695801e+02   -1.7184020996e+01
    2.7860662842e+02   -1.7242004395e+01
    2.7870651245e+02   -1.7300018311e+01
    2.7880682373e+02   -1.7358001709e+01
    2.7890661621e+02   -1.7414001465e+01
    2.7900653076e+02   -1.7471984863e+01
    2.7910775757e+02   -1.7529022217e+01
    2.7920761108e+02   -1.7585021973e+01
    2.7930749512e+02   -1.7641998291e+01
    2.7940740967e+02   -1.7696990967e+01
    2.7950656128e+02   -1.7752014160e+01
    2.7960723877e+02   -1.7807006836e+01
    2.7970666504e+02   -1.7861022949e+01
    2.7980761719e+02   -1.7915985107e+01
    2.7990731812e+02   -1.7970001221e+01
    2.8000711060e+02   -1.8023986816e+01
    2.8010696411e+02   -1.8079986572e+01
    2.8020764160e+02   -1.8138000488e+01
    2.8030752563e+02   -1.8194000244e+01
    2.8040661621e+02   -1.8250000000e+01
    2.8050732422e+02   -1.8304992676e+01
    2.8060650635e+02   -1.8359985352e+01
    2.8070706177e+02   -1.8415008545e+01
    2.8080761719e+02   -1.8470001221e+01
    2.8090701294e+02   -1.8523986816e+01
    2.8100701904e+02   -1.8578002930e+01
    2.8110699463e+02   -1.8629974365e+01
    2.8120690918e+02   -1.8683990479e+01
    2.8130700684e+02   -1.8736999512e+01
    2.8140731812e+02   -1.8789001465e+01
    2.8150765991e+02   -1.8841033936e+01
    2.8160668945e+02   -1.8893005371e+01
    2.8170724487e+02   -1.8944000244e+01
    2.8180789185e+02   -1.8994995117e+01
    2.8190722656e+02   -1.9046020508e+01
    2.8200720215e+02   -1.9095977783e+01
    2.8210757446e+02   -1.9145996094e+01
    2.8220794678e+02   -1.9195983887e+01
    2.8230706787e+02   -1.9245025635e+01
    2.8240762329e+02   -1.9294006348e+01
    2.8250662231e+02   -1.9342010498e+01
    2.8260668945e+02   -1.9390991211e+01
    2.8270700073e+02   -1.9439025879e+01
    2.8280752563e+02   -1.9485992432e+01
    2.8290722656e+02   -1.9533996582e+01
    2.8300772095e+02   -1.9580993652e+01
    2.8310702515e+02   -1.9627014160e+01
    2.8320779419e+02   -1.9673004150e+01
    2.8330731201e+02   -1.9720001221e+01
    2.8340728760e+02   -1.9764007568e+01
    2.8350726318e+02   -1.9809997559e+01
    2.8360717773e+02   -1.9854034424e+01
    2.8370700073e+02   -1.9898986816e+01
    2.8380792236e+02   -1.9942993164e+01
    2.8390704346e+02   -1.9986968994e+01
    2.8400790405e+02   -2.0030029297e+01
    2.8410726929e+02   -2.0072021484e+01
    2.8420809937e+02   -2.0114990234e+01
    2.8430749512e+02   -2.0157989502e+01
    2.8440679932e+02   -2.0199005127e+01
    2.8450671387e+02   -2.0241027832e+01
    2.8460794067e+02   -2.0283020020e+01
    2.8470806885e+02   -2.0324035645e+01
    2.8480810547e+02   -2.0365020752e+01
    2.8490795898e+02   -2.0404998779e+01
    2.8500698853e+02   -2.0444000244e+01
    2.8510702515e+02   -2.0483001709e+01
    2.8520706177e+02   -2.0523010254e+01
    2.8530725098e+02   -2.0562011719e+01
    2.8540722656e+02   -2.0600006104e+01
    2.8550732422e+02   -2.0638031006e+01
    2.8560772705e+02   -2.0677032471e+01
    2.8570681763e+02   -2.0712982178e+01
    2.8580786133e+02   -2.0751007080e+01
    2.8590811157e+02   -2.0787994385e+01
    2.8600750732e+02   -2.0824981689e+01
    2.8610705566e+02   -2.0860015869e+01
    2.8620822144e+02   -2.0897003174e+01
    2.8630807495e+02   -2.0932006836e+01
    2.8640786743e+02   -2.0967987061e+01
    2.8650787354e+02   -2.1001983643e+01
    2.8660800171e+02   -2.1036987305e+01
    2.8670819092e+02   -2.1071960449e+01
    2.8680700684e+02   -2.1105041504e+01
    2.8690686035e+02   -2.1139007568e+01
    2.8700732422e+02   -2.1172027588e+01
    2.8710778809e+02   -2.1205017090e+01
    2.8720684814e+02   -2.1237060547e+01
    2.8730749512e+02   -2.1269042969e+01
    2.8740829468e+02   -2.1301025391e+01
    2.8750711060e+02   -2.1333007812e+01
    2.8760806274e+02   -2.1362976074e+01
    2.8770733643e+02   -2.1393981934e+01
    2.8780804443e+02   -2.1424987793e+01
    2.8790753174e+02   -2.1455017090e+01
    2.8800708008e+02   -2.1484985352e+01
    2.8810797119e+02   -2.1514038086e+01
    2.8820724487e+02   -2.1543029785e+01
    2.8830783081e+02   -2.1572021484e+01
    2.8840808105e+02   -2.1601013184e+01
    2.8850714111e+02   -2.1628967285e+01
    2.8860787964e+02   -2.1655944824e+01
    2.8870806885e+02   -2.1684020996e+01
    2.8880715942e+02   -2.1710998535e+01
    2.8890719604e+02   -2.1736999512e+01
    2.8900744629e+02   -2.1763000488e+01
    2.8910827637e+02   -2.1789978027e+01
    2.8920764160e+02   -2.1816040039e+01
    2.8930828857e+02   -2.1841979980e+01
    2.8940737915e+02   -2.1866027832e+01
    2.8950833130e+02   -2.1892028809e+01
    2.8960781860e+02   -2.1916015625e+01
    2.8970736694e+02   -2.1940002441e+01
    2.8980706787e+02   -2.1963989258e+01
    2.8990798950e+02   -2.1988037109e+01
    2.9000762939e+02   -2.2010986328e+01
    2.9010708618e+02   -2.2038940430e+01
    2.9020785522e+02   -2.2067016602e+01
    2.9030831909e+02   -2.2093994141e+01
    2.9040740967e+02   -2.2121032715e+01
    2.9050790405e+02   -2.2147949219e+01
    2.9060839844e+02   -2.2174987793e+01
    2.9070751953e+02   -2.2200012207e+01
    2.9080801392e+02   -2.2226013184e+01
    2.9090765381e+02   -2.2250976562e+01
    2.9100808716e+02   -2.2276000977e+01
    2.9110852051e+02   -2.2302001953e+01
    2.9120846558e+02   -2.2326965332e+01
    2.9130850220e+02   -2.2349975586e+01
    2.9140744019e+02   -2.2374023438e+01
    2.9150772095e+02   -2.2398010254e+01
    2.9160797119e+02   -2.2421020508e+01
    2.9170819092e+02   -2.2444030762e+01
    2.9180831909e+02   -2.2466003418e+01
    2.9190835571e+02   -2.2489013672e+01
    2.9200790405e+02   -2.2510986328e+01
    2.9210742188e+02   -2.2531982422e+01
    2.9220819092e+02   -2.2553039551e+01
    2.9230749512e+02   -2.2574035645e+01
    2.9240820312e+02   -2.2594970703e+01
    2.9250738525e+02   -2.2615966797e+01
    2.9260848999e+02   -2.2635986328e+01
    2.9270831299e+02   -2.2655029297e+01
    2.9280816650e+02   -2.2674987793e+01
    2.9290805054e+02   -2.2693969727e+01
    2.9300796509e+02   -2.2712036133e+01
    2.9310803223e+02   -2.2731018066e+01
    2.9320812988e+02   -2.2749023438e+01
    2.9330831909e+02   -2.2767028809e+01
    2.9340740967e+02   -2.2785034180e+01
    2.9350817871e+02   -2.2802001953e+01
    2.9360812378e+02   -2.2818969727e+01
    2.9370825195e+02   -2.2835021973e+01
    2.9380868530e+02   -2.2852050781e+01
    2.9390759277e+02   -2.2867980957e+01
    2.9400750732e+02   -2.2884033203e+01
    2.9410824585e+02   -2.2900024414e+01
    2.9420776367e+02   -2.2915039062e+01
    2.9430825806e+02   -2.2929992676e+01
    2.9440835571e+02   -2.2943969727e+01
    2.9450781250e+02   -2.2958984375e+01
    2.9460736084e+02   -2.2972961426e+01
    2.9470846558e+02   -2.2986999512e+01
    2.9480813599e+02   -2.3001037598e+01
    2.9490777588e+02   -2.3013977051e+01
    2.9500732422e+02   -2.3026977539e+01
    2.9510818481e+02   -2.3039978027e+01
    2.9520770264e+02   -2.3052001953e+01
    2.9530792236e+02   -2.3065002441e+01
    2.9540795898e+02   -2.3075988770e+01
    2.9550781250e+02   -2.3088012695e+01
    2.9560760498e+02   -2.3098999023e+01
    2.9570816040e+02   -2.3109985352e+01
    2.9580761719e+02   -2.3119995117e+01
    2.9590866089e+02   -2.3131042480e+01
    2.9600823975e+02   -2.3140991211e+01
    2.9610812378e+02   -2.3150024414e+01
    2.9620748901e+02   -2.3159057617e+01
    2.9630834961e+02   -2.3168029785e+01
    2.9640786743e+02   -2.3177001953e+01
    2.9650765991e+02   -2.3184997559e+01
    2.9660858154e+02   -2.3193969727e+01
    2.9670809937e+02   -2.3200988770e+01
    2.9680755615e+02   -2.3208007812e+01
    2.9690887451e+02   -2.3216003418e+01
    2.9700866699e+02   -2.3221984863e+01
    2.9710867310e+02   -2.3229003906e+01
    2.9720742798e+02   -2.3234008789e+01
    2.9730792236e+02   -2.3239990234e+01
    2.9740856934e+02   -2.3245971680e+01
    2.9750891113e+02   -2.3252014160e+01
    2.9760815430e+02   -2.3257019043e+01
    2.9770892334e+02   -2.3260986328e+01
    2.9780838013e+02   -2.3265014648e+01
    2.9790798950e+02   -2.3268981934e+01
    2.9800778198e+02   -2.3274047852e+01
    2.9810864258e+02   -2.3276000977e+01
    2.9820883179e+02   -2.3280029297e+01
    2.9830749512e+02   -2.3283020020e+01
    2.9840872192e+02   -2.3284973145e+01
    2.9850759888e+02   -2.3288024902e+01
    2.9860845947e+02   -2.3290039062e+01
    2.9870816040e+02   -2.3291992188e+01
    2.9880776978e+02   -2.3292968750e+01
    2.9890890503e+02   -2.3294982910e+01
    2.9900860596e+02   -2.3296020508e+01
    2.9910836792e+02   -2.3296020508e+01
    2.9920819092e+02   -2.3295959473e+01
    2.9930847168e+02   -2.3296997070e+01
    2.9940805054e+02   -2.3296997070e+01
    2.9950888062e+02   -2.3295959473e+01
    2.9960809326e+02   -2.3294982910e+01
    2.9970849609e+02   -2.3294982910e+01
    2.9980874634e+02   -2.3293945312e+01
    2.9990905762e+02   -2.3291992188e+01
endcurve
