Curveplot
LS-DYNA keyword deck by LS-PrePost
Abscissa
Ordinate
XY data
CHOP_NASZ_mo-1 #pts=3000
* Minval=    -1.7066600037e+02 at time=       272.5071716309
* Maxval=     2.0620900614e-06 at time=         2.7988300323
    0.0000000000e+00    0.0000000000e+00
    9.8665714264e-02    1.4012984643e-44
    1.9887307286e-01    1.3929699893e-35
    2.9908046126e-01    4.8266100476e-29
    3.9928781986e-01    1.4979100705e-23
    4.9949517846e-01    2.2377699017e-19
    5.9970253706e-01    2.5103100412e-15
    6.9932085276e-01    5.3860399474e-10
    7.9968386889e-01    2.6606100434e-08
    8.9898151159e-01    7.2920101957e-08
    9.9915391207e-01    9.7793297016e-08
    1.0998978615e+00    1.3212400063e-07
    1.1999748945e+00    1.8410599978e-07
    1.2987960577e+00    2.3523500658e-07
    1.3993667364e+00    2.8005200647e-07
    1.4999196529e+00    3.3734400517e-07
    1.5987406969e+00    3.8188198914e-07
    1.6998659372e+00    4.3604501343e-07
    1.7999436855e+00    5.1168797199e-07
    1.8996568918e+00    5.8868801034e-07
    1.9994639158e+00    6.3753498125e-07
    2.0987761021e+00    6.2904399556e-07
    2.1985299587e+00    5.5170801261e-07
    2.2983815670e+00    4.9899398391e-07
    2.3998730183e+00    6.1826301589e-07
    2.4992706776e+00    1.0193200524e-06
    2.5997676849e+00    1.5882800426e-06
    2.6999757290e+00    2.0247200609e-06
    2.7988300323e+00    2.0620900614e-06
    2.8986189365e+00    1.5853599962e-06
    2.9991533756e+00    6.2117902644e-07
    3.0992131233e+00   -7.4918199289e-07
    3.1998617649e+00   -2.5159799861e-06
    3.2991583347e+00   -4.6227601160e-06
    3.3992121220e+00   -7.0801897891e-06
    3.4992592335e+00   -9.8574300864e-06
    3.5987131596e+00   -1.2960499589e-05
    3.6993260384e+00   -1.6496500393e-05
    3.7997486591e+00   -2.0474100893e-05
    3.8994097710e+00   -2.4866199965e-05
    3.9999620914e+00   -2.9659100619e-05
    4.0991630554e+00   -3.4588898416e-05
    4.1985726357e+00   -3.9546499465e-05
    4.2996191978e+00   -4.4464100938e-05
    4.3994731903e+00   -4.9071401008e-05
    4.4987592697e+00   -5.3365398344e-05
    4.5998926163e+00   -5.7528901380e-05
    4.6993927956e+00   -6.1689301219e-05
    4.7994699478e+00   -6.6353801230e-05
    4.8983769417e+00   -7.1858099545e-05
    4.9993224144e+00   -7.8821001807e-05
    5.0995249748e+00   -8.7452601292e-05
    5.1995201111e+00   -9.7989803180e-05
    5.2986416817e+00   -1.1046400323e-04
    5.3995928764e+00   -1.2529100059e-04
    5.4984164238e+00   -1.4189399371e-04
    5.5999279022e+00   -1.6115499602e-04
    5.6984696388e+00   -1.8201899366e-04
    5.7986989021e+00   -2.0557899552e-04
    5.8993062973e+00   -2.3183799931e-04
    5.9984145164e+00   -2.6050501037e-04
    6.0998477936e+00   -2.9306099168e-04
    6.1989188194e+00   -3.2823099173e-04
    6.2996253967e+00   -3.6754299072e-04
    6.3983716965e+00   -4.0961400373e-04
    6.4995007515e+00   -4.5623100596e-04
    6.5993127823e+00   -5.0561799435e-04
    6.6993141174e+00   -5.5823201546e-04
    6.7991056442e+00   -6.1364099383e-04
    6.8997559547e+00   -6.7232100992e-04
    6.9994716644e+00   -7.3314999463e-04
    7.0997943878e+00   -7.9709902639e-04
    7.1987619400e+00   -8.6304498836e-04
    7.2993636131e+00   -9.3313399702e-04
    7.3990545273e+00   -1.0056500323e-03
    7.4989185333e+00   -1.0812999681e-03
    7.5992770195e+00   -1.1602200102e-03
    7.6987156868e+00   -1.2411100324e-03
    7.7994089127e+00   -1.3255600352e-03
    7.8997044563e+00   -1.4119700063e-03
    7.9995851517e+00   -1.5001599677e-03
    8.0999584198e+00   -1.5908799833e-03
    8.1994724274e+00   -1.6829499509e-03
    8.2992858887e+00   -1.7776299501e-03
    8.3986196518e+00   -1.8744099652e-03
    8.4988069534e+00   -1.9747999031e-03
    8.5989942551e+00   -2.0780800842e-03
    8.6984653473e+00   -2.1834198851e-03
    8.7998790741e+00   -2.2934800945e-03
    8.8996896744e+00   -2.4041300640e-03
    8.9992752075e+00   -2.5165400002e-03
    9.0993385315e+00   -2.6312700938e-03
    9.1996097565e+00   -2.7479398996e-03
    9.2996873856e+00   -2.8661300894e-03
    9.3993835449e+00   -2.9856599867e-03
    9.4990024567e+00   -3.1070800032e-03
    9.5992116928e+00   -3.2313799020e-03
    9.6999759674e+00   -3.3585899509e-03
    9.7993879318e+00   -3.4862100147e-03
    9.8992424011e+00   -3.6162899341e-03
    9.9996871948e+00   -3.7487898953e-03
    1.0099941254e+01   -3.8823799696e-03
    1.0198670387e+01   -4.0150401182e-03
    1.0299817085e+01   -4.1519901715e-03
    1.0399135590e+01   -4.2875697836e-03
    1.0499294281e+01   -4.4256597757e-03
    1.0598592758e+01   -4.5641697943e-03
    1.0698574066e+01   -4.7055599280e-03
    1.0798555374e+01   -4.8491097987e-03
    1.0898838043e+01   -4.9953898415e-03
    1.0998833656e+01   -5.1435898058e-03
    1.1099402428e+01   -5.2948999219e-03
    1.1198697090e+01   -5.4464098066e-03
    1.1298677444e+01   -5.6010098197e-03
    1.1398848534e+01   -5.7580401190e-03
    1.1499307632e+01   -5.9178601950e-03
    1.1599677086e+01   -6.0801799409e-03
    1.1698794365e+01   -6.2433700077e-03
    1.1798995972e+01   -6.4115701243e-03
    1.1898798943e+01   -6.5825302154e-03
    1.1999782562e+01   -6.7590498365e-03
    1.2099208832e+01   -6.9362302311e-03
    1.2199954033e+01   -7.1189301088e-03
    1.2299825668e+01   -7.3028900661e-03
    1.2399702072e+01   -7.4893101119e-03
    1.2499883652e+01   -7.6786098070e-03
    1.2598860741e+01   -7.8682601452e-03
    1.2699087143e+01   -8.0636003986e-03
    1.2799306870e+01   -8.2629797980e-03
    1.2899601936e+01   -8.4670195356e-03
    1.2999082565e+01   -8.6739500985e-03
    1.3098941803e+01   -8.8861500844e-03
    1.3198799133e+01   -9.1025903821e-03
    1.3298561096e+01   -9.3226395547e-03
    1.3398999214e+01   -9.5475902781e-03
    1.3499709129e+01   -9.7761601210e-03
    1.3599534035e+01   -1.0005500168e-02
    1.3699357986e+01   -1.0237599723e-02
    1.3798517227e+01   -1.0471099988e-02
    1.3898679733e+01   -1.0710399598e-02
    1.3999144554e+01   -1.0954099707e-02
    1.4099323273e+01   -1.1200900190e-02
    1.4199502945e+01   -1.1451300234e-02
    1.4298810959e+01   -1.1702899821e-02
    1.4398548126e+01   -1.1958500370e-02
    1.4498391151e+01   -1.2217099778e-02
    1.4599130630e+01   -1.2480500154e-02
    1.4699625015e+01   -1.2746100314e-02
    1.4799732208e+01   -1.3014099561e-02
    1.4899262428e+01   -1.3284900226e-02
    1.4999880791e+01   -1.3563999906e-02
    1.5098719597e+01   -1.3844500296e-02
    1.5198610306e+01   -1.4135199599e-02
    1.5299570084e+01   -1.4436899684e-02
    1.5399980545e+01   -1.4745200053e-02
    1.5499902725e+01   -1.5060099773e-02
    1.5599719048e+01   -1.5382600017e-02
    1.5699064255e+01   -1.5711300075e-02
    1.5798649788e+01   -1.6048600897e-02
    1.5898917198e+01   -1.6396399587e-02
    1.5999511719e+01   -1.6754299402e-02
    1.6099826813e+01   -1.7120899633e-02
    1.6199512482e+01   -1.7495799810e-02
    1.6299785614e+01   -1.7884299159e-02
    1.6399372101e+01   -1.8281999975e-02
    1.6499305725e+01   -1.8693100661e-02
    1.6599048615e+01   -1.9115099683e-02
    1.6699186325e+01   -1.9549900666e-02
    1.6798429489e+01   -1.9990900531e-02
    1.6899503708e+01   -2.0449599251e-02
    1.6999053955e+01   -2.0910300314e-02
    1.7099515915e+01   -2.1383900195e-02
    1.7199779510e+01   -2.1865300834e-02
    1.7299049377e+01   -2.2350799292e-02
    1.7399724960e+01   -2.2852500901e-02
    1.7499521255e+01   -2.3359199986e-02
    1.7598663330e+01   -2.3871900514e-02
    1.7699377060e+01   -2.4401800707e-02
    1.7799608231e+01   -2.4938000366e-02
    1.7898965836e+01   -2.5477299467e-02
    1.7999240875e+01   -2.6029000059e-02
    1.8099725723e+01   -2.6588799432e-02
    1.8198949814e+01   -2.7148300782e-02
    1.8299024582e+01   -2.7719700709e-02
    1.8399129868e+01   -2.8298899531e-02
    1.8499340057e+01   -2.8886999935e-02
    1.8599550247e+01   -2.9483599588e-02
    1.8698759079e+01   -3.0082700774e-02
    1.8798530579e+01   -3.0693400651e-02
    1.8899085999e+01   -3.1316600740e-02
    1.8998956680e+01   -3.1942300498e-02
    1.9099990845e+01   -3.2581400126e-02
    1.9199626923e+01   -3.3217001706e-02
    1.9299144745e+01   -3.3856898546e-02
    1.9399421692e+01   -3.4506998956e-02
    1.9499637604e+01   -3.5162299871e-02
    1.9599853516e+01   -3.5823699087e-02
    1.9699192047e+01   -3.6485899240e-02
    1.9799736023e+01   -3.7162899971e-02
    1.9899597168e+01   -3.7842098624e-02
    1.9999458313e+01   -3.8527701050e-02
    2.0099317551e+01   -3.9218999445e-02
    2.0199178696e+01   -3.9915300906e-02
    2.0298517227e+01   -4.0612500161e-02
    2.0399871826e+01   -4.1328400373e-02
    2.0498962402e+01   -4.2032901198e-02
    2.0598831177e+01   -4.2748000473e-02
    2.0699207306e+01   -4.3472599238e-02
    2.0799760818e+01   -4.4204998761e-02
    2.0899932861e+01   -4.4941898435e-02
    2.0999078751e+01   -4.5678600669e-02
    2.1099082947e+01   -4.6429298818e-02
    2.1200040817e+01   -4.7194801271e-02
    2.1299140930e+01   -4.7953501344e-02
    2.1398736954e+01   -4.8723399639e-02
    2.1499895096e+01   -4.9513000995e-02
    2.1598661423e+01   -5.0291799009e-02
    2.1699058533e+01   -5.1092300564e-02
    2.1798717499e+01   -5.1896199584e-02
    2.1899429321e+01   -5.2718698978e-02
    2.1999353409e+01   -5.3545299917e-02
    2.2098709106e+01   -5.4377701133e-02
    2.2198734283e+01   -5.5226098746e-02
    2.2299903870e+01   -5.6094199419e-02
    2.2399820328e+01   -5.6960899383e-02
    2.2499740601e+01   -5.7836499065e-02
    2.2599123001e+01   -5.8716300875e-02
    2.2699390411e+01   -5.9613600373e-02
    2.2799650192e+01   -6.0521300882e-02
    2.2899888992e+01   -6.1439998448e-02
    2.2999135971e+01   -6.2360998243e-02
    2.3098852158e+01   -6.3298001885e-02
    2.3198562622e+01   -6.4246401191e-02
    2.3298440933e+01   -6.5207399428e-02
    2.3399662018e+01   -6.6191896796e-02
    2.3499134064e+01   -6.7169100046e-02
    2.3598976135e+01   -6.8158902228e-02
    2.3698818207e+01   -6.9157600403e-02
    2.3799158096e+01   -7.0170402527e-02
    2.3899055481e+01   -7.1188196540e-02
    2.3999254227e+01   -7.2218999267e-02
    2.4099449158e+01   -7.3259897530e-02
    2.4199836731e+01   -7.4313096702e-02
    2.4298568726e+01   -7.5358800590e-02
    2.4400054932e+01   -7.6443396509e-02
    2.4499914169e+01   -7.7519796789e-02
    2.4599782944e+01   -7.8605100513e-02
    2.4699327469e+01   -7.9695902765e-02
    2.4799566269e+01   -8.0803900957e-02
    2.4899822235e+01   -8.1922799349e-02
    2.4998540878e+01   -8.3036199212e-02
    2.5100027084e+01   -8.4194302559e-02
    2.5199466705e+01   -8.5343703628e-02
    2.5299388885e+01   -8.6514100432e-02
    2.5399816513e+01   -8.7706603110e-02
    2.5499284744e+01   -8.8903896511e-02
    2.5599239349e+01   -9.0122997761e-02
    2.5699201584e+01   -9.1358199716e-02
    2.5799791336e+01   -9.2617101967e-02
    2.5898660660e+01   -9.3870498240e-02
    2.5998544693e+01   -9.5153503120e-02
    2.6099594116e+01   -9.6469901502e-02
    2.6198757172e+01   -9.7780898213e-02
    2.6299083710e+01   -9.9128097296e-02
    2.6398723602e+01   -1.0048799962e-01
    2.6498689651e+01   -1.0187300295e-01
    2.6598659515e+01   -1.0328099877e-01
    2.6699123383e+01   -1.0471700132e-01
    2.6799583435e+01   -1.0617200285e-01
    2.6899261475e+01   -1.0763499886e-01
    2.6999736786e+01   -1.0912500322e-01
    2.7100051880e+01   -1.1062999815e-01
    2.7199480057e+01   -1.1213800311e-01
    2.7299264908e+01   -1.1366699636e-01
    2.7399196625e+01   -1.1521500349e-01
    2.7499994278e+01   -1.1679299921e-01
    2.7598958969e+01   -1.1835899949e-01
    2.7699207306e+01   -1.1996199936e-01
    2.7799465179e+01   -1.2158100307e-01
    2.7899227142e+01   -1.2320700288e-01
    2.7999715805e+01   -1.2485899776e-01
    2.8098754883e+01   -1.2649999559e-01
    2.8199239731e+01   -1.2817700207e-01
    2.8299148560e+01   -1.2985800207e-01
    2.8399087906e+01   -1.3155299425e-01
    2.8499320984e+01   -1.3326799870e-01
    2.8599552155e+01   -1.3499699533e-01
    2.8700038910e+01   -1.3674600422e-01
    2.8799930573e+01   -1.3849900663e-01
    2.8899827957e+01   -1.4026600122e-01
    2.8999727249e+01   -1.4204600453e-01
    2.9099624634e+01   -1.4383700490e-01
    2.9198661804e+01   -1.4562399685e-01
    2.9300012589e+01   -1.4746299386e-01
    2.9399641037e+01   -1.4928099513e-01
    2.9499870300e+01   -1.5112100542e-01
    2.9598558426e+01   -1.5294499695e-01
    2.9698783875e+01   -1.5480799973e-01
    2.9799528122e+01   -1.5669399500e-01
    2.9899206161e+01   -1.5857200325e-01
    2.9999074936e+01   -1.6046600044e-01
    3.0098939896e+01   -1.6237199306e-01
    3.0198802948e+01   -1.6428799927e-01
    3.0299003601e+01   -1.6621999443e-01
    3.0398899078e+01   -1.6815599799e-01
    3.0498756409e+01   -1.7010000348e-01
    3.0598539352e+01   -1.7205399275e-01
    3.0698753357e+01   -1.7402599752e-01
    3.0798460007e+01   -1.7600099742e-01
    3.0899412155e+01   -1.7801199853e-01
    3.0999244690e+01   -1.8001499772e-01
    3.1099538803e+01   -1.8204000592e-01
    3.1199554443e+01   -1.8407399952e-01
    3.1299940109e+01   -1.8612800539e-01
    3.1398616791e+01   -1.8816100061e-01
    3.1498872757e+01   -1.9024099410e-01
    3.1599708557e+01   -1.9234700501e-01
    3.1698604584e+01   -1.9442899525e-01
    3.1799562454e+01   -1.9657200575e-01
    3.1899860382e+01   -1.9871899486e-01
    3.1999465942e+01   -2.0087100565e-01
    3.2099044800e+01   -2.0304000378e-01
    3.2199005127e+01   -2.0523799956e-01
    3.2298976898e+01   -2.0745299757e-01
    3.2398956299e+01   -2.0968599617e-01
    3.2500015259e+01   -2.1196000278e-01
    3.2598815918e+01   -2.1420000494e-01
    3.2699146271e+01   -2.1649299562e-01
    3.2799465179e+01   -2.1880500019e-01
    3.2899955750e+01   -2.2114300728e-01
    3.2999244690e+01   -2.2347299755e-01
    3.3099006653e+01   -2.2583599389e-01
    3.3198947906e+01   -2.2822399437e-01
    3.3298881531e+01   -2.3063099384e-01
    3.3398788452e+01   -2.3305800557e-01
    3.3498664856e+01   -2.3550200462e-01
    3.3598518372e+01   -2.3796400428e-01
    3.3700004578e+01   -2.4048300087e-01
    3.3799858093e+01   -2.4298000336e-01
    3.3899078369e+01   -2.4547900259e-01
    3.3999279022e+01   -2.4802200496e-01
    3.4099468231e+01   -2.5058299303e-01
    3.4199657440e+01   -2.5316300988e-01
    3.4298976898e+01   -2.5573700666e-01
    3.4398822784e+01   -2.5834199786e-01
    3.4498683929e+01   -2.6096299291e-01
    3.4600006104e+01   -2.6363798976e-01
    3.4698703766e+01   -2.6625999808e-01
    3.4799999237e+01   -2.6896798611e-01
    3.4899131775e+01   -2.7163699269e-01
    3.4999439240e+01   -2.7436101437e-01
    3.5098583221e+01   -2.7707600594e-01
    3.5199813843e+01   -2.7987700701e-01
    3.5299800873e+01   -2.8266999125e-01
    3.5399803162e+01   -2.8549298644e-01
    3.5499828339e+01   -2.8834599257e-01
    3.5599868774e+01   -2.9122599959e-01
    3.5699928284e+01   -2.9413500428e-01
    3.5799468994e+01   -2.9705700278e-01
    3.5899879456e+01   -3.0003198981e-01
    3.5999172211e+01   -3.0300301313e-01
    3.6099941254e+01   -3.0605098605e-01
    3.6198822021e+01   -3.0907499790e-01
    3.6299247742e+01   -3.1218200922e-01
    3.6398387909e+01   -3.1528601050e-01
    3.6498443604e+01   -3.1845599413e-01
    3.6598506927e+01   -3.2166299224e-01
    3.6698467255e+01   -3.2490199804e-01
    3.6798519135e+01   -3.2817700505e-01
    3.6898571014e+01   -3.3148300648e-01
    3.6999034882e+01   -3.3483099937e-01
    3.7099430084e+01   -3.3820599318e-01
    3.7199806213e+01   -3.4160900116e-01
    3.7298713684e+01   -3.4498998523e-01
    3.7398700714e+01   -3.4843900800e-01
    3.7498680115e+01   -3.5191699862e-01
    3.7599437714e+01   -3.5545301437e-01
    3.7699954987e+01   -3.5901001096e-01
    3.7798725128e+01   -3.6253300309e-01
    3.7899040222e+01   -3.6613699794e-01
    3.7998901367e+01   -3.6974799633e-01
    3.8098854065e+01   -3.7338399887e-01
    3.8199676514e+01   -3.7707400322e-01
    3.8298599243e+01   -3.8071700931e-01
    3.8398880005e+01   -3.8443300128e-01
    3.8499145508e+01   -3.8817399740e-01
    3.8599403381e+01   -3.9194199443e-01
    3.8699810028e+01   -3.9574301243e-01
    3.8799743652e+01   -3.9955300093e-01
    3.8899318695e+01   -4.0337300301e-01
    3.8999256134e+01   -4.0723100305e-01
    3.9099193573e+01   -4.1110900044e-01
    3.9199428558e+01   -4.1501900554e-01
    3.9299346924e+01   -4.1893500090e-01
    3.9399574280e+01   -4.2288300395e-01
    3.9499832153e+01   -4.2685198784e-01
    3.9598548889e+01   -4.3077999353e-01
    3.9698802948e+01   -4.3479201198e-01
    3.9799804688e+01   -4.3885600567e-01
    3.9899700165e+01   -4.4289800525e-01
    3.9999599457e+01   -4.4696098566e-01
    4.0099491119e+01   -4.5104300976e-01
    4.0199382782e+01   -4.5514300466e-01
    4.0299308777e+01   -4.5926100016e-01
    4.0398658752e+01   -4.6337199211e-01
    4.0498542786e+01   -4.6752101183e-01
    4.0599205017e+01   -4.7172001004e-01
    4.0699443817e+01   -4.7592100501e-01
    4.0798583984e+01   -4.8009699583e-01
    4.0899005890e+01   -4.8434999585e-01
    4.0999259949e+01   -4.8861899972e-01
    4.1099006653e+01   -4.9289000034e-01
    4.1199893951e+01   -4.9723398685e-01
    4.1299819946e+01   -5.0155997276e-01
    4.1399124146e+01   -5.0588202477e-01
    4.1499900818e+01   -5.1029199362e-01
    4.1598678589e+01   -5.1463901997e-01
    4.1698535919e+01   -5.1906198263e-01
    4.1798995972e+01   -5.2354198694e-01
    4.1898971558e+01   -5.2803099155e-01
    4.1999313354e+01   -5.3257197142e-01
    4.2099376678e+01   -5.3713297844e-01
    4.2199447632e+01   -5.4172801971e-01
    4.2299526215e+01   -5.4635602236e-01
    4.2399623871e+01   -5.5101597309e-01
    4.2499732971e+01   -5.5570602417e-01
    4.2599319458e+01   -5.6040197611e-01
    4.2699764252e+01   -5.6517201662e-01
    4.2798641205e+01   -5.6990200281e-01
    4.2898471832e+01   -5.7471299171e-01
    4.2998527527e+01   -5.7957398891e-01
    4.3098300934e+01   -5.8445900679e-01
    4.3198326111e+01   -5.8939397335e-01
    4.3298343658e+01   -5.9436500072e-01
    4.3398330688e+01   -5.9936702251e-01
    4.3499904633e+01   -6.0448199511e-01
    4.3599796295e+01   -6.0954201221e-01
    4.3699680328e+01   -6.1463099718e-01
    4.3799571991e+01   -6.1975097656e-01
    4.3899032593e+01   -6.2487900257e-01
    4.3999256134e+01   -6.3007801771e-01
    4.4099460602e+01   -6.3530999422e-01
    4.4199665070e+01   -6.4057499170e-01
    4.4299095154e+01   -6.4582997561e-01
    4.4398963928e+01   -6.5113800764e-01
    4.4498863220e+01   -6.5647602081e-01
    4.4598987579e+01   -6.6185200214e-01
    4.4699558258e+01   -6.6728001833e-01
    4.4799873352e+01   -6.7272198200e-01
    4.4898685455e+01   -6.7811399698e-01
    4.4999061584e+01   -6.8362599611e-01
    4.5098480225e+01   -6.8912398815e-01
    4.5198535919e+01   -6.9470000267e-01
    4.5298606873e+01   -7.0032298565e-01
    4.5398704529e+01   -7.0599299669e-01
    4.5498825073e+01   -7.1171098948e-01
    4.5598976135e+01   -7.1747702360e-01
    4.5699150085e+01   -7.2328698635e-01
    4.5798889160e+01   -7.2911500931e-01
    4.5899417877e+01   -7.3503297567e-01
    4.5998348236e+01   -7.4090200663e-01
    4.6099803925e+01   -7.4696999788e-01
    4.6198802948e+01   -7.5294297934e-01
    4.6299346924e+01   -7.5906497240e-01
    4.6398906708e+01   -7.6518499851e-01
    4.6499076843e+01   -7.7140200138e-01
    4.6599254608e+01   -7.7767902613e-01
    4.6699428558e+01   -7.8401100636e-01
    4.6799594879e+01   -7.9039502144e-01
    4.6899757385e+01   -7.9682797194e-01
    4.6999172211e+01   -8.0325698853e-01
    4.7099685669e+01   -8.0980098248e-01
    4.7198627472e+01   -8.1628698111e-01
    4.7298973083e+01   -8.2290899754e-01
    4.7399055481e+01   -8.2955998182e-01
    4.7499118805e+01   -8.3625799417e-01
    4.7599098206e+01   -8.4299898148e-01
    4.7699497223e+01   -8.4981501102e-01
    4.7798332214e+01   -8.5656899214e-01
    4.7899093628e+01   -8.6349701881e-01
    4.7999114990e+01   -8.7041199207e-01
    4.8099136353e+01   -8.7736302614e-01
    4.8199150085e+01   -8.8434702158e-01
    4.8299163818e+01   -8.9136701822e-01
    4.8399497986e+01   -8.9844602346e-01
    4.8499809265e+01   -9.0556401014e-01
    4.8598567963e+01   -9.1261398792e-01
    4.8699710846e+01   -9.1987699270e-01
    4.8799705505e+01   -9.2710000277e-01
    4.8899715424e+01   -9.3436598778e-01
    4.8999729156e+01   -9.4166898727e-01
    4.9099742889e+01   -9.4900602102e-01
    4.9199687958e+01   -9.5636999607e-01
    4.9299121857e+01   -9.6372497082e-01
    4.9399105072e+01   -9.7114998102e-01
    4.9499420166e+01   -9.7863000631e-01
    4.9599727631e+01   -9.8614102602e-01
    4.9698486328e+01   -9.9357098341e-01
    4.9798564911e+01   -1.0011299849e+00
    4.9898513794e+01   -1.0087200403e+00
    4.9998458862e+01   -1.0163500309e+00
    5.0098396301e+01   -1.0240000486e+00
    5.0198333740e+01   -1.0316900015e+00
    5.0298988342e+01   -1.0394599438e+00
    5.0399051666e+01   -1.0471999645e+00
    5.0498958588e+01   -1.0549700260e+00
    5.0599754333e+01   -1.0628299713e+00
    5.0698848724e+01   -1.0705900192e+00
    5.0798778534e+01   -1.0784399509e+00
    5.0899791718e+01   -1.0864200592e+00
    5.0998546600e+01   -1.0942599773e+00
    5.1099422455e+01   -1.1023000479e+00
    5.1199409485e+01   -1.1103099585e+00
    5.1299392700e+01   -1.1183600426e+00
    5.1398460388e+01   -1.1263699532e+00
    5.1498828888e+01   -1.1345200539e+00
    5.1599227905e+01   -1.1427199841e+00
    5.1698795319e+01   -1.1508899927e+00
    5.1799270630e+01   -1.1591800451e+00
    5.1898498535e+01   -1.1674200296e+00
    5.1999736786e+01   -1.1758799553e+00
    5.2098293304e+01   -1.1841700077e+00
    5.2198513031e+01   -1.1926499605e+00
    5.2298740387e+01   -1.2011799812e+00
    5.2398986816e+01   -1.2097699642e+00
    5.2499252319e+01   -1.2184100151e+00
    5.2598693848e+01   -1.2270200253e+00
    5.2699298859e+01   -1.2357900143e+00
    5.2798324585e+01   -1.2444700003e+00
    5.2898887634e+01   -1.2533500195e+00
    5.2998146057e+01   -1.2621699572e+00
    5.3098270416e+01   -1.2711199522e+00
    5.3198638916e+01   -1.2801599503e+00
    5.3298763275e+01   -1.2892299891e+00
    5.3398845673e+01   -1.2983499765e+00
    5.3498863220e+01   -1.3075100183e+00
    5.3598827362e+01   -1.3167200089e+00
    5.3698783875e+01   -1.3259799480e+00
    5.3798748016e+01   -1.3352799416e+00
    5.3898376465e+01   -1.3445999622e+00
    5.3998661041e+01   -1.3540300131e+00
    5.4098922729e+01   -1.3635100126e+00
    5.4199176788e+01   -1.3730299473e+00
    5.4299434662e+01   -1.3826099634e+00
    5.4398975372e+01   -1.3921600580e+00
    5.4498928070e+01   -1.4018000364e+00
    5.4598907471e+01   -1.4114799500e+00
    5.4699142456e+01   -1.4212299585e+00
    5.4799526215e+01   -1.4310400486e+00
    5.4898410797e+01   -1.4407500029e+00
    5.4998855591e+01   -1.4506599903e+00
    5.5099414825e+01   -1.4606399536e+00
    5.5199550629e+01   -1.4706399441e+00
    5.5299709320e+01   -1.4807000160e+00
    5.5398262024e+01   -1.4906699657e+00
    5.5498493195e+01   -1.5008800030e+00
    5.5598762512e+01   -1.5111600161e+00
    5.5699066162e+01   -1.5214999914e+00
    5.5799133301e+01   -1.5318800211e+00
    5.5898250580e+01   -1.5422300100e+00
    5.5998855591e+01   -1.5528000593e+00
    5.6098251343e+01   -1.5633100271e+00
    5.6198928833e+01   -1.5740200281e+00
    5.6299610138e+01   -1.5848200321e+00
    5.6399494171e+01   -1.5956200361e+00
    5.6498153687e+01   -1.6063599586e+00
    5.6598472595e+01   -1.6173700094e+00
    5.6698787689e+01   -1.6284600496e+00
    5.6799095154e+01   -1.6396299601e+00
    5.6899394989e+01   -1.6508599520e+00
    5.6998844147e+01   -1.6620600224e+00
    5.7099479675e+01   -1.6734600067e+00
    5.7198535919e+01   -1.6847300529e+00
    5.7298126221e+01   -1.6961400509e+00
    5.7398303986e+01   -1.7076699734e+00
    5.7498462677e+01   -1.7192699909e+00
    5.7599483490e+01   -1.7310299873e+00
    5.7698429108e+01   -1.7426300049e+00
    5.7798900604e+01   -1.7544599771e+00
    5.7898387909e+01   -1.7662400007e+00
    5.7998489380e+01   -1.7781499624e+00
    5.8098590851e+01   -1.7901099920e+00
    5.8198692322e+01   -1.8021099567e+00
    5.8298336029e+01   -1.8141200542e+00
    5.8398750305e+01   -1.8262699842e+00
    5.8499137878e+01   -1.8384699821e+00
    5.8599510193e+01   -1.8507299423e+00
    5.8698715210e+01   -1.8629100323e+00
    5.8798801422e+01   -1.8752599955e+00
    5.8898906708e+01   -1.8876700401e+00
    5.8999023438e+01   -1.9001300335e+00
    5.9099143982e+01   -1.9126499891e+00
    5.9198684692e+01   -1.9251400232e+00
    5.9298103333e+01   -1.9376499653e+00
    5.9398941040e+01   -1.9503899813e+00
    5.9499332428e+01   -1.9631199837e+00
    5.9598171234e+01   -1.9756900072e+00
    5.9698547363e+01   -1.9885100126e+00
    5.9799266815e+01   -2.0014200211e+00
    5.9899276733e+01   -2.0143001080e+00
    5.9999275208e+01   -2.0272200108e+00
    6.0099266052e+01   -2.0401899815e+00
    6.0199249268e+01   -2.0532100201e+00
    6.0298599243e+01   -2.0661799908e+00
    6.0399562836e+01   -2.0794100761e+00
    6.0499507904e+01   -2.0925400257e+00
    6.0598796844e+01   -2.1056199074e+00
    6.0699085236e+01   -2.1188800335e+00
    6.0798671722e+01   -2.1321001053e+00
    6.0898384094e+01   -2.1453800201e+00
    6.0998741150e+01   -2.1588099003e+00
    6.1098243713e+01   -2.1721699238e+00
    6.1198612213e+01   -2.1856999397e+00
    6.1298496246e+01   -2.1992299557e+00
    6.1398799896e+01   -2.2128601074e+00
    6.1499267578e+01   -2.2265698910e+00
    6.1598220825e+01   -2.2401299477e+00
    6.1698783875e+01   -2.2539799213e+00
    6.1799381256e+01   -2.2678899765e+00
    6.1898834229e+01   -2.2817199230e+00
    6.1998859406e+01   -2.2957000732e+00
    6.2099220276e+01   -2.3097999096e+00
    6.2199611664e+01   -2.3239901066e+00
    6.2298370361e+01   -2.3380200863e+00
    6.2398792267e+01   -2.3523600101e+00
    6.2499240875e+01   -2.3667700291e+00
    6.2598773956e+01   -2.3811199665e+00
    6.2699558258e+01   -2.3957200050e+00
    6.2798755646e+01   -2.4101800919e+00
    6.2899490356e+01   -2.4249300957e+00
    6.2998657227e+01   -2.4395399094e+00
    6.3099346161e+01   -2.4544498920e+00
    6.3199203491e+01   -2.4693300724e+00
    6.3299476624e+01   -2.4843499660e+00
    6.3398059845e+01   -2.4991900921e+00
    6.3498203278e+01   -2.5143399239e+00
    6.3598281860e+01   -2.5295500755e+00
    6.3698345184e+01   -2.5448200703e+00
    6.3798412323e+01   -2.5601599216e+00
    6.3899494171e+01   -2.5757200718e+00
    6.3998321533e+01   -2.5910000801e+00
    6.4098655701e+01   -2.6065900326e+00
    6.4198974609e+01   -2.6222500801e+00
    6.4299301147e+01   -2.6379699707e+00
    6.4398712158e+01   -2.6536200047e+00
    6.4498733521e+01   -2.6694200039e+00
    6.4598770142e+01   -2.6852900982e+00
    6.4699050903e+01   -2.7012600899e+00
    6.4799507141e+01   -2.7173099518e+00
    6.4898460388e+01   -2.7331800461e+00
    6.4998977661e+01   -2.7493801117e+00
    6.5099517822e+01   -2.7656500340e+00
    6.5198020935e+01   -2.7816801071e+00
    6.5298271179e+01   -2.7980799675e+00
    6.5398559570e+01   -2.8145799637e+00
    6.5498901367e+01   -2.8311700821e+00
    6.5599288940e+01   -2.8478600979e+00
    6.5698081970e+01   -2.8643701077e+00
    6.5799057007e+01   -2.8813199997e+00
    6.5898315430e+01   -2.8980700970e+00
    6.5998672485e+01   -2.9150900841e+00
    6.6099273682e+01   -2.9322400093e+00
    6.6198547363e+01   -2.9492599964e+00
    6.6299369812e+01   -2.9666500092e+00
    6.6398918152e+01   -2.9839200974e+00
    6.6499366760e+01   -3.0014600754e+00
    6.6598175049e+01   -3.0188200474e+00
    6.6698631287e+01   -3.0365800858e+00
    6.6799079895e+01   -3.0544199944e+00
    6.6899513245e+01   -3.0723600388e+00
    6.6999481201e+01   -3.0902900696e+00
    6.7098686218e+01   -3.1081700325e+00
    6.7199401855e+01   -3.1263999939e+00
    6.7298522949e+01   -3.1444199085e+00
    6.7398216248e+01   -3.1626200676e+00
    6.7498466492e+01   -3.1810200214e+00
    6.7599105835e+01   -3.1995799541e+00
    6.7698150635e+01   -3.2179300785e+00
    6.7798721313e+01   -3.2366499901e+00
    6.7899284363e+01   -3.2554500103e+00
    6.7999114990e+01   -3.2741799355e+00
    6.8099319458e+01   -3.2930500507e+00
    6.8197891235e+01   -3.3116800785e+00
    6.8299293518e+01   -3.3308999538e+00
    6.8398277283e+01   -3.3497400284e+00
    6.8498756409e+01   -3.3689301014e+00
    6.8599227905e+01   -3.3882000446e+00
    6.8698150635e+01   -3.4072499275e+00
    6.8798355103e+01   -3.4266400337e+00
    6.8898590088e+01   -3.4460999966e+00
    6.8998832703e+01   -3.4656500816e+00
    6.9099082947e+01   -3.4852700233e+00
    6.9198181152e+01   -3.5047199726e+00
    6.9298210144e+01   -3.5244100094e+00
    6.9398376465e+01   -3.5441799164e+00
    6.9499244690e+01   -3.5641601086e+00
    6.9598175049e+01   -3.5838100910e+00
    6.9698638916e+01   -3.6038300991e+00
    6.9799362183e+01   -3.6239700317e+00
    6.9899452209e+01   -3.6440598965e+00
    6.9997894287e+01   -3.6638801098e+00
    7.0097953796e+01   -3.6840999126e+00
    7.0198013306e+01   -3.7043800354e+00
    7.0298385620e+01   -3.7247700691e+00
    7.0397972107e+01   -3.7450599670e+00
    7.0497970581e+01   -3.7654900551e+00
    7.0598266602e+01   -3.7860300541e+00
    7.0698616028e+01   -3.8066298962e+00
    7.0798156738e+01   -3.8271400928e+00
    7.0898239136e+01   -3.8478200436e+00
    7.0998672485e+01   -3.8686599731e+00
    7.1099128723e+01   -3.8895699978e+00
    7.1198059082e+01   -3.9102399349e+00
    7.1298225403e+01   -3.9312300682e+00
    7.1398330688e+01   -3.9522900581e+00
    7.1498901367e+01   -3.9735200405e+00
    7.1597961426e+01   -3.9944999218e+00
    7.1698646545e+01   -4.0159001350e+00
    7.1799377441e+01   -4.0373997688e+00
    7.1898872375e+01   -4.0587201118e+00
    7.1999336243e+01   -4.0803499222e+00
    7.2098213196e+01   -4.1017398834e+00
    7.2198783875e+01   -4.1235899925e+00
    7.2299377441e+01   -4.1455497742e+00
    7.2398338318e+01   -4.1672501564e+00
    7.2498985291e+01   -4.1894102097e+00
    7.2597938538e+01   -4.2112898827e+00
    7.2698936462e+01   -4.2337198257e+00
    7.2798332214e+01   -4.2558798790e+00
    7.2899261475e+01   -4.2784900665e+00
    7.2998626709e+01   -4.3008599281e+00
    7.3097946167e+01   -4.3233199120e+00
    7.3198951721e+01   -4.3462700844e+00
    7.3299400330e+01   -4.3692097664e+00
    7.3398155212e+01   -4.3918499947e+00
    7.3498458862e+01   -4.4149498940e+00
    7.3598686218e+01   -4.4381198883e+00
    7.3698890686e+01   -4.4613800049e+00
    7.3799095154e+01   -4.4847202301e+00
    7.3898948669e+01   -4.5080599785e+00
    7.3999420166e+01   -4.5316300392e+00
    7.4098297119e+01   -4.5549201965e+00
    7.4198692322e+01   -4.5786600113e+00
    7.4299095154e+01   -4.6024799347e+00
    7.4399269104e+01   -4.6263399124e+00
    7.4499359131e+01   -4.6502699852e+00
    7.4597831726e+01   -4.6738801003e+00
    7.4697959900e+01   -4.6979699135e+00
    7.4798286438e+01   -4.7221798897e+00
    7.4898857117e+01   -4.7465300560e+00
    7.4997894287e+01   -4.7705898285e+00
    7.5098503113e+01   -4.7951197624e+00
    7.5198562622e+01   -4.8196201324e+00
    7.5298904419e+01   -4.8442897797e+00
    7.5399284363e+01   -4.8690800667e+00
    7.5498069763e+01   -4.8935899734e+00
    7.5598571777e+01   -4.9186201096e+00
    7.5699127197e+01   -4.9437799454e+00
    7.5798065186e+01   -4.9686298370e+00
    7.5899368286e+01   -4.9941701889e+00
    7.5998306274e+01   -5.0192198753e+00
    7.6098739624e+01   -5.0447402000e+00
    7.6198127747e+01   -5.0701098442e+00
    7.6299057007e+01   -5.0960001945e+00
    7.6398429871e+01   -5.1216001511e+00
    7.6498603821e+01   -5.1475400925e+00
    7.6599174500e+01   -5.1737098694e+00
    7.6698097229e+01   -5.1995701790e+00
    7.6798660278e+01   -5.2259798050e+00
    7.6899208069e+01   -5.2524900436e+00
    7.6998306274e+01   -5.2787098885e+00
    7.7099166870e+01   -5.3054900169e+00
    7.7198432922e+01   -5.3319401741e+00
    7.7298416138e+01   -5.3586702347e+00
    7.7398780823e+01   -5.3856000900e+00
    7.7498352051e+01   -5.4124197960e+00
    7.7598548889e+01   -5.4395098686e+00
    7.7699234009e+01   -5.4668397903e+00
    7.7798362732e+01   -5.4938502312e+00
    7.7899032593e+01   -5.5213799477e+00
    7.7998100281e+01   -5.5485501289e+00
    7.8098434448e+01   -5.5761499405e+00
    7.8198776245e+01   -5.6038298607e+00
    7.8298385620e+01   -5.6313800812e+00
    7.8399032593e+01   -5.6592998505e+00
    7.8498085022e+01   -5.6868600845e+00
    7.8598670959e+01   -5.7149400711e+00
    7.8698104858e+01   -5.7428002357e+00
    7.8798423767e+01   -5.7709999084e+00
    7.8898788452e+01   -5.7993202209e+00
    7.8999168396e+01   -5.8277301788e+00
    7.9097923279e+01   -5.8557701111e+00
    7.9198036194e+01   -5.8842601776e+00
    7.9297828674e+01   -5.9127497673e+00
    7.9398124695e+01   -5.9414401054e+00
    7.9498718262e+01   -5.9702901840e+00
    7.9599296570e+01   -5.9992198944e+00
    7.9698318481e+01   -6.0277700424e+00
    7.9798080444e+01   -6.0566201210e+00
    7.9898269653e+01   -6.0856800079e+00
    7.9998451233e+01   -6.1148200035e+00
    8.0098617554e+01   -6.1440401077e+00
    8.0198776245e+01   -6.1733298302e+00
    8.0297973633e+01   -6.2024202347e+00
    8.0398445129e+01   -6.2319397926e+00
    8.0497947693e+01   -6.2612400055e+00
    8.0599060059e+01   -6.2910799980e+00
    8.0697914124e+01   -6.3203201294e+00
    8.0798088074e+01   -6.3500299454e+00
    8.0898307800e+01   -6.3798298836e+00
    8.0998809814e+01   -6.4098000526e+00
    8.1097900391e+01   -6.4394397736e+00
    8.1198966980e+01   -6.4697599411e+00
    8.1298370361e+01   -6.4996600151e+00
    8.1398605347e+01   -6.5299100876e+00
    8.1499275208e+01   -6.5603699684e+00
    8.1598442078e+01   -6.5904598236e+00
    8.1699234009e+01   -6.6211400032e+00
    8.1798530579e+01   -6.6514601707e+00
    8.1897857666e+01   -6.6818900108e+00
    8.1999053955e+01   -6.7130098343e+00
    8.2098083496e+01   -6.7435798645e+00
    8.2198829651e+01   -6.7747898102e+00
    8.2297943115e+01   -6.8056201935e+00
    8.2398750305e+01   -6.8370900154e+00
    8.2497940063e+01   -6.8681697845e+00
    8.2599136353e+01   -6.8999900818e+00
    8.2698791504e+01   -6.9314298630e+00
    8.2798385620e+01   -6.9629597664e+00
    8.2897949219e+01   -6.9946098328e+00
    8.2999046326e+01   -7.0268602371e+00
    8.3098541260e+01   -7.0587301254e+00
    8.3199142456e+01   -7.0910801888e+00
    8.3298110962e+01   -7.1230201721e+00
    8.3398666382e+01   -7.1556000710e+00
    8.3499122620e+01   -7.1882700920e+00
    8.3597854614e+01   -7.2204699516e+00
    8.3698188782e+01   -7.2533102036e+00
    8.3798522949e+01   -7.2862401009e+00
    8.3897804260e+01   -7.3189301491e+00
    8.3998382568e+01   -7.3521399498e+00
    8.4098884583e+01   -7.3854398727e+00
    8.4197814941e+01   -7.4183101654e+00
    8.4298294067e+01   -7.4517998695e+00
    8.4397979736e+01   -7.4851298332e+00
    8.4498130798e+01   -7.5187001228e+00
    8.4598312378e+01   -7.5523800850e+00
    8.4698509216e+01   -7.5861601830e+00
    8.4798606873e+01   -7.6199898720e+00
    8.4899253845e+01   -7.6540899277e+00
    8.4998344421e+01   -7.6877598763e+00
    8.5099014282e+01   -7.7220702171e+00
    8.5198188782e+01   -7.7559700012e+00
    8.5299186707e+01   -7.7906198502e+00
    8.5397994995e+01   -7.8246297836e+00
    8.5498504639e+01   -7.8593502045e+00
    8.5599098206e+01   -7.8942098618e+00
    8.5698104858e+01   -7.9286398888e+00
    8.5797729492e+01   -7.9633898735e+00
    8.5898422241e+01   -7.9986200333e+00
    8.5999107361e+01   -8.0339698792e+00
    8.6099044800e+01   -8.0691604614e+00
    8.6198532104e+01   -8.1042995453e+00
    8.6297996521e+01   -8.1395702362e+00
    8.6399009705e+01   -8.1755199432e+00
    8.6498611450e+01   -8.2111101151e+00
    8.6597625732e+01   -8.2466096878e+00
    8.6698287964e+01   -8.2828502655e+00
    8.6798950195e+01   -8.3191995621e+00
    8.6897956848e+01   -8.3550796509e+00
    8.6998817444e+01   -8.3917198181e+00
    8.7098220825e+01   -8.4279403687e+00
    8.7198150635e+01   -8.4644403458e+00
    8.7299079895e+01   -8.5014095306e+00
    8.7398658752e+01   -8.5379896164e+00
    8.7498130798e+01   -8.5746402740e+00
    8.7598899841e+01   -8.6118698120e+00
    8.7698127747e+01   -8.6486597061e+00
    8.7798904419e+01   -8.6861295700e+00
    8.7898139954e+01   -8.7231302261e+00
    8.7998779297e+01   -8.7607498169e+00
    8.8097587585e+01   -8.7977695465e+00
    8.8198059082e+01   -8.8354997635e+00
    8.8298675537e+01   -8.8733701706e+00
    8.8397895813e+01   -8.9107999802e+00
    8.8498611450e+01   -8.9488897324e+00
    8.8597763062e+01   -8.9864797592e+00
    8.8698501587e+01   -9.0247898102e+00
    8.8797897339e+01   -9.0627002716e+00
    8.8898391724e+01   -9.1011400223e+00
    8.8998924255e+01   -9.1396903992e+00
    8.9097831726e+01   -9.1777200699e+00
    8.9198394775e+01   -9.2164802551e+00
    8.9298904419e+01   -9.2552995682e+00
    8.9397712708e+01   -9.2935400009e+00
    8.9497779846e+01   -9.3323402405e+00
    8.9598510742e+01   -9.3714799881e+00
    8.9697662354e+01   -9.4101104736e+00
    8.9799003601e+01   -9.4496698380e+00
    8.9897674561e+01   -9.4882898331e+00
    8.9997970581e+01   -9.5276498795e+00
    9.0098243713e+01   -9.5670795441e+00
    9.0198501587e+01   -9.6065998077e+00
    9.0298751831e+01   -9.6462001801e+00
    9.0397926331e+01   -9.6854400635e+00
    9.0498855591e+01   -9.7254495621e+00
    9.0598960876e+01   -9.7651996613e+00
    9.0699050903e+01   -9.8050298691e+00
    9.0799163818e+01   -9.8449401855e+00
    9.0898490906e+01   -9.8846302032e+00
    9.0999046326e+01   -9.9249095917e+00
    9.1099060059e+01   -9.9650697708e+00
    9.1198524475e+01   -1.0005100250e+01
    9.1297676086e+01   -1.0045100212e+01
    9.1398414612e+01   -1.0085800171e+01
    9.1499061584e+01   -1.0126600266e+01
    9.1598091125e+01   -1.0166899681e+01
    9.1698982239e+01   -1.0207900047e+01
    9.1798377991e+01   -1.0248499870e+01
    9.1897811890e+01   -1.0289199829e+01
    9.1998817444e+01   -1.0330699921e+01
    9.2097976685e+01   -1.0371500015e+01
    9.2198867798e+01   -1.0413200378e+01
    9.2298149109e+01   -1.0454400063e+01
    9.2399131775e+01   -1.0496299744e+01
    9.2498512268e+01   -1.0537799835e+01
    9.2597877502e+01   -1.0579299927e+01
    9.2697708130e+01   -1.0621199608e+01
    9.2799026489e+01   -1.0663800240e+01
    9.2898323059e+01   -1.0705599785e+01
    9.2998008728e+01   -1.0747799873e+01
    9.3097648621e+01   -1.0790100098e+01
    9.3198387146e+01   -1.0833000183e+01
    9.3297500610e+01   -1.0875300407e+01
    9.3398200989e+01   -1.0918399811e+01
    9.3498794556e+01   -1.0961600304e+01
    9.3597633362e+01   -1.1004199982e+01
    9.3698081970e+01   -1.1047599792e+01
    9.3798515320e+01   -1.1091099739e+01
    9.3898735046e+01   -1.1134599686e+01
    9.3997825623e+01   -1.1177700043e+01
    9.4098381042e+01   -1.1221599579e+01
    9.4198898315e+01   -1.1265500069e+01
    9.4297859192e+01   -1.1308899879e+01
    9.4398071289e+01   -1.1352899551e+01
    9.4498252869e+01   -1.1397100449e+01
    9.4598472595e+01   -1.1441300392e+01
    9.4698722839e+01   -1.1485600471e+01
    9.4798881531e+01   -1.1530099869e+01
    9.4898048401e+01   -1.1574099541e+01
    9.4998756409e+01   -1.1618900299e+01
    9.5097946167e+01   -1.1663200378e+01
    9.5198738098e+01   -1.1708299637e+01
    9.5297683716e+01   -1.1752699852e+01
    9.5398208618e+01   -1.1797900200e+01
    9.5498626709e+01   -1.1843199730e+01
    9.5598861694e+01   -1.1888600349e+01
    9.5697959900e+01   -1.1933500290e+01
    9.5798217773e+01   -1.1979100227e+01
    9.5899002075e+01   -1.2025099754e+01
    9.5998146057e+01   -1.2070400238e+01
    9.6098182678e+01   -1.2116299629e+01
    9.6197776794e+01   -1.2161999702e+01
    9.6298912048e+01   -1.2208600044e+01
    9.6398475647e+01   -1.2254699707e+01
    9.6498977661e+01   -1.2301300049e+01
    9.6598091125e+01   -1.2347399712e+01
    9.6698844910e+01   -1.2394399643e+01
    9.6797950745e+01   -1.2440699577e+01
    9.6898712158e+01   -1.2487999916e+01
    9.6998214722e+01   -1.2534799576e+01
    9.7097724915e+01   -1.2581700325e+01
    9.7198402405e+01   -1.2629199982e+01
    9.7298225403e+01   -1.2676400185e+01
    9.7398559570e+01   -1.2723999977e+01
    9.7497909546e+01   -1.2771200180e+01
    9.7598747253e+01   -1.2819299698e+01
    9.7698051453e+01   -1.2866700172e+01
    9.7798912048e+01   -1.2914999962e+01
    9.7898231506e+01   -1.2962699890e+01
    9.7998313904e+01   -1.3010899544e+01
    9.8098892212e+01   -1.3059399605e+01
    9.8197853088e+01   -1.3107199669e+01
    9.8298690796e+01   -1.3155900002e+01
    9.8398025513e+01   -1.3204099655e+01
    9.8498847961e+01   -1.3253100395e+01
    9.8598106384e+01   -1.3301400185e+01
    9.8698974609e+01   -1.3350600243e+01
    9.8797836304e+01   -1.3399000168e+01
    9.8898475647e+01   -1.3448300362e+01
    9.8997512817e+01   -1.3496999741e+01
    9.9098251343e+01   -1.3546600342e+01
    9.9199012756e+01   -1.3596400261e+01
    9.9297470093e+01   -1.3645099640e+01
    9.9398101807e+01   -1.3694899559e+01
    9.9497741699e+01   -1.3744400024e+01
    9.9598617554e+01   -1.3794500351e+01
    9.9697898865e+01   -1.3843999863e+01
    9.9797409058e+01   -1.3893600464e+01
    9.9897827148e+01   -1.3943799973e+01
    9.9998229980e+01   -1.3994199753e+01
    1.0009860229e+02   -1.4044599533e+01
    1.0019895935e+02   -1.4095100403e+01
    1.0029766846e+02   -1.4144900322e+01
    1.0039761353e+02   -1.4195300102e+01
    1.0049803925e+02   -1.4246100426e+01
    1.0059819031e+02   -1.4296799660e+01
    1.0069831848e+02   -1.4347599983e+01
    1.0079846191e+02   -1.4398500443e+01
    1.0089839935e+02   -1.4449299812e+01
    1.0099899292e+02   -1.4500599861e+01
    1.0109806824e+02   -1.4551300049e+01
    1.0119821167e+02   -1.4602600098e+01
    1.0129826355e+02   -1.4653900146e+01
    1.0139749908e+02   -1.4704899788e+01
    1.0149790192e+02   -1.4756600380e+01
    1.0159793091e+02   -1.4808300018e+01
    1.0169889832e+02   -1.4860500336e+01
    1.0179837036e+02   -1.4911999702e+01
    1.0189788818e+02   -1.4963700294e+01
    1.0199812317e+02   -1.5015899658e+01
    1.0209883881e+02   -1.5068400383e+01
    1.0219863129e+02   -1.5120599747e+01
    1.0229736328e+02   -1.5172400475e+01
    1.0239849091e+02   -1.5225600243e+01
    1.0249801636e+02   -1.5278100014e+01
    1.0259841919e+02   -1.5331100464e+01
    1.0269841003e+02   -1.5384099960e+01
    1.0279743195e+02   -1.5436599731e+01
    1.0289849854e+02   -1.5490400314e+01
    1.0299900055e+02   -1.5543999672e+01
    1.0309874725e+02   -1.5597399712e+01
    1.0319805145e+02   -1.5650600433e+01
    1.0329891968e+02   -1.5704799652e+01
    1.0339807892e+02   -1.5758299828e+01
    1.0349875641e+02   -1.5812700272e+01
    1.0359767914e+02   -1.5866299629e+01
    1.0369821167e+02   -1.5920800209e+01
    1.0379872131e+02   -1.5975500107e+01
    1.0389772797e+02   -1.6029399872e+01
    1.0399839783e+02   -1.6084400177e+01
    1.0409898376e+02   -1.6139400482e+01
    1.0419795990e+02   -1.6193700790e+01
    1.0429847717e+02   -1.6248899460e+01
    1.0439781952e+02   -1.6303600311e+01
    1.0449800873e+02   -1.6358900070e+01
    1.0459824371e+02   -1.6414300919e+01
    1.0469851685e+02   -1.6469800949e+01
    1.0479872131e+02   -1.6525400162e+01
    1.0489794922e+02   -1.6580600739e+01
    1.0499871826e+02   -1.6636699677e+01
    1.0509796143e+02   -1.6692100525e+01
    1.0519880676e+02   -1.6748500824e+01
    1.0529811096e+02   -1.6804100037e+01
    1.0539871216e+02   -1.6860599518e+01
    1.0549797058e+02   -1.6916500092e+01
    1.0559771729e+02   -1.6972799301e+01
    1.0569760895e+02   -1.7029300690e+01
    1.0579885864e+02   -1.7086799622e+01
    1.0589743042e+02   -1.7142799377e+01
    1.0599835205e+02   -1.7200300217e+01
    1.0609763336e+02   -1.7256900787e+01
    1.0619763947e+02   -1.7314100266e+01
    1.0629888916e+02   -1.7372200012e+01
    1.0639858246e+02   -1.7429500580e+01
    1.0649806213e+02   -1.7486900330e+01
    1.0659837341e+02   -1.7544900894e+01
    1.0669835663e+02   -1.7602800369e+01
    1.0679754639e+02   -1.7660499573e+01
    1.0689842224e+02   -1.7719200134e+01
    1.0699841309e+02   -1.7777599335e+01
    1.0709803009e+02   -1.7835800171e+01
    1.0719848633e+02   -1.7894599915e+01
    1.0729750824e+02   -1.7952699661e+01
    1.0739810944e+02   -1.8011899948e+01
    1.0749771118e+02   -1.8070499420e+01
    1.0759860229e+02   -1.8130100250e+01
    1.0769795227e+02   -1.8188899994e+01
    1.0779885864e+02   -1.8248699188e+01
    1.0789824677e+02   -1.8307800293e+01
    1.0799849701e+02   -1.8367500305e+01
    1.0809751892e+02   -1.8426500320e+01
    1.0819824219e+02   -1.8486600876e+01
    1.0829821777e+02   -1.8546400070e+01
    1.0839765930e+02   -1.8606000900e+01
    1.0849858093e+02   -1.8666599274e+01
    1.0859793854e+02   -1.8726299286e+01
    1.0869889832e+02   -1.8787200928e+01
    1.0879839325e+02   -1.8847299576e+01
    1.0889752197e+02   -1.8907300949e+01
    1.0899835205e+02   -1.8968399048e+01
    1.0909757996e+02   -1.9028699875e+01
    1.0919790649e+02   -1.9089799881e+01
    1.0929759979e+02   -1.9150600433e+01
    1.0939836884e+02   -1.9212099075e+01
    1.0949816895e+02   -1.9273199081e+01
    1.0959761810e+02   -1.9334100723e+01
    1.0969857025e+02   -1.9396099091e+01
    1.0979839325e+02   -1.9457399368e+01
    1.0989724731e+02   -1.9518299103e+01
    1.0999772644e+02   -1.9580299377e+01
    1.1009816742e+02   -1.9642400742e+01
    1.1019860840e+02   -1.9704599380e+01
    1.1029739380e+02   -1.9765899658e+01
    1.1039779663e+02   -1.9828300476e+01
    1.1049887085e+02   -1.9891099930e+01
    1.1059739685e+02   -1.9952499390e+01
    1.1069754028e+02   -2.0014999390e+01
    1.1079766846e+02   -2.0077499390e+01
    1.1089855957e+02   -2.0140600204e+01
    1.1099758911e+02   -2.0202699661e+01
    1.1109839630e+02   -2.0266000748e+01
    1.1119872284e+02   -2.0329099655e+01
    1.1129740143e+02   -2.0391300201e+01
    1.1139820862e+02   -2.0454900742e+01
    1.1149748993e+02   -2.0517700195e+01
    1.1159802246e+02   -2.0581300735e+01
    1.1169774628e+02   -2.0644599915e+01
    1.1179882812e+02   -2.0708799362e+01
    1.1189839172e+02   -2.0772199631e+01
    1.1199748993e+02   -2.0835399628e+01
    1.1209845734e+02   -2.0899900436e+01
    1.1219869995e+02   -2.0964099884e+01
    1.1229734802e+02   -2.1027500153e+01
    1.1239859009e+02   -2.1092599869e+01
    1.1249825287e+02   -2.1156799316e+01
    1.1259860229e+02   -2.1221700668e+01
    1.1269872284e+02   -2.1286500931e+01
    1.1279875183e+02   -2.1351299286e+01
    1.1289827728e+02   -2.1416000366e+01
    1.1299752045e+02   -2.1480600357e+01
    1.1309738159e+02   -2.1545799255e+01
    1.1319831848e+02   -2.1611799240e+01
    1.1329762268e+02   -2.1676900864e+01
    1.1339849854e+02   -2.1743200302e+01
    1.1349758911e+02   -2.1808399200e+01
    1.1359819794e+02   -2.1874799728e+01
    1.1369877625e+02   -2.1941299438e+01
    1.1379768372e+02   -2.2006799698e+01
    1.1389835358e+02   -2.2073499680e+01
    1.1399746704e+02   -2.2139400482e+01
    1.1409803772e+02   -2.2206300735e+01
    1.1419854736e+02   -2.2273399353e+01
    1.1429749298e+02   -2.2339500427e+01
    1.1439795685e+02   -2.2406700134e+01
    1.1449871063e+02   -2.2474300385e+01
    1.1459726715e+02   -2.2540500641e+01
    1.1469754028e+02   -2.2607999802e+01
    1.1479766083e+02   -2.2675500870e+01
    1.1489848328e+02   -2.2743600845e+01
    1.1499772644e+02   -2.2810699463e+01
    1.1509857178e+02   -2.2879100800e+01
    1.1519824982e+02   -2.2946800232e+01
    1.1529720306e+02   -2.3014099121e+01
    1.1539865875e+02   -2.3083299637e+01
    1.1549820709e+02   -2.3151399612e+01
    1.1559786224e+02   -2.3219600677e+01
    1.1569760895e+02   -2.3288099289e+01
    1.1579740906e+02   -2.3356800079e+01
    1.1589843750e+02   -2.3426399231e+01
    1.1599783325e+02   -2.3495100021e+01
    1.1609723663e+02   -2.3563899994e+01
    1.1619870758e+02   -2.3634300232e+01
    1.1629853821e+02   -2.3703699112e+01
    1.1639833832e+02   -2.3773300171e+01
    1.1649813843e+02   -2.3843000412e+01
    1.1659792328e+02   -2.3912900925e+01
    1.1669824219e+02   -2.3983299255e+01
    1.1679752350e+02   -2.4053199768e+01
    1.1689846802e+02   -2.4124399185e+01
    1.1699816895e+02   -2.4194799423e+01
    1.1709786987e+02   -2.4265399933e+01
    1.1719792175e+02   -2.4336299896e+01
    1.1729865265e+02   -2.4407800674e+01
    1.1739762878e+02   -2.4478200912e+01
    1.1749801636e+02   -2.4549699783e+01
    1.1759738922e+02   -2.4620700836e+01
    1.1769831085e+02   -2.4692899704e+01
    1.1779768372e+02   -2.4764099121e+01
    1.1789864349e+02   -2.4836599350e+01
    1.1799746704e+02   -2.4907699585e+01
    1.1809818268e+02   -2.4980199814e+01
    1.1819730377e+02   -2.5051799774e+01
    1.1829847717e+02   -2.5124900818e+01
    1.1839798737e+02   -2.5196899414e+01
    1.1849741364e+02   -2.5268999100e+01
    1.1859837341e+02   -2.5342300415e+01
    1.1869783783e+02   -2.5414600372e+01
    1.1879739380e+02   -2.5487199783e+01
    1.1889729309e+02   -2.5560100555e+01
    1.1899820709e+02   -2.5634000778e+01
    1.1909752655e+02   -2.5706800461e+01
    1.1919847870e+02   -2.5780899048e+01
    1.1929866028e+02   -2.5854600906e+01
    1.1939778137e+02   -2.5927600861e+01
    1.1949736786e+02   -2.6001100540e+01
    1.1959845734e+02   -2.6075700760e+01
    1.1969795227e+02   -2.6149299622e+01
    1.1979775238e+02   -2.6223300934e+01
    1.1989830780e+02   -2.6297899246e+01
    1.1999716187e+02   -2.6371400833e+01
    1.2009763336e+02   -2.6446300507e+01
    1.2019808960e+02   -2.6521200180e+01
    1.2029853821e+02   -2.6596300125e+01
    1.2039749146e+02   -2.6670400620e+01
    1.2049719238e+02   -2.6745100021e+01
    1.2059735870e+02   -2.6820199966e+01
    1.2069745636e+02   -2.6895399094e+01
    1.2079754639e+02   -2.6970699310e+01
    1.2089856720e+02   -2.7046800613e+01
    1.2099752045e+02   -2.7121400833e+01
    1.2109806824e+02   -2.7197399139e+01
    1.2119793701e+02   -2.7273099899e+01
    1.2129810333e+02   -2.7349000931e+01
    1.2139730835e+02   -2.7424400330e+01
    1.2149810791e+02   -2.7501100540e+01
    1.2159729004e+02   -2.7576599121e+01
    1.2169834900e+02   -2.7653699875e+01
    1.2179788208e+02   -2.7729799271e+01
    1.2189745331e+02   -2.7805999756e+01
    1.2199735260e+02   -2.7882600784e+01
    1.2209835052e+02   -2.7960100174e+01
    1.2219854736e+02   -2.8037300110e+01
    1.2229857635e+02   -2.8114400864e+01
    1.2239768219e+02   -2.8190999985e+01
    1.2249742126e+02   -2.8268199921e+01
    1.2259796906e+02   -2.8346200943e+01
    1.2269819641e+02   -2.8423999786e+01
    1.2279744720e+02   -2.8501199722e+01
    1.2289707184e+02   -2.8578899384e+01
    1.2299794006e+02   -2.8657699585e+01
    1.2309786224e+02   -2.8735799789e+01
    1.2319766998e+02   -2.8814100266e+01
    1.2329704285e+02   -2.8892099380e+01
    1.2339798737e+02   -2.8971599579e+01
    1.2349710846e+02   -2.9049699783e+01
    1.2359776306e+02   -2.9129199982e+01
    1.2369837952e+02   -2.9208900452e+01
    1.2379730225e+02   -2.9287300110e+01
    1.2389836121e+02   -2.9367599487e+01
    1.2399745178e+02   -2.9446399689e+01
    1.2409861755e+02   -2.9527000427e+01
    1.2419757080e+02   -2.9606000900e+01
    1.2429799652e+02   -2.9686300278e+01
    1.2439842224e+02   -2.9766700745e+01
    1.2449741364e+02   -2.9846200943e+01
    1.2459757996e+02   -2.9926700592e+01
    1.2469780731e+02   -3.0007400513e+01
    1.2479731750e+02   -3.0087699890e+01
    1.2489810944e+02   -3.0169200897e+01
    1.2499735260e+02   -3.0249500275e+01
    1.2509738159e+02   -3.0330699921e+01
    1.2519792175e+02   -3.0412399292e+01
    1.2529855347e+02   -3.0494300842e+01
    1.2539733124e+02   -3.0574899673e+01
    1.2549848175e+02   -3.0657600403e+01
    1.2559816742e+02   -3.0739299774e+01
    1.2569793701e+02   -3.0821199417e+01
    1.2579778290e+02   -3.0903400421e+01
    1.2589769745e+02   -3.0985799789e+01
    1.2599716949e+02   -3.1067899704e+01
    1.2609832001e+02   -3.1151699066e+01
    1.2619714355e+02   -3.1233600616e+01
    1.2629862213e+02   -3.1317899704e+01
    1.2639849854e+02   -3.1401100159e+01
    1.2649836731e+02   -3.1484500885e+01
    1.2659821320e+02   -3.1568000793e+01
    1.2669799805e+02   -3.1651699066e+01
    1.2679756165e+02   -3.1735300064e+01
    1.2689852905e+02   -3.1820299149e+01
    1.2699774933e+02   -3.1903999329e+01
    1.2709764862e+02   -3.1988399506e+01
    1.2719848633e+02   -3.2073699951e+01
    1.2729759216e+02   -3.2157699585e+01
    1.2739821625e+02   -3.2243099213e+01
    1.2749790192e+02   -3.2327800751e+01
    1.2759723663e+02   -3.2412399292e+01
    1.2769812012e+02   -3.2498401642e+01
    1.2779743195e+02   -3.2583301544e+01
    1.2789833832e+02   -3.2669700623e+01
    1.2799722290e+02   -3.2754501343e+01
    1.2809788513e+02   -3.2840900421e+01
    1.2819859314e+02   -3.2927501678e+01
    1.2829808044e+02   -3.3013198853e+01
    1.2839758301e+02   -3.3098999023e+01
    1.2849856567e+02   -3.3186199188e+01
    1.2859796143e+02   -3.3272201538e+01
    1.2869741821e+02   -3.3358299255e+01
    1.2879853821e+02   -3.3445999146e+01
    1.2889797974e+02   -3.3532501221e+01
    1.2899728394e+02   -3.3618999481e+01
    1.2909791565e+02   -3.3706699371e+01
    1.2919775391e+02   -3.3793998718e+01
    1.2929753113e+02   -3.3881301880e+01
    1.2939721680e+02   -3.3968601227e+01
    1.2949838257e+02   -3.4057300568e+01
    1.2959838867e+02   -3.4145198822e+01
    1.2969790649e+02   -3.4232700348e+01
    1.2979780579e+02   -3.4320800781e+01
    1.2989839172e+02   -3.4409500122e+01
    1.2999765015e+02   -3.4497200012e+01
    1.3009811401e+02   -3.4586200714e+01
    1.3019854736e+02   -3.4675300598e+01
    1.3029731750e+02   -3.4763000488e+01
    1.3039796448e+02   -3.4852500916e+01
    1.3049731445e+02   -3.4941001892e+01
    1.3059744263e+02   -3.5030200958e+01
    1.3069747925e+02   -3.5119499207e+01
    1.3079747009e+02   -3.5208900452e+01
    1.3089741516e+02   -3.5298400879e+01
    1.3099781799e+02   -3.5388401031e+01
    1.3109826660e+02   -3.5478599548e+01
    1.3119873047e+02   -3.5568901062e+01
    1.3129742432e+02   -3.5657798767e+01
    1.3139808655e+02   -3.5748600006e+01
    1.3149879456e+02   -3.5839599609e+01
    1.3159805298e+02   -3.5929401398e+01
    1.3169767761e+02   -3.6019699097e+01
    1.3179754639e+02   -3.6110298157e+01
    1.3189866638e+02   -3.6202201843e+01
    1.3199757385e+02   -3.6292198181e+01
    1.3209857178e+02   -3.6384201050e+01
    1.3219819641e+02   -3.6475200653e+01
    1.3229826355e+02   -3.6566699982e+01
    1.3239842224e+02   -3.6658500671e+01
    1.3249851990e+02   -3.6750400543e+01
    1.3259863281e+02   -3.6842399597e+01
    1.3269755554e+02   -3.6933498383e+01
    1.3279733276e+02   -3.7025501251e+01
    1.3289866638e+02   -3.7119098663e+01
    1.3299803162e+02   -3.7210998535e+01
    1.3309800720e+02   -3.7303699493e+01
    1.3319775391e+02   -3.7396198273e+01
    1.3329884338e+02   -3.7490200043e+01
    1.3339854431e+02   -3.7583099365e+01
    1.3349763489e+02   -3.7675598145e+01
    1.3359831238e+02   -3.7769699097e+01
    1.3369894409e+02   -3.7863899231e+01
    1.3379786682e+02   -3.7956699371e+01
    1.3389753723e+02   -3.8050300598e+01
    1.3399858093e+02   -3.8145401001e+01
    1.3409869385e+02   -3.8239799500e+01
    1.3419778442e+02   -3.8333301544e+01
    1.3429815674e+02   -3.8428199768e+01
    1.3439851379e+02   -3.8523300171e+01
    1.3449812317e+02   -3.8617801666e+01
    1.3459820557e+02   -3.8713001251e+01
    1.3469836426e+02   -3.8808300018e+01
    1.3479844666e+02   -3.8903800964e+01
    1.3489758301e+02   -3.8998600006e+01
    1.3499827576e+02   -3.9095001221e+01
    1.3509764099e+02   -3.9190299988e+01
    1.3519810486e+02   -3.9286800385e+01
    1.3529867554e+02   -3.9383598328e+01
    1.3539773560e+02   -3.9479099274e+01
    1.3549792480e+02   -3.9575901031e+01
    1.3559759521e+02   -3.9672401428e+01
    1.3569888306e+02   -3.9770698547e+01
    1.3579867554e+02   -3.9867698669e+01
    1.3589772034e+02   -3.9964199066e+01
    1.3599885559e+02   -4.0062900543e+01
    1.3609834290e+02   -4.0160099030e+01
    1.3619784546e+02   -4.0257598877e+01
    1.3629899597e+02   -4.0356800079e+01
    1.3639845276e+02   -4.0454498291e+01
    1.3649876404e+02   -4.0553298950e+01
    1.3659858704e+02   -4.0651798248e+01
    1.3669839478e+02   -4.0750400543e+01
    1.3679815674e+02   -4.0849201202e+01
    1.3689805603e+02   -4.0948398590e+01
    1.3699896240e+02   -4.1048599243e+01
    1.3709815979e+02   -4.1147300720e+01
    1.3719894409e+02   -4.1247798920e+01
    1.3729797363e+02   -4.1346599579e+01
    1.3739852905e+02   -4.1447101593e+01
    1.3749896240e+02   -4.1547599792e+01
    1.3759906006e+02   -4.1647899628e+01
    1.3769827271e+02   -4.1747501373e+01
    1.3779899597e+02   -4.1848800659e+01
    1.3789823914e+02   -4.1948699951e+01
    1.3799818420e+02   -4.2049499512e+01
    1.3809872437e+02   -4.2151000977e+01
    1.3819766235e+02   -4.2250999451e+01
    1.3829826355e+02   -4.2352901459e+01
    1.3839894104e+02   -4.2454898834e+01
    1.3849832153e+02   -4.2555801392e+01
    1.3859922791e+02   -4.2658298492e+01
    1.3869865417e+02   -4.2759399414e+01
    1.3879818726e+02   -4.2860801697e+01
    1.3889869690e+02   -4.2963401794e+01
    1.3899798584e+02   -4.3064899445e+01
    1.3909805298e+02   -4.3167301178e+01
    1.3919790649e+02   -4.3269599915e+01
    1.3929922485e+02   -4.3373600006e+01
    1.3939889526e+02   -4.3476100922e+01
    1.3949848938e+02   -4.3578498840e+01
    1.3959921265e+02   -4.3682300568e+01
    1.3969900513e+02   -4.3785198212e+01
    1.3979888916e+02   -4.3888401031e+01
    1.3989784241e+02   -4.3990699768e+01
    1.3999880981e+02   -4.4095298767e+01
    1.4009895325e+02   -4.4199199677e+01
    1.4019770813e+02   -4.4301700592e+01
    1.4029931641e+02   -4.4407501221e+01
    1.4039883423e+02   -4.4511199951e+01
    1.4049908447e+02   -4.4615699768e+01
    1.4059910583e+02   -4.4720199585e+01
    1.4069906616e+02   -4.4824699402e+01
    1.4079896545e+02   -4.4929298401e+01
    1.4089801025e+02   -4.5033199310e+01
    1.4099829102e+02   -4.5138500214e+01
    1.4109863281e+02   -4.5243999481e+01
    1.4119902039e+02   -4.5349700928e+01
    1.4129789734e+02   -4.5453998566e+01
    1.4139840698e+02   -4.5560100555e+01
    1.4149897766e+02   -4.5666500092e+01
    1.4159809875e+02   -4.5771499634e+01
    1.4169807434e+02   -4.5877601624e+01
    1.4179895020e+02   -4.5984699249e+01
    1.4189811707e+02   -4.6090198517e+01
    1.4199890137e+02   -4.6197498322e+01
    1.4209819031e+02   -4.6303398132e+01
    1.4219903564e+02   -4.6411098480e+01
    1.4229911804e+02   -4.6518199921e+01
    1.4239929199e+02   -4.6625499725e+01
    1.4249798584e+02   -4.6731399536e+01
    1.4259878540e+02   -4.6839698792e+01
    1.4269871521e+02   -4.6947200775e+01
    1.4279849243e+02   -4.7054698944e+01
    1.4289849854e+02   -4.7162601471e+01
    1.4299856567e+02   -4.7270698547e+01
    1.4309939575e+02   -4.7379699707e+01
    1.4319888306e+02   -4.7487499237e+01
    1.4329837036e+02   -4.7595401764e+01
    1.4339881897e+02   -4.7704498291e+01
    1.4349829102e+02   -4.7812698364e+01
    1.4359901428e+02   -4.7922500610e+01
    1.4369804382e+02   -4.8030601501e+01
    1.4379948425e+02   -4.8141498566e+01
    1.4389863586e+02   -4.8250000000e+01
    1.4399841309e+02   -4.8359401703e+01
    1.4409846497e+02   -4.8469299316e+01
    1.4419880676e+02   -4.8579601288e+01
    1.4429913330e+02   -4.8690101624e+01
    1.4439941406e+02   -4.8800701141e+01
    1.4449818420e+02   -4.8909801483e+01
    1.4459843445e+02   -4.9020698547e+01
    1.4469845581e+02   -4.9131599426e+01
    1.4479898071e+02   -4.9243198395e+01
    1.4489952087e+02   -4.9354999542e+01
    1.4499850464e+02   -4.9465301514e+01
    1.4509913635e+02   -4.9577598572e+01
    1.4519943237e+02   -4.9689601898e+01
    1.4529823303e+02   -4.9800201416e+01
    1.4539884949e+02   -4.9912998199e+01
    1.4549905396e+02   -5.0025600433e+01
    1.4559866333e+02   -5.0137599945e+01
    1.4569827271e+02   -5.0249801636e+01
    1.4579949951e+02   -5.0364101410e+01
    1.4589967346e+02   -5.0477401733e+01
    1.4599902344e+02   -5.0589900970e+01
    1.4609843445e+02   -5.0702598572e+01
    1.4619949341e+02   -5.0817401886e+01
    1.4629890442e+02   -5.0930500031e+01
    1.4639828491e+02   -5.1043701172e+01
    1.4649859619e+02   -5.1158100128e+01
    1.4659832764e+02   -5.1271999359e+01
    1.4669960022e+02   -5.1387901306e+01
    1.4679930115e+02   -5.1502201080e+01
    1.4689895630e+02   -5.1616600037e+01
    1.4699862671e+02   -5.1731098175e+01
    1.4709931946e+02   -5.1847000122e+01
    1.4719830322e+02   -5.1960998535e+01
    1.4729884338e+02   -5.2076900482e+01
    1.4739921570e+02   -5.2192798615e+01
    1.4749946594e+02   -5.2308700562e+01
    1.4759971619e+02   -5.2424701691e+01
    1.4769874573e+02   -5.2539398193e+01
    1.4779931641e+02   -5.2656101227e+01
    1.4789837646e+02   -5.2771099091e+01
    1.4799914551e+02   -5.2888301849e+01
    1.4809881592e+02   -5.3004398346e+01
    1.4819937134e+02   -5.3121601105e+01
    1.4829978943e+02   -5.3238700867e+01
    1.4839930725e+02   -5.3354999542e+01
    1.4849859619e+02   -5.3471099854e+01
    1.4859945679e+02   -5.3589099884e+01
    1.4869882202e+02   -5.3705501556e+01
    1.4879832458e+02   -5.3822200775e+01
    1.4889836121e+02   -5.3939601898e+01
    1.4899934387e+02   -5.4058300018e+01
    1.4909965515e+02   -5.4176399231e+01
    1.4919953918e+02   -5.4294101715e+01
    1.4929936218e+02   -5.4411800385e+01
    1.4939907837e+02   -5.4529598236e+01
    1.4949867249e+02   -5.4647300720e+01
    1.4959951782e+02   -5.4766601562e+01
    1.4969857788e+02   -5.4883998871e+01
    1.4979928589e+02   -5.5003398895e+01
    1.4989831543e+02   -5.5120899200e+01
    1.4999844360e+02   -5.5239898682e+01
    1.5009982300e+02   -5.5360599518e+01
    1.5019857788e+02   -5.5478199005e+01
    1.5029881287e+02   -5.5597801208e+01
    1.5039935303e+02   -5.5717899323e+01
    1.5049972534e+02   -5.5838001251e+01
    1.5059971619e+02   -5.5957698822e+01
    1.5069960022e+02   -5.6077499390e+01
    1.5079942322e+02   -5.6197299957e+01
    1.5089970398e+02   -5.6317798615e+01
    1.5099987793e+02   -5.6438400269e+01
    1.5109855652e+02   -5.6557300568e+01
    1.5119882202e+02   -5.6678199768e+01
    1.5129908752e+02   -5.6799400330e+01
    1.5139938354e+02   -5.6920700073e+01
    1.5149975586e+02   -5.7042301178e+01
    1.5159864807e+02   -5.7162300110e+01
    1.5169856262e+02   -5.7283699036e+01
    1.5179890442e+02   -5.7405700684e+01
    1.5189938354e+02   -5.7527999878e+01
    1.5200001526e+02   -5.7650699615e+01
    1.5209915161e+02   -5.7771701813e+01
    1.5219969177e+02   -5.7894500732e+01
    1.5229971313e+02   -5.8016799927e+01
    1.5239985657e+02   -5.8139499664e+01
    1.5249853516e+02   -5.8260398865e+01
    1.5259881592e+02   -5.8383499146e+01
    1.5269865417e+02   -5.8506198883e+01
    1.5280007935e+02   -5.8630901337e+01
    1.5289971924e+02   -5.8753601074e+01
    1.5299972534e+02   -5.8876800537e+01
    1.5309895325e+02   -5.8999298096e+01
    1.5320008850e+02   -5.9124099731e+01
    1.5329959106e+02   -5.9247100830e+01
    1.5339892578e+02   -5.9369998932e+01
    1.5349899292e+02   -5.9493999481e+01
    1.5359980774e+02   -5.9618999481e+01
    1.5369886780e+02   -5.9742000580e+01
    1.5379875183e+02   -5.9866199493e+01
    1.5389941406e+02   -5.9991500854e+01
    1.5399943542e+02   -6.0116199493e+01
    1.5409939575e+02   -6.0240898132e+01
    1.5419932556e+02   -6.0365699768e+01
    1.5429899597e+02   -6.0490398407e+01
    1.5439924622e+02   -6.0615898132e+01
    1.5449951172e+02   -6.0741600037e+01
    1.5459892273e+02   -6.0866401672e+01
    1.5469885254e+02   -6.0992099762e+01
    1.5479905701e+02   -6.1118301392e+01
    1.5489941406e+02   -6.1244800568e+01
    1.5499975586e+02   -6.1371498108e+01
    1.5510020447e+02   -6.1498401642e+01
    1.5519865417e+02   -6.1623001099e+01
    1.5529893494e+02   -6.1750099182e+01
    1.5539941406e+02   -6.1877601624e+01
    1.5549934387e+02   -6.2004600525e+01
    1.5559884644e+02   -6.2131099701e+01
    1.5569993591e+02   -6.2259899139e+01
    1.5579946899e+02   -6.2386798859e+01
    1.5589881897e+02   -6.2513698578e+01
    1.5599964905e+02   -6.2642601013e+01
    1.5609889221e+02   -6.2769599915e+01
    1.5619984436e+02   -6.2898899078e+01
    1.5629914856e+02   -6.3026298523e+01
    1.5640005493e+02   -6.3155899048e+01
    1.5649925232e+02   -6.3283298492e+01
    1.5659895325e+02   -6.3411598206e+01
    1.5670010376e+02   -6.3541900635e+01
    1.5679968262e+02   -6.3670299530e+01
    1.5689921570e+02   -6.3798698425e+01
    1.5700018311e+02   -6.3929100037e+01
    1.5710003662e+02   -6.4058197021e+01
    1.5719883728e+02   -6.4186096191e+01
    1.5729916382e+02   -6.4316001892e+01
    1.5739930725e+02   -6.4445800781e+01
    1.5749929810e+02   -6.4575500488e+01
    1.5760023499e+02   -6.4706596375e+01
    1.5769902039e+02   -6.4834999084e+01
    1.5779937744e+02   -6.4965499878e+01
    1.5789981079e+02   -6.5096298218e+01
    1.5800036621e+02   -6.5227401733e+01
    1.5809999084e+02   -6.5357299805e+01
    1.5820010376e+02   -6.5488098145e+01
    1.5830035400e+02   -6.5619102478e+01
    1.5839970398e+02   -6.5749000549e+01
    1.5850039673e+02   -6.5880798340e+01
    1.5859959412e+02   -6.6010696411e+01
    1.5869894409e+02   -6.6140899658e+01
    1.5880001831e+02   -6.6273498535e+01
    1.5889973450e+02   -6.6404403687e+01
    1.5900045776e+02   -6.6536796570e+01
    1.5910038757e+02   -6.6668197632e+01
    1.5920033264e+02   -6.6799697876e+01
    1.5930026245e+02   -6.6931297302e+01
    1.5940013123e+02   -6.7063003540e+01
    1.5949986267e+02   -6.7194503784e+01
    1.5959992981e+02   -6.7326599121e+01
    1.5970042419e+02   -6.7459297180e+01
    1.5979937744e+02   -6.7590103149e+01
    1.5989991760e+02   -6.7723098755e+01
    1.5999955750e+02   -6.7855003357e+01
    1.6009945679e+02   -6.7987396240e+01
    1.6019999695e+02   -6.8120697021e+01
    1.6029956055e+02   -6.8252899170e+01
    1.6040017700e+02   -6.8386703491e+01
    1.6049943542e+02   -6.8518699646e+01
    1.6059945679e+02   -6.8651802063e+01
    1.6069937134e+02   -6.8785003662e+01
    1.6079919434e+02   -6.8918197632e+01
    1.6090058899e+02   -6.9053596497e+01
    1.6100035095e+02   -6.9186996460e+01
    1.6110008240e+02   -6.9320503235e+01
    1.6120022583e+02   -6.9454696655e+01
    1.6130033875e+02   -6.9588996887e+01
    1.6140045166e+02   -6.9723396301e+01
    1.6150056458e+02   -6.9858001709e+01
    1.6159919739e+02   -6.9990699768e+01
    1.6170042419e+02   -7.0127098083e+01
    1.6180044556e+02   -7.0262001038e+01
    1.6189970398e+02   -7.0396003723e+01
    1.6200039673e+02   -7.0531997681e+01
    1.6210055542e+02   -7.0667396545e+01
    1.6219932556e+02   -7.0801101685e+01
    1.6229995728e+02   -7.0937400818e+01
    1.6239994812e+02   -7.1072998047e+01
    1.6250006104e+02   -7.1208702087e+01
    1.6260025024e+02   -7.1344703674e+01
    1.6269911194e+02   -7.1478996277e+01
    1.6280029297e+02   -7.1616500854e+01
    1.6289912415e+02   -7.1750900269e+01
    1.6299943542e+02   -7.1887298584e+01
    1.6309927368e+02   -7.2023200989e+01
    1.6319975281e+02   -7.2160102844e+01
    1.6329919434e+02   -7.2295600891e+01
    1.6339987183e+02   -7.2432899475e+01
    1.6349919128e+02   -7.2568397522e+01
    1.6359997559e+02   -7.2706001282e+01
    1.6370071411e+02   -7.2843597412e+01
    1.6379924011e+02   -7.2978302002e+01
    1.6389988708e+02   -7.3115997314e+01
    1.6400065613e+02   -7.3253997803e+01
    1.6410057068e+02   -7.3390899658e+01
    1.6420045471e+02   -7.3527801514e+01
    1.6430012512e+02   -7.3664596558e+01
    1.6440036011e+02   -7.3802398682e+01
    1.6450061035e+02   -7.3940200806e+01
    1.6459930420e+02   -7.4076103210e+01
    1.6469955444e+02   -7.4214202881e+01
    1.6479981995e+02   -7.4352500916e+01
    1.6490008545e+02   -7.4490898132e+01
    1.6500030518e+02   -7.4629302979e+01
    1.6510040283e+02   -7.4767700195e+01
    1.6520027161e+02   -7.4905899048e+01
    1.6529980469e+02   -7.5043800354e+01
    1.6540028381e+02   -7.5183097839e+01
    1.6550033569e+02   -7.5321899414e+01
    1.6559982300e+02   -7.5460098267e+01
    1.6569937134e+02   -7.5598396301e+01
    1.6580049133e+02   -7.5738998413e+01
    1.6589985657e+02   -7.5877296448e+01
    1.6600065613e+02   -7.6017601013e+01
    1.6609982300e+02   -7.6155799866e+01
    1.6620069885e+02   -7.6296401978e+01
    1.6629995728e+02   -7.6434799194e+01
    1.6640005493e+02   -7.6574501038e+01
    1.6649963379e+02   -7.6713600159e+01
    1.6660075378e+02   -7.6854896545e+01
    1.6670031738e+02   -7.6994102478e+01
    1.6679986572e+02   -7.7133300781e+01
    1.6690097046e+02   -7.7274803162e+01
    1.6699986267e+02   -7.7413299561e+01
    1.6710029602e+02   -7.7554000854e+01
    1.6720060730e+02   -7.7694602966e+01
    1.6730075073e+02   -7.7835098267e+01
    1.6740069580e+02   -7.7975303650e+01
    1.6749989319e+02   -7.8114601135e+01
    1.6760052490e+02   -7.8255996704e+01
    1.6769973755e+02   -7.8395599365e+01
    1.6779985046e+02   -7.8536399841e+01
    1.6790008545e+02   -7.8677597046e+01
    1.6800047302e+02   -7.8819099426e+01
    1.6810089111e+02   -7.8960700989e+01
    1.6819972229e+02   -7.9100196838e+01
    1.6829995728e+02   -7.9241699219e+01
    1.6840101624e+02   -7.9384498596e+01
    1.6849998474e+02   -7.9524299622e+01
    1.6859976196e+02   -7.9665496826e+01
    1.6870039368e+02   -7.9807899475e+01
    1.6879978943e+02   -7.9948600769e+01
    1.6890104675e+02   -8.0092002869e+01
    1.6900088501e+02   -8.0233596802e+01
    1.6909999084e+02   -8.0374099731e+01
    1.6919999695e+02   -8.0515899658e+01
    1.6930000305e+02   -8.0657798767e+01
    1.6939999390e+02   -8.0799697876e+01
    1.6949992371e+02   -8.0941596985e+01
    1.6960099792e+02   -8.1085098267e+01
    1.6970071411e+02   -8.1226699829e+01
    1.6979986572e+02   -8.1367599487e+01
    1.6990084839e+02   -8.1511100769e+01
    1.7000071716e+02   -8.1652999878e+01
    1.7010044861e+02   -8.1794898987e+01
    1.7020010376e+02   -8.1936698914e+01
    1.7030073547e+02   -8.2079902649e+01
    1.7039956665e+02   -8.2220596313e+01
    1.7050013733e+02   -8.2363899231e+01
    1.7060087585e+02   -8.2507499695e+01
    1.7070094299e+02   -8.2650199890e+01
    1.7080087280e+02   -8.2792800903e+01
    1.7089993286e+02   -8.2934303284e+01
    1.7100007629e+02   -8.3077400208e+01
    1.7110064697e+02   -8.3221199036e+01
    1.7120075989e+02   -8.3364501953e+01
    1.7130079651e+02   -8.3507698059e+01
    1.7140077209e+02   -8.3651100159e+01
    1.7150073242e+02   -8.3794502258e+01
    1.7160072327e+02   -8.3938003540e+01
    1.7170072937e+02   -8.4081596375e+01
    1.7179974365e+02   -8.4223899841e+01
    1.7190087891e+02   -8.4369300842e+01
    1.7200126648e+02   -8.4513702393e+01
    1.7210127258e+02   -8.4657699585e+01
    1.7220051575e+02   -8.4800598145e+01
    1.7230043030e+02   -8.4944602966e+01
    1.7240051270e+02   -8.5088798523e+01
    1.7250039673e+02   -8.5232803345e+01
    1.7260040283e+02   -8.5377098083e+01
    1.7270040894e+02   -8.5521301270e+01
    1.7280029297e+02   -8.5665397644e+01
    1.7290115356e+02   -8.5810897827e+01
    1.7300033569e+02   -8.5953903198e+01
    1.7310124207e+02   -8.6099502563e+01
    1.7320054626e+02   -8.6242698669e+01
    1.7329991150e+02   -8.6386100769e+01
    1.7340031433e+02   -8.6530899048e+01
    1.7350056458e+02   -8.6675598145e+01
    1.7360006714e+02   -8.6819297791e+01
    1.7370083618e+02   -8.6964797974e+01
    1.7380108643e+02   -8.7109497070e+01
    1.7390025330e+02   -8.7252799988e+01
    1.7399981689e+02   -8.7396598816e+01
    1.7410046387e+02   -8.7542098999e+01
    1.7420014954e+02   -8.7686203003e+01
    1.7430003357e+02   -8.7830703735e+01
    1.7440055847e+02   -8.7976303101e+01
    1.7450079346e+02   -8.8121498108e+01
    1.7460101318e+02   -8.8266700745e+01
    1.7470118713e+02   -8.8412002563e+01
    1.7480143738e+02   -8.8557502747e+01
    1.7490014648e+02   -8.8700798035e+01
    1.7500128174e+02   -8.8847702026e+01
    1.7510144043e+02   -8.8993202209e+01
    1.7520146179e+02   -8.9138603210e+01
    1.7530003357e+02   -8.9281997681e+01
    1.7540045166e+02   -8.9428100586e+01
    1.7550082397e+02   -8.9574203491e+01
    1.7560038757e+02   -8.9719100952e+01
    1.7570002747e+02   -8.9864303589e+01
    1.7580131531e+02   -9.0011802673e+01
    1.7590124512e+02   -9.0157402039e+01
    1.7600093079e+02   -9.0302696228e+01
    1.7610028076e+02   -9.0447502136e+01
    1.7620121765e+02   -9.0594497681e+01
    1.7630105591e+02   -9.0739997864e+01
    1.7640083313e+02   -9.0885398865e+01
    1.7650123596e+02   -9.1031700134e+01
    1.7660098267e+02   -9.1177001953e+01
    1.7670072937e+02   -9.1322402954e+01
    1.7680047607e+02   -9.1467697144e+01
    1.7690136719e+02   -9.1614799500e+01
    1.7700044250e+02   -9.1759201050e+01
    1.7710104370e+02   -9.1905899048e+01
    1.7720143127e+02   -9.2052200317e+01
    1.7729997253e+02   -9.2195899963e+01
    1.7740155029e+02   -9.2344100952e+01
    1.7750085449e+02   -9.2488899231e+01
    1.7760137939e+02   -9.2635597229e+01
    1.7770123291e+02   -9.2781402588e+01
    1.7780120850e+02   -9.2927497864e+01
    1.7790127563e+02   -9.3073699951e+01
    1.7800146484e+02   -9.3220199585e+01
    1.7810014343e+02   -9.3364601135e+01
    1.7820027161e+02   -9.3511199951e+01
    1.7830030823e+02   -9.3657699585e+01
    1.7840060425e+02   -9.3804603577e+01
    1.7850158691e+02   -9.3952598572e+01
    1.7860157776e+02   -9.4099098206e+01
    1.7870152283e+02   -9.4245597839e+01
    1.7880137634e+02   -9.4391998291e+01
    1.7890087891e+02   -9.4537902832e+01
    1.7900053406e+02   -9.4684196472e+01
    1.7910031128e+02   -9.4830596924e+01
    1.7920170593e+02   -9.4979301453e+01
    1.7930166626e+02   -9.5125999451e+01
    1.7940020752e+02   -9.5270599365e+01
    1.7950073242e+02   -9.5417999268e+01
    1.7960025024e+02   -9.5563903809e+01
    1.7970062256e+02   -9.5710998535e+01
    1.7980009460e+02   -9.5856697083e+01
    1.7990124512e+02   -9.6004898071e+01
    1.8000090027e+02   -9.6150802612e+01
    1.8010049438e+02   -9.6296600342e+01
    1.8020022583e+02   -9.6442596436e+01
    1.8030046082e+02   -9.6589401245e+01
    1.8040121460e+02   -9.6736801147e+01
    1.8050132751e+02   -9.6883300781e+01
    1.8060163879e+02   -9.7030097961e+01
    1.8070072937e+02   -9.7175102234e+01
    1.8080090332e+02   -9.7321701050e+01
    1.8090046692e+02   -9.7467300415e+01
    1.8100085449e+02   -9.7614303589e+01
    1.8110119629e+02   -9.7761199951e+01
    1.8120146179e+02   -9.7907997131e+01
    1.8130160522e+02   -9.8054702759e+01
    1.8140095520e+02   -9.8200302124e+01
    1.8150068665e+02   -9.8346496582e+01
    1.8160107422e+02   -9.8493797302e+01
    1.8170111084e+02   -9.8640502930e+01
    1.8180114746e+02   -9.8787200928e+01
    1.8190126038e+02   -9.8934097290e+01
    1.8200148010e+02   -9.9081100464e+01
    1.8210174561e+02   -9.9228202820e+01
    1.8220167542e+02   -9.9374900818e+01
    1.8230134583e+02   -9.9521202087e+01
    1.8240049744e+02   -9.9666603088e+01
    1.8250172424e+02   -9.9815200806e+01
    1.8260151672e+02   -9.9961700439e+01
    1.8270152283e+02   -1.0010800171e+02
    1.8280136108e+02   -1.0025499725e+02
    1.8290182495e+02   -1.0040200043e+02
    1.8300149536e+02   -1.0054799652e+02
    1.8310113525e+02   -1.0069400024e+02
    1.8320121765e+02   -1.0083999634e+02
    1.8330157471e+02   -1.0098699951e+02
    1.8340196228e+02   -1.0113400269e+02
    1.8350128174e+02   -1.0127899933e+02
    1.8360116577e+02   -1.0142500305e+02
    1.8370196533e+02   -1.0157299805e+02
    1.8380137634e+02   -1.0171800232e+02
    1.8390177917e+02   -1.0186499786e+02
    1.8400068665e+02   -1.0200900269e+02
    1.8410122681e+02   -1.0215599823e+02
    1.8420080566e+02   -1.0230100250e+02
    1.8430105591e+02   -1.0244799805e+02
    1.8440133667e+02   -1.0259400177e+02
    1.8450158691e+02   -1.0274099731e+02
    1.8460154724e+02   -1.0288700104e+02
    1.8470158386e+02   -1.0303299713e+02
    1.8480166626e+02   -1.0318000031e+02
    1.8490174866e+02   -1.0332599640e+02
    1.8500056458e+02   -1.0347100067e+02
    1.8510107422e+02   -1.0361799622e+02
    1.8520097351e+02   -1.0376399994e+02
    1.8530169678e+02   -1.0391200256e+02
    1.8540072632e+02   -1.0405699921e+02
    1.8550105286e+02   -1.0420400238e+02
    1.8560186768e+02   -1.0435199738e+02
    1.8570100403e+02   -1.0449700165e+02
    1.8580166626e+02   -1.0464399719e+02
    1.8590101624e+02   -1.0478900146e+02
    1.8600061035e+02   -1.0493499756e+02
    1.8610078430e+02   -1.0508200073e+02
    1.8620199585e+02   -1.0523000336e+02
    1.8630151367e+02   -1.0537500000e+02
    1.8640130615e+02   -1.0552100372e+02
    1.8650088501e+02   -1.0566600037e+02
    1.8660171509e+02   -1.0581300354e+02
    1.8670063782e+02   -1.0595700073e+02
    1.8680200195e+02   -1.0610500336e+02
    1.8690107727e+02   -1.0624900055e+02
    1.8700065613e+02   -1.0639399719e+02
    1.8710116577e+02   -1.0654000092e+02
    1.8720164490e+02   -1.0668599701e+02
    1.8730192566e+02   -1.0683200073e+02
    1.8740109253e+02   -1.0697599792e+02
    1.8750213623e+02   -1.0712200165e+02
    1.8760104370e+02   -1.0726599884e+02
    1.8770075989e+02   -1.0741100311e+02
    1.8780149841e+02   -1.0755699921e+02
    1.8790112305e+02   -1.0770099640e+02
    1.8800134277e+02   -1.0784700012e+02
    1.8810165405e+02   -1.0799299622e+02
    1.8820181274e+02   -1.0813800049e+02
    1.8830122375e+02   -1.0828299713e+02
    1.8840159607e+02   -1.0842800140e+02
    1.8850177002e+02   -1.0857399750e+02
    1.8860136414e+02   -1.0871900177e+02
    1.8870098877e+02   -1.0886299896e+02
    1.8880158997e+02   -1.0900900269e+02
    1.8890190125e+02   -1.0915499878e+02
    1.8900201416e+02   -1.0930000305e+02
    1.8910128784e+02   -1.0944499969e+02
    1.8920199585e+02   -1.0959100342e+02
    1.8930108643e+02   -1.0973400116e+02
    1.8940197754e+02   -1.0988099670e+02
    1.8950148010e+02   -1.1002500153e+02
    1.8960076904e+02   -1.1016899872e+02
    1.8970230103e+02   -1.1031600189e+02
    1.8980081177e+02   -1.1045800018e+02
    1.8990170288e+02   -1.1060399628e+02
    1.9000173950e+02   -1.1074800110e+02
    1.9010183716e+02   -1.1089299774e+02
    1.9020219421e+02   -1.1103700256e+02
    1.9030174255e+02   -1.1118099976e+02
    1.9040229797e+02   -1.1132499695e+02
    1.9050181580e+02   -1.1146800232e+02
    1.9060142517e+02   -1.1161100006e+02
    1.9070120239e+02   -1.1175499725e+02
    1.9080209351e+02   -1.1189900208e+02
    1.9090237427e+02   -1.1204299927e+02
    1.9100091553e+02   -1.1218399811e+02
    1.9110215759e+02   -1.1232900238e+02
    1.9120104980e+02   -1.1247100067e+02
    1.9130145264e+02   -1.1261499786e+02
    1.9140209961e+02   -1.1275900269e+02
    1.9150111389e+02   -1.1290000153e+02
    1.9160235596e+02   -1.1304499817e+02
    1.9170106506e+02   -1.1318599701e+02
    1.9180126953e+02   -1.1333000183e+02
    1.9190124512e+02   -1.1347299957e+02
    1.9200216675e+02   -1.1361699677e+02
    1.9210148621e+02   -1.1375900269e+02
    1.9220179749e+02   -1.1390200043e+02
    1.9230168152e+02   -1.1404399872e+02
    1.9240103149e+02   -1.1418599701e+02
    1.9250248718e+02   -1.1433100128e+02
    1.9260156250e+02   -1.1447200012e+02
    1.9270173645e+02   -1.1461499786e+02
    1.9280242920e+02   -1.1475800323e+02
    1.9290164185e+02   -1.1489900208e+02
    1.9300245667e+02   -1.1504199982e+02
    1.9310197449e+02   -1.1518299866e+02
    1.9320184326e+02   -1.1532499695e+02
    1.9330233765e+02   -1.1546700287e+02
    1.9340104675e+02   -1.1560700226e+02
    1.9350172424e+02   -1.1574900055e+02
    1.9360148621e+02   -1.1588999939e+02
    1.9370193481e+02   -1.1603199768e+02
    1.9380155945e+02   -1.1617299652e+02
    1.9390161133e+02   -1.1631400299e+02
    1.9400172424e+02   -1.1645500183e+02
    1.9410163879e+02   -1.1659500122e+02
    1.9420256042e+02   -1.1673699951e+02
    1.9430139160e+02   -1.1687599945e+02
    1.9440206909e+02   -1.1701799774e+02
[...]
    2.5130491638e+02   -1.6525700378e+02
    2.5140538025e+02   -1.6529800415e+02
    2.5150572205e+02   -1.6533900452e+02
    2.5160601807e+02   -1.6538000488e+02
    2.5170582581e+02   -1.6541999817e+02
    2.5180516052e+02   -1.6546099854e+02
    2.5190498352e+02   -1.6550100708e+02
    2.5200596619e+02   -1.6554200745e+02
    2.5210566711e+02   -1.6558200073e+02
    2.5220509338e+02   -1.6562300110e+02
    2.5230494690e+02   -1.6566299438e+02
    2.5240481567e+02   -1.6570300293e+02
    2.5250604248e+02   -1.6574400330e+02
    2.5260557556e+02   -1.6578500366e+02
    2.5270521545e+02   -1.6582499695e+02
    2.5280621338e+02   -1.6586500549e+02
    2.5290567017e+02   -1.6590499878e+02
    2.5300587463e+02   -1.6594599915e+02
    2.5310554504e+02   -1.6598599243e+02
    2.5320610046e+02   -1.6602600098e+02
    2.5330502319e+02   -1.6606500244e+02
    2.5340547180e+02   -1.6610600281e+02
    2.5350616455e+02   -1.6614599609e+02
    2.5360499573e+02   -1.6618499756e+02
    2.5370527649e+02   -1.6622399902e+02
    2.5380572510e+02   -1.6626400757e+02
    2.5390626526e+02   -1.6630400085e+02
    2.5400550842e+02   -1.6634300232e+02
    2.5410627747e+02   -1.6638200378e+02
    2.5420605469e+02   -1.6642100525e+02
    2.5430586243e+02   -1.6646000671e+02
    2.5440570068e+02   -1.6649899292e+02
    2.5450552368e+02   -1.6653700256e+02
    2.5460604858e+02   -1.6657600403e+02
    2.5470532227e+02   -1.6661399841e+02
    2.5480589294e+02   -1.6665299988e+02
    2.5490513611e+02   -1.6669099426e+02
    2.5500570679e+02   -1.6672900391e+02
    2.5510539246e+02   -1.6676699829e+02
    2.5520503235e+02   -1.6680499268e+02
    2.5530590820e+02   -1.6684300232e+02
    2.5540518188e+02   -1.6688099670e+02
    2.5550561523e+02   -1.6691900635e+02
    2.5560559082e+02   -1.6695599365e+02
    2.5570628357e+02   -1.6699400330e+02
    2.5580549622e+02   -1.6703199768e+02
    2.5590586853e+02   -1.6706900024e+02
    2.5600622559e+02   -1.6710699463e+02
    2.5610522461e+02   -1.6714399719e+02
    2.5620507812e+02   -1.6718099976e+02
    2.5630508423e+02   -1.6721800232e+02
    2.5640521240e+02   -1.6725500488e+02
    2.5650537109e+02   -1.6729200745e+02
    2.5660549927e+02   -1.6732899475e+02
    2.5670632935e+02   -1.6736599731e+02
    2.5680584717e+02   -1.6740199280e+02
    2.5690545654e+02   -1.6743899536e+02
    2.5700643921e+02   -1.6747500610e+02
    2.5710620117e+02   -1.6751100159e+02
    2.5720635986e+02   -1.6754699707e+02
    2.5730532837e+02   -1.6758299255e+02
    2.5740625000e+02   -1.6761900330e+02
    2.5750619507e+02   -1.6765400696e+02
    2.5760534668e+02   -1.6769000244e+02
    2.5770587158e+02   -1.6772500610e+02
    2.5780606079e+02   -1.6775999451e+02
    2.5790609741e+02   -1.6779499817e+02
    2.5800650024e+02   -1.6783000183e+02
    2.5810531616e+02   -1.6786399841e+02
    2.5820581055e+02   -1.6789900208e+02
    2.5830630493e+02   -1.6793299866e+02
    2.5840594482e+02   -1.6796699524e+02
    2.5850567627e+02   -1.6800100708e+02
    2.5860638428e+02   -1.6803500366e+02
    2.5870550537e+02   -1.6806799316e+02
    2.5880569458e+02   -1.6810200500e+02
    2.5890557861e+02   -1.6813499451e+02
    2.5900656128e+02   -1.6816900635e+02
    2.5910580444e+02   -1.6820199585e+02
    2.5920590210e+02   -1.6823500061e+02
    2.5930596924e+02   -1.6826800537e+02
    2.5940612793e+02   -1.6830099487e+02
    2.5950640869e+02   -1.6833399963e+02
    2.5960549927e+02   -1.6836599731e+02
    2.5970645142e+02   -1.6839900208e+02
    2.5980569458e+02   -1.6843099976e+02
    2.5990631104e+02   -1.6846299744e+02
    2.6000549316e+02   -1.6849499512e+02
    2.6010577393e+02   -1.6852699280e+02
    2.6020565796e+02   -1.6855799866e+02
    2.6030560303e+02   -1.6858999634e+02
    2.6040560913e+02   -1.6862100220e+02
    2.6050573730e+02   -1.6865199280e+02
    2.6060604858e+02   -1.6868299866e+02
    2.6070571899e+02   -1.6871400452e+02
    2.6080548096e+02   -1.6874499512e+02
    2.6090591431e+02   -1.6877499390e+02
    2.6100650024e+02   -1.6880599976e+02
    2.6110546875e+02   -1.6883500671e+02
    2.6120556641e+02   -1.6886500549e+02
    2.6130599976e+02   -1.6889500427e+02
    2.6140661621e+02   -1.6892399597e+02
    2.6150588989e+02   -1.6895300293e+02
    2.6160656738e+02   -1.6898199463e+02
    2.6170593262e+02   -1.6900999451e+02
    2.6180664062e+02   -1.6903900146e+02
    2.6190664673e+02   -1.6906700134e+02
    2.6200640869e+02   -1.6909500122e+02
    2.6210598755e+02   -1.6912199402e+02
    2.6220660400e+02   -1.6914999390e+02
    2.6230636597e+02   -1.6917700195e+02
    2.6240597534e+02   -1.6920399475e+02
    2.6250555420e+02   -1.6922999573e+02
    2.6260559082e+02   -1.6925700378e+02
    2.6270596313e+02   -1.6928300476e+02
    2.6280630493e+02   -1.6930900574e+02
    2.6290655518e+02   -1.6933500671e+02
    2.6300552368e+02   -1.6936099243e+02
    2.6310604858e+02   -1.6938600159e+02
    2.6320635986e+02   -1.6941200256e+02
    2.6330575562e+02   -1.6943699646e+02
    2.6340628052e+02   -1.6946200562e+02
    2.6350680542e+02   -1.6948599243e+02
    2.6360659790e+02   -1.6951100159e+02
    2.6370632935e+02   -1.6953500366e+02
    2.6380612183e+02   -1.6955900574e+02
    2.6390664673e+02   -1.6958299255e+02
    2.6400604248e+02   -1.6960699463e+02
    2.6410690308e+02   -1.6963000488e+02
    2.6420657349e+02   -1.6965400696e+02
    2.6430630493e+02   -1.6967700195e+02
    2.6440612793e+02   -1.6969900513e+02
    2.6450595093e+02   -1.6972200012e+02
    2.6460580444e+02   -1.6974400330e+02
    2.6470568848e+02   -1.6976600647e+02
    2.6480630493e+02   -1.6978799438e+02
    2.6490582275e+02   -1.6980900574e+02
    2.6500558472e+02   -1.6983099365e+02
    2.6510690308e+02   -1.6985200500e+02
    2.6520559692e+02   -1.6987199402e+02
    2.6530569458e+02   -1.6989300537e+02
    2.6540573120e+02   -1.6991299438e+02
    2.6550564575e+02   -1.6993299866e+02
    2.6560595703e+02   -1.6995300293e+02
    2.6570623779e+02   -1.6997300720e+02
    2.6580630493e+02   -1.6999200439e+02
    2.6590655518e+02   -1.7001100159e+02
    2.6600570679e+02   -1.7002900696e+02
    2.6610629272e+02   -1.7004800415e+02
    2.6620693970e+02   -1.7006599426e+02
    2.6630627441e+02   -1.7008399963e+02
    2.6640698242e+02   -1.7010200500e+02
    2.6650686646e+02   -1.7011900330e+02
    2.6660702515e+02   -1.7013600159e+02
    2.6670596313e+02   -1.7015299988e+02
    2.6680661011e+02   -1.7016999817e+02
    2.6690701294e+02   -1.7018600464e+02
    2.6700604248e+02   -1.7020199585e+02
    2.6710653687e+02   -1.7021800232e+02
    2.6720578003e+02   -1.7023399353e+02
    2.6730648804e+02   -1.7024899292e+02
    2.6740594482e+02   -1.7026400757e+02
    2.6750701904e+02   -1.7027900696e+02
    2.6760595703e+02   -1.7029400635e+02
    2.6770626831e+02   -1.7030799866e+02
    2.6780670166e+02   -1.7032299805e+02
    2.6790597534e+02   -1.7033599854e+02
    2.6800665283e+02   -1.7035000610e+02
    2.6810607910e+02   -1.7036300659e+02
    2.6820657349e+02   -1.7037600708e+02
    2.6830688477e+02   -1.7038900757e+02
    2.6840591431e+02   -1.7040100098e+02
    2.6850643921e+02   -1.7041299438e+02
    2.6860644531e+02   -1.7042399597e+02
    2.6870623779e+02   -1.7043600464e+02
    2.6880590820e+02   -1.7044700623e+02
    2.6890667725e+02   -1.7045700073e+02
    2.6900592041e+02   -1.7046800232e+02
    2.6910632324e+02   -1.7047799683e+02
    2.6920666504e+02   -1.7048800659e+02
    2.6930612183e+02   -1.7049699402e+02
    2.6940686035e+02   -1.7050599670e+02
    2.6950619507e+02   -1.7051499939e+02
    2.6960681152e+02   -1.7052400208e+02
    2.6970632935e+02   -1.7053199768e+02
    2.6980630493e+02   -1.7053999329e+02
    2.6990628052e+02   -1.7054800415e+02
    2.7000616455e+02   -1.7055599976e+02
    2.7010714722e+02   -1.7056300354e+02
    2.7020666504e+02   -1.7057000732e+02
    2.7030599976e+02   -1.7057699585e+02
    2.7040698242e+02   -1.7058399963e+02
    2.7050671387e+02   -1.7058999634e+02
    2.7060635376e+02   -1.7059599304e+02
    2.7070608521e+02   -1.7060200500e+02
    2.7080624390e+02   -1.7060800171e+02
    2.7090701294e+02   -1.7061399841e+02
    2.7100671387e+02   -1.7061900330e+02
    2.7110662842e+02   -1.7062399292e+02
    2.7120651245e+02   -1.7062899780e+02
    2.7130603027e+02   -1.7063400269e+02
    2.7140704346e+02   -1.7063800049e+02
    2.7150665283e+02   -1.7064199829e+02
    2.7160647583e+02   -1.7064599609e+02
    2.7170623779e+02   -1.7064900208e+02
    2.7180731201e+02   -1.7065199280e+02
    2.7190704346e+02   -1.7065499878e+02
    2.7200714111e+02   -1.7065800476e+02
    2.7210729980e+02   -1.7066000366e+02
    2.7220611572e+02   -1.7066200256e+02
    2.7230627441e+02   -1.7066299438e+02
    2.7240628052e+02   -1.7066499329e+02
    2.7250717163e+02   -1.7066600037e+02
    2.7260675049e+02   -1.7066600037e+02
    2.7270642090e+02   -1.7066600037e+02
    2.7280615234e+02   -1.7066600037e+02
    2.7290725708e+02   -1.7066600037e+02
    2.7300692749e+02   -1.7066499329e+02
    2.7310714722e+02   -1.7066400146e+02
    2.7320666504e+02   -1.7066200256e+02
    2.7330679321e+02   -1.7066099548e+02
    2.7340670776e+02   -1.7065899658e+02
    2.7350643921e+02   -1.7065600586e+02
    2.7360723877e+02   -1.7065400696e+02
    2.7370727539e+02   -1.7065100098e+02
    2.7380685425e+02   -1.7064799500e+02
    2.7390628052e+02   -1.7064399719e+02
    2.7400698853e+02   -1.7064100647e+02
    2.7410638428e+02   -1.7063699341e+02
    2.7420721436e+02   -1.7063299561e+02
    2.7430673218e+02   -1.7062899780e+02
    2.7440747070e+02   -1.7062500000e+02
    2.7450720215e+02   -1.7061999512e+02
    2.7460751343e+02   -1.7061500549e+02
    2.7470645142e+02   -1.7061000061e+02
    2.7480670166e+02   -1.7060499573e+02
    2.7490722656e+02   -1.7059899902e+02
    2.7500695801e+02   -1.7059300232e+02
    2.7510693359e+02   -1.7058700562e+02
    2.7520718384e+02   -1.7058099365e+02
    2.7530630493e+02   -1.7057499695e+02
    2.7540704346e+02   -1.7056799316e+02
    2.7550708008e+02   -1.7056100464e+02
    2.7560751343e+02   -1.7055400085e+02
    2.7570672607e+02   -1.7054600525e+02
    2.7580737305e+02   -1.7053799438e+02
    2.7590707397e+02   -1.7052999878e+02
    2.7600701904e+02   -1.7052200317e+02
    2.7610702515e+02   -1.7051300049e+02
    2.7620721436e+02   -1.7050399780e+02
    2.7630746460e+02   -1.7049499512e+02
    2.7640637207e+02   -1.7048500061e+02
    2.7650668335e+02   -1.7047500610e+02
    2.7660638428e+02   -1.7046499634e+02
    2.7670700073e+02   -1.7045500183e+02
    2.7680648804e+02   -1.7044400024e+02
    2.7690704346e+02   -1.7043299866e+02
    2.7700653076e+02   -1.7042199707e+02
    2.7710687256e+02   -1.7041000366e+02
    2.7720654297e+02   -1.7039799500e+02
    2.7730758667e+02   -1.7038600159e+02
    2.7740689087e+02   -1.7037399292e+02
    2.7750747681e+02   -1.7036099243e+02
    2.7760723877e+02   -1.7034899902e+02
    2.7770755005e+02   -1.7033599854e+02
    2.7780648804e+02   -1.7032299805e+02
    2.7790692139e+02   -1.7030900574e+02
    2.7800711060e+02   -1.7029600525e+02
    2.7810729980e+02   -1.7028199768e+02
    2.7820745850e+02   -1.7026800537e+02
    2.7830670166e+02   -1.7025399780e+02
    2.7840750122e+02   -1.7023899841e+02
    2.7850695801e+02   -1.7022399902e+02
    2.7860662842e+02   -1.7021000671e+02
    2.7870651245e+02   -1.7019500732e+02
    2.7880682373e+02   -1.7017999268e+02
    2.7890661621e+02   -1.7016400146e+02
    2.7900653076e+02   -1.7014900208e+02
    2.7910775757e+02   -1.7013299561e+02
    2.7920761108e+02   -1.7011700439e+02
    2.7930749512e+02   -1.7010000610e+02
    2.7940740967e+02   -1.7008399963e+02
    2.7950656128e+02   -1.7006700134e+02
    2.7960723877e+02   -1.7005000305e+02
    2.7970666504e+02   -1.7003300476e+02
    2.7980761719e+02   -1.7001499939e+02
    2.7990731812e+02   -1.6999800110e+02
    2.8000711060e+02   -1.6997999573e+02
    2.8010696411e+02   -1.6996200562e+02
    2.8020764160e+02   -1.6994299316e+02
    2.8030752563e+02   -1.6992500305e+02
    2.8040661621e+02   -1.6990600586e+02
    2.8050732422e+02   -1.6988699341e+02
    2.8060650635e+02   -1.6986700439e+02
    2.8070706177e+02   -1.6984800720e+02
    2.8080761719e+02   -1.6982800293e+02
    2.8090701294e+02   -1.6980799866e+02
    2.8100701904e+02   -1.6978799438e+02
    2.8110699463e+02   -1.6976800537e+02
    2.8120690918e+02   -1.6974800110e+02
    2.8130700684e+02   -1.6972700500e+02
    2.8140731812e+02   -1.6970700073e+02
    2.8150765991e+02   -1.6968600464e+02
    2.8160668945e+02   -1.6966499329e+02
    2.8170724487e+02   -1.6964399719e+02
    2.8180789185e+02   -1.6962199402e+02
    2.8190722656e+02   -1.6960099792e+02
    2.8200720215e+02   -1.6957899475e+02
    2.8210757446e+02   -1.6955700684e+02
    2.8220794678e+02   -1.6953500366e+02
    2.8230706787e+02   -1.6951400757e+02
    2.8240762329e+02   -1.6949099731e+02
    2.8250662231e+02   -1.6946899414e+02
    2.8260668945e+02   -1.6944700623e+02
    2.8270700073e+02   -1.6942399597e+02
    2.8280752563e+02   -1.6940100098e+02
    2.8290722656e+02   -1.6937899780e+02
    2.8300772095e+02   -1.6935499573e+02
    2.8310702515e+02   -1.6933200073e+02
    2.8320779419e+02   -1.6930900574e+02
    2.8330731201e+02   -1.6928500366e+02
    2.8340728760e+02   -1.6926100159e+02
    2.8350726318e+02   -1.6923699951e+02
    2.8360717773e+02   -1.6921299744e+02
    2.8370700073e+02   -1.6918899536e+02
    2.8380792236e+02   -1.6916400146e+02
    2.8390704346e+02   -1.6913999939e+02
    2.8400790405e+02   -1.6911500549e+02
    2.8410726929e+02   -1.6908999634e+02
    2.8420809937e+02   -1.6906500244e+02
    2.8430749512e+02   -1.6903900146e+02
    2.8440679932e+02   -1.6901400757e+02
    2.8450671387e+02   -1.6898899841e+02
    2.8460794067e+02   -1.6896299744e+02
    2.8470806885e+02   -1.6893699646e+02
    2.8480810547e+02   -1.6891099548e+02
    2.8490795898e+02   -1.6888499451e+02
    2.8500698853e+02   -1.6886000061e+02
    2.8510702515e+02   -1.6883299255e+02
    2.8520706177e+02   -1.6880700684e+02
    2.8530725098e+02   -1.6878100586e+02
    2.8540722656e+02   -1.6875500488e+02
    2.8550732422e+02   -1.6872799683e+02
    2.8560772705e+02   -1.6870199585e+02
    2.8570681763e+02   -1.6867599487e+02
    2.8580786133e+02   -1.6864900208e+02
    2.8590811157e+02   -1.6862300110e+02
    2.8600750732e+02   -1.6859700012e+02
    2.8610705566e+02   -1.6857000732e+02
    2.8620822144e+02   -1.6854299927e+02
    2.8630807495e+02   -1.6851699829e+02
    2.8640786743e+02   -1.6849000549e+02
    2.8650787354e+02   -1.6846299744e+02
    2.8660800171e+02   -1.6843600464e+02
    2.8670819092e+02   -1.6840899658e+02
    2.8680700684e+02   -1.6838299561e+02
    2.8690686035e+02   -1.6835600281e+02
    2.8700732422e+02   -1.6832899475e+02
    2.8710778809e+02   -1.6830099487e+02
    2.8720684814e+02   -1.6827400208e+02
    2.8730749512e+02   -1.6824699402e+02
    2.8740829468e+02   -1.6821899414e+02
    2.8750711060e+02   -1.6819200134e+02
    2.8760806274e+02   -1.6816400146e+02
    2.8770733643e+02   -1.6813699341e+02
    2.8780804443e+02   -1.6810899353e+02
    2.8790753174e+02   -1.6808099365e+02
    2.8800708008e+02   -1.6805400085e+02
    2.8810797119e+02   -1.6802600098e+02
    2.8820724487e+02   -1.6799800110e+02
    2.8830783081e+02   -1.6797000122e+02
    2.8840808105e+02   -1.6794200134e+02
    2.8850714111e+02   -1.6791400146e+02
    2.8860787964e+02   -1.6788600159e+02
    2.8870806885e+02   -1.6785800171e+02
    2.8880715942e+02   -1.6783099365e+02
    2.8890719604e+02   -1.6780299377e+02
    2.8900744629e+02   -1.6777499390e+02
    2.8910827637e+02   -1.6774699402e+02
    2.8920764160e+02   -1.6772000122e+02
    2.8930828857e+02   -1.6769200134e+02
    2.8940737915e+02   -1.6766499329e+02
    2.8950833130e+02   -1.6763699341e+02
    2.8960781860e+02   -1.6760899353e+02
    2.8970736694e+02   -1.6758200073e+02
    2.8980706787e+02   -1.6755499268e+02
    2.8990798950e+02   -1.6752699280e+02
    2.9000762939e+02   -1.6750000000e+02
    2.9010708618e+02   -1.6747300720e+02
    2.9020785522e+02   -1.6744500732e+02
    2.9030831909e+02   -1.6741700745e+02
    2.9040740967e+02   -1.6738999939e+02
    2.9050790405e+02   -1.6736300659e+02
    2.9060839844e+02   -1.6733500671e+02
    2.9070751953e+02   -1.6730799866e+02
    2.9080801392e+02   -1.6727999878e+02
    2.9090765381e+02   -1.6725300598e+02
    2.9100808716e+02   -1.6722500610e+02
    2.9110852051e+02   -1.6719799805e+02
    2.9120846558e+02   -1.6716999817e+02
    2.9130850220e+02   -1.6714300537e+02
    2.9140744019e+02   -1.6711599731e+02
    2.9150772095e+02   -1.6708799744e+02
    2.9160797119e+02   -1.6706100464e+02
    2.9170819092e+02   -1.6703399658e+02
    2.9180831909e+02   -1.6700599670e+02
    2.9190835571e+02   -1.6697900391e+02
    2.9200790405e+02   -1.6695199585e+02
    2.9210742188e+02   -1.6692500305e+02
    2.9220819092e+02   -1.6689799500e+02
    2.9230749512e+02   -1.6687199402e+02
    2.9240820312e+02   -1.6684500122e+02
    2.9250738525e+02   -1.6681900024e+02
    2.9260848999e+02   -1.6679200745e+02
    2.9270831299e+02   -1.6676600647e+02
    2.9280816650e+02   -1.6674000549e+02
    2.9290805054e+02   -1.6671400452e+02
    2.9300796509e+02   -1.6668899536e+02
    2.9310803223e+02   -1.6666299438e+02
    2.9320812988e+02   -1.6663800049e+02
    2.9330831909e+02   -1.6661199951e+02
    2.9340740967e+02   -1.6658700562e+02
    2.9350817871e+02   -1.6656199646e+02
    2.9360812378e+02   -1.6653700256e+02
    2.9370825195e+02   -1.6651199341e+02
    2.9380868530e+02   -1.6648699951e+02
    2.9390759277e+02   -1.6646299744e+02
    2.9400750732e+02   -1.6643800354e+02
    2.9410824585e+02   -1.6641400146e+02
    2.9420776367e+02   -1.6638900757e+02
    2.9430825806e+02   -1.6636500549e+02
    2.9440835571e+02   -1.6634100342e+02
    2.9450781250e+02   -1.6631700134e+02
    2.9460736084e+02   -1.6629200745e+02
    2.9470846558e+02   -1.6626800537e+02
    2.9480813599e+02   -1.6624400330e+02
    2.9490777588e+02   -1.6622000122e+02
    2.9500732422e+02   -1.6619599915e+02
    2.9510818481e+02   -1.6617100525e+02
    2.9520770264e+02   -1.6614799500e+02
    2.9530792236e+02   -1.6612399292e+02
    2.9540795898e+02   -1.6610000610e+02
    2.9550781250e+02   -1.6607699585e+02
    2.9560760498e+02   -1.6605299377e+02
    2.9570816040e+02   -1.6602999878e+02
    2.9580761719e+02   -1.6600700378e+02
    2.9590866089e+02   -1.6598399353e+02
    2.9600823975e+02   -1.6596099854e+02
    2.9610812378e+02   -1.6593800354e+02
    2.9620748901e+02   -1.6591600037e+02
    2.9630834961e+02   -1.6589300537e+02
    2.9640786743e+02   -1.6587100220e+02
    2.9650765991e+02   -1.6584899902e+02
    2.9660858154e+02   -1.6582800293e+02
    2.9670809937e+02   -1.6580599976e+02
    2.9680755615e+02   -1.6578500366e+02
    2.9690887451e+02   -1.6576400757e+02
    2.9700866699e+02   -1.6574299622e+02
    2.9710867310e+02   -1.6572200012e+02
    2.9720742798e+02   -1.6570199585e+02
    2.9730792236e+02   -1.6568200684e+02
    2.9740856934e+02   -1.6566200256e+02
    2.9750891113e+02   -1.6564199829e+02
    2.9760815430e+02   -1.6562199402e+02
    2.9770892334e+02   -1.6560200500e+02
    2.9780838013e+02   -1.6558299255e+02
    2.9790798950e+02   -1.6556399536e+02
    2.9800778198e+02   -1.6554400635e+02
    2.9810864258e+02   -1.6552499390e+02
    2.9820883179e+02   -1.6550599670e+02
    2.9830749512e+02   -1.6548699951e+02
    2.9840872192e+02   -1.6546800232e+02
    2.9850759888e+02   -1.6544999695e+02
    2.9860845947e+02   -1.6543099976e+02
    2.9870816040e+02   -1.6541299438e+02
    2.9880776978e+02   -1.6539500427e+02
    2.9890890503e+02   -1.6537600708e+02
    2.9900860596e+02   -1.6535800171e+02
    2.9910836792e+02   -1.6534100342e+02
    2.9920819092e+02   -1.6532299805e+02
    2.9930847168e+02   -1.6530599976e+02
    2.9940805054e+02   -1.6528799438e+02
    2.9950888062e+02   -1.6527099609e+02
    2.9960809326e+02   -1.6525399780e+02
    2.9970849609e+02   -1.6523699951e+02
    2.9980874634e+02   -1.6522099304e+02
    2.9990905762e+02   -1.6520399475e+02
endcurve
