Curveplot
LS-DYNA keyword deck by LS-PrePost
Abscissa
Ordinate
XY data
CHOP_EAMX_mo-1 #pts=3000
* Minval=     0.0000000000e+00 at time=         0.0000000000
* Maxval=     1.0068598938e+02 at time=       235.6045227051
    0.0000000000e+00    0.0000000000e+00
    9.8665714264e-02    1.5424400335e-03
    1.9887307286e-01    3.1089799013e-03
    2.9908046126e-01    4.6755201183e-03
    3.9928781986e-01    6.2420698814e-03
    4.9949517846e-01    7.8086098656e-03
    5.9970253706e-01    9.3751503155e-03
    6.9932085276e-01    1.0932499543e-02
    7.9968386889e-01    1.2501498684e-02
    8.9898151159e-01    1.4053797349e-02
    9.9915391207e-01    1.5619797632e-02
    1.0998978615e+00    1.7194699496e-02
    1.1999748945e+00    1.8759205937e-02
    1.2987960577e+00    2.0304109901e-02
    1.3993667364e+00    2.1876314655e-02
    1.4999196529e+00    2.3448215798e-02
    1.5987406969e+00    2.4993112311e-02
    1.6998659372e+00    2.6574023068e-02
    1.7999436855e+00    2.8138557449e-02
    1.8996568918e+00    2.9697408900e-02
    1.9994639158e+00    3.1257707626e-02
    2.0987761021e+00    3.2810185105e-02
    2.1985299587e+00    3.4369323403e-02
    2.2983815670e+00    3.5930063576e-02
    2.3998730183e+00    3.7516694516e-02
    2.4992706776e+00    3.9071131498e-02
    2.5997676849e+00    4.0643244982e-02
    2.6999757290e+00    4.2210880667e-02
    2.7988300323e+00    4.3757043779e-02
    2.8986189365e+00    4.5317072421e-02
    2.9991533756e+00    4.6887848526e-02
    3.0992131233e+00    4.8450201750e-02
    3.1998617649e+00    5.0021011382e-02
    3.2991583347e+00    5.1570400596e-02
    3.3992121220e+00    5.3131777793e-02
    3.4992592335e+00    5.4693523794e-02
    3.5987131596e+00    5.6247014552e-02
    3.6993260384e+00    5.7819828391e-02
    3.7997486591e+00    5.9391092509e-02
    3.8994097710e+00    6.0951996595e-02
    3.9999620914e+00    6.2528409064e-02
    4.0991630554e+00    6.4085185528e-02
    4.1985726357e+00    6.5646670759e-02
    4.2996191978e+00    6.7235000432e-02
    4.3994731903e+00    6.8805724382e-02
    4.4987592697e+00    7.0368081331e-02
    4.5998926163e+00    7.1959942579e-02
    4.6993927956e+00    7.3526188731e-02
    4.7994699478e+00    7.5101211667e-02
    4.8983769417e+00    7.6657153666e-02
    4.9993224144e+00    7.8244149685e-02
    5.0995249748e+00    7.9818099737e-02
    5.1995201111e+00    8.1387110054e-02
    5.2986416817e+00    8.2940660417e-02
    5.3995928764e+00    8.4520719945e-02
    5.4984164238e+00    8.6065337062e-02
    5.5999279022e+00    8.7649606168e-02
    5.6984696388e+00    8.9184984565e-02
    5.7986989021e+00    9.0744100511e-02
    5.8993062973e+00    9.2306338251e-02
    5.9984145164e+00    9.3842461705e-02
    6.0998477936e+00    9.5411740243e-02
    6.1989188194e+00    9.6941582859e-02
    6.2996253967e+00    9.8493650556e-02
    6.3983716965e+00    1.0001295805e-01
    6.4995007515e+00    1.0156571865e-01
    6.5993127823e+00    1.0309493542e-01
    6.6993141174e+00    1.0462432355e-01
    6.7991056442e+00    1.0614811629e-01
    6.8997559547e+00    1.0768304020e-01
    6.9994716644e+00    1.0920094699e-01
    7.0997943878e+00    1.1072532088e-01
    7.1987619400e+00    1.1222702265e-01
    7.2993636131e+00    1.1375164241e-01
    7.3990545273e+00    1.1525940895e-01
    7.4989185333e+00    1.1676889658e-01
    7.5992770195e+00    1.1828202754e-01
    7.6987156868e+00    1.1978070438e-01
    7.7994089127e+00    1.2129583955e-01
    7.8997044563e+00    1.2280350178e-01
    7.9995851517e+00    1.2430386990e-01
    8.0999584198e+00    1.2580950558e-01
    8.1994724274e+00    1.2730030715e-01
    8.2992858887e+00    1.2879545987e-01
    8.3986196518e+00    1.3028141856e-01
    8.4988069534e+00    1.3177821040e-01
    8.5989942551e+00    1.3327337801e-01
    8.6984653473e+00    1.3475658000e-01
    8.7998790741e+00    1.3626803458e-01
    8.8996896744e+00    1.3775366545e-01
    8.9992752075e+00    1.3923574984e-01
    9.0993385315e+00    1.4072389901e-01
    9.1996097565e+00    1.4221444726e-01
    9.2996873856e+00    1.4370264113e-01
    9.3993835449e+00    1.4518451691e-01
    9.4990024567e+00    1.4666359127e-01
    9.5992116928e+00    1.4815001190e-01
    9.6999759674e+00    1.4964444935e-01
    9.7993879318e+00    1.5111629665e-01
    9.8992424011e+00    1.5259306133e-01
    9.9996871948e+00    1.5407663584e-01
    1.0099941254e+01    1.5804392099e-01
    1.0198670387e+01    1.6195732355e-01
    1.0299817085e+01    1.6596457362e-01
    1.0399135590e+01    1.6989962757e-01
    1.0499294281e+01    1.7386727035e-01
    1.0598592758e+01    1.7780013382e-01
    1.0698574066e+01    1.8175891042e-01
    1.0798555374e+01    1.8571823835e-01
    1.0898838043e+01    1.8968878686e-01
    1.0998833656e+01    1.9364707172e-01
    1.1099402428e+01    1.9762726128e-01
    1.1198697090e+01    2.0155696571e-01
    1.1298677444e+01    2.0551218092e-01
    1.1398848534e+01    2.0947517455e-01
    1.1499307632e+01    2.1344658732e-01
    1.1599677086e+01    2.1741457283e-01
    1.1698794365e+01    2.2133007646e-01
    1.1798995972e+01    2.2528745234e-01
    1.1898798943e+01    2.2922596335e-01
    1.1999782562e+01    2.3320870101e-01
    1.2099208832e+01    2.3712736368e-01
    1.2199954033e+01    2.4109575152e-01
    1.2299825668e+01    2.4502646923e-01
    1.2399702072e+01    2.4895496666e-01
    1.2499883652e+01    2.5289419293e-01
    1.2598860741e+01    2.5678396225e-01
    1.2699087143e+01    2.6071974635e-01
    1.2799306870e+01    2.6465246081e-01
    1.2899601936e+01    2.6858541369e-01
    1.2999082565e+01    2.7248153090e-01
    1.3098941803e+01    2.7638831735e-01
    1.3198799133e+01    2.8029280901e-01
    1.3298561096e+01    2.8419092298e-01
    1.3398999214e+01    2.8811356425e-01
    1.3499709129e+01    2.9204624891e-01
    1.3599534035e+01    2.9594448209e-01
    1.3699357986e+01    2.9984354973e-01
    1.3798517227e+01    3.0371767282e-01
    1.3898679733e+01    3.0763262510e-01
    1.3999144554e+01    3.1156030297e-01
    1.4099323273e+01    3.1547835469e-01
    1.4199502945e+01    3.1939607859e-01
    1.4298810959e+01    3.2328137755e-01
    1.4398548126e+01    3.2718205452e-01
    1.4498391151e+01    3.3108714223e-01
    1.4599130630e+01    3.3502689004e-01
    1.4699625015e+01    3.3895435929e-01
    1.4799732208e+01    3.4286400676e-01
    1.4899262428e+01    3.4674924612e-01
    1.4999880791e+01    3.5067170858e-01
    1.5098719597e+01    3.5451990366e-01
    1.5198610306e+01    3.5840374231e-01
    1.5299570084e+01    3.6232239008e-01
    1.5399980545e+01    3.6621305346e-01
    1.5499902725e+01    3.7007832527e-01
    1.5599719048e+01    3.7393033504e-01
    1.5699064255e+01    3.7775778770e-01
    1.5798649788e+01    3.8158720732e-01
    1.5898917198e+01    3.8543450832e-01
    1.5999511719e+01    3.8928610086e-01
    1.6099826813e+01    3.9311912656e-01
    1.6199512482e+01    3.9692008495e-01
    1.6299785614e+01    4.0073370934e-01
    1.6399372101e+01    4.0451291203e-01
    1.6499305725e+01    4.0829491615e-01
    1.6599048615e+01    4.1206100583e-01
    1.6699186325e+01    4.1583269835e-01
    1.6798429489e+01    4.1956198215e-01
    1.6899503708e+01    4.2335119843e-01
    1.6999053955e+01    4.2707479000e-01
    1.7099515915e+01    4.3082460761e-01
    1.7199779510e+01    4.3455940485e-01
    1.7299049377e+01    4.3824902177e-01
    1.7399724960e+01    4.4198480248e-01
    1.7499521255e+01    4.4568070769e-01
    1.7598663330e+01    4.4934660196e-01
    1.7699377060e+01    4.5306378603e-01
    1.7799608231e+01    4.5675778389e-01
    1.7898965836e+01    4.6041387320e-01
    1.7999240875e+01    4.6409869194e-01
    1.8099725723e+01    4.6778720617e-01
    1.8198949814e+01    4.7142529488e-01
    1.8299024582e+01    4.7508957982e-01
    1.8399129868e+01    4.7875142097e-01
    1.8499340057e+01    4.8241198063e-01
    1.8599550247e+01    4.8606681824e-01
    1.8698759079e+01    4.8968181014e-01
    1.8798530579e+01    4.9331218004e-01
    1.8899085999e+01    4.9696719646e-01
    1.8998956680e+01    5.0059360266e-01
    1.9099990845e+01    5.0425893068e-01
    1.9199626923e+01    5.0787007809e-01
    1.9299144745e+01    5.1147472858e-01
    1.9399421692e+01    5.1510387659e-01
    1.9499637604e+01    5.1872682571e-01
    1.9599853516e+01    5.2234560251e-01
    1.9699192047e+01    5.2592760324e-01
    1.9799736023e+01    5.2954947948e-01
    1.9899597168e+01    5.3314071894e-01
    1.9999458313e+01    5.3672850132e-01
    2.0099317551e+01    5.4298537970e-01
    2.0199178696e+01    5.4925292730e-01
    2.0298517227e+01    5.5548512936e-01
    2.0399871826e+01    5.6184130907e-01
    2.0498962402e+01    5.6805402040e-01
    2.0598831177e+01    5.7431304455e-01
    2.0699207306e+01    5.8060139418e-01
    2.0799760818e+01    5.8689868450e-01
    2.0899932861e+01    5.9317022562e-01
    2.0999078751e+01    5.9937411547e-01
    2.1099082947e+01    6.0562902689e-01
    2.1200040817e+01    6.1193990707e-01
    2.1299140930e+01    6.1813151836e-01
    2.1398736954e+01    6.2435072660e-01
    2.1499895096e+01    6.3066250086e-01
    2.1598661423e+01    6.3682007790e-01
    2.1699058533e+01    6.4307254553e-01
    2.1798717499e+01    6.4927285910e-01
    2.1899429321e+01    6.5553110838e-01
    2.1999353409e+01    6.6173118353e-01
    2.2098709106e+01    6.6788870096e-01
    2.2198734283e+01    6.7407745123e-01
    2.2299903870e+01    6.8032908440e-01
    2.2399820328e+01    6.8649441004e-01
    2.2499740601e+01    6.9265198708e-01
    2.2599123001e+01    6.9877010584e-01
    2.2699390411e+01    7.0493322611e-01
    2.2799650192e+01    7.1108889580e-01
    2.2899888992e+01    7.1723371744e-01
    2.2999135971e+01    7.2330850363e-01
    2.3098852158e+01    7.2940200567e-01
    2.3198562622e+01    7.3548799753e-01
    2.3298440933e+01    7.4157506227e-01
    2.3399662018e+01    7.4773794413e-01
    2.3499134064e+01    7.5379002094e-01
    2.3598976135e+01    7.5985938311e-01
    2.3698818207e+01    7.6592540741e-01
    2.3799158096e+01    7.7201896906e-01
    2.3899055481e+01    7.7808171511e-01
    2.3999254227e+01    7.8416138887e-01
    2.4099449158e+01    7.9023683071e-01
    2.4199836731e+01    7.9631948471e-01
    2.4298568726e+01    8.0229967833e-01
    2.4400054932e+01    8.0844175816e-01
    2.4499914169e+01    8.1448060274e-01
    2.4599782944e+01    8.2051521540e-01
    2.4699327469e+01    8.2652437687e-01
    2.4799566269e+01    8.3256918192e-01
    2.4899822235e+01    8.3860707283e-01
    2.4998540878e+01    8.4454339743e-01
    2.5100027084e+01    8.5063648224e-01
    2.5199466705e+01    8.5659569502e-01
    2.5299388885e+01    8.6257243156e-01
    2.5399816513e+01    8.6856651306e-01
    2.5499284744e+01    8.7449002266e-01
    2.5599239349e+01    8.8042789698e-01
    2.5699201584e+01    8.8635379076e-01
    2.5799791336e+01    8.9230132103e-01
    2.5898660660e+01    8.9813387394e-01
    2.5998544693e+01    9.0401124954e-01
    2.6099594116e+01    9.0994083881e-01
    2.6198757172e+01    9.1574484110e-01
    2.6299083710e+01    9.2159849405e-01
    2.6398723602e+01    9.2739588022e-01
    2.6498689651e+01    9.3319445848e-01
    2.6598659515e+01    9.3897414207e-01
    2.6699123383e+01    9.4477057457e-01
    2.6799583435e+01    9.5054012537e-01
    2.6899261475e+01    9.5625126362e-01
    2.6999736786e+01    9.6199917793e-01
    2.7100051880e+01    9.6771401167e-01
    2.7199480057e+01    9.7337412834e-01
    2.7299264908e+01    9.7903692722e-01
    2.7399196625e+01    9.8469507694e-01
    2.7499994278e+01    9.9038112164e-01
    2.7598958969e+01    9.9596524239e-01
    2.7699207306e+01    1.0016034842e+00
    2.7799465179e+01    1.0072308779e+00
    2.7899227142e+01    1.0128237009e+00
    2.7999715805e+01    1.0184389353e+00
    2.8098754883e+01    1.0239722729e+00
    2.8199239731e+01    1.0295805931e+00
    2.8299148560e+01    1.0351469517e+00
    2.8399087906e+01    1.0407042503e+00
    2.8499320984e+01    1.0462689400e+00
    2.8599552155e+01    1.0518239737e+00
    2.8700038910e+01    1.0573761463e+00
    2.8799930573e+01    1.0628961325e+00
    2.8899827957e+01    1.0684069395e+00
    2.8999727249e+01    1.0738997459e+00
    2.9099624634e+01    1.0793946981e+00
    2.9198661804e+01    1.0848331451e+00
    2.9300012589e+01    1.0903849602e+00
    2.9399641037e+01    1.0958412886e+00
    2.9499870300e+01    1.1013219357e+00
    2.9598558426e+01    1.1067150831e+00
    2.9698783875e+01    1.1121799946e+00
    2.9799528122e+01    1.1176599264e+00
    2.9899206161e+01    1.1230750084e+00
    2.9999074936e+01    1.1285010576e+00
    3.0098939896e+01    1.1398290396e+00
    3.0198802948e+01    1.1512110233e+00
    3.0299003601e+01    1.1626330614e+00
    3.0398899078e+01    1.1740030050e+00
    3.0498756409e+01    1.1853699684e+00
    3.0598539352e+01    1.1967219114e+00
    3.0698753357e+01    1.2081229687e+00
    3.0798460007e+01    1.2194559574e+00
    3.0899412155e+01    1.2309260368e+00
    3.0999244690e+01    1.2422540188e+00
    3.1099538803e+01    1.2536389828e+00
    3.1199554443e+01    1.2649810314e+00
    3.1299940109e+01    1.2763489485e+00
    3.1398616791e+01    1.2875219584e+00
    3.1498872757e+01    1.2988640070e+00
    3.1599708557e+01    1.3102660179e+00
    3.1698604584e+01    1.3214340210e+00
    3.1799562454e+01    1.3328189850e+00
    3.1899860382e+01    1.3441089392e+00
    3.1999465942e+01    1.3553130627e+00
    3.2099044800e+01    1.3664910793e+00
    3.2199005127e+01    1.3777060509e+00
    3.2298976898e+01    1.3888950348e+00
    3.2398956299e+01    1.4000790119e+00
    3.2500015259e+01    1.4113609791e+00
    3.2598815918e+01    1.4223749638e+00
    3.2699146271e+01    1.4335490465e+00
    3.2799465179e+01    1.4447059631e+00
    3.2899955750e+01    1.4558619261e+00
    3.2999244690e+01    1.4668669701e+00
    3.3099006653e+01    1.4779050350e+00
    3.3198947906e+01    1.4889420271e+00
    3.3298881531e+01    1.4999610186e+00
    3.3398788452e+01    1.5109570026e+00
    3.3498664856e+01    1.5219509602e+00
    3.3598518372e+01    1.5329269171e+00
    3.3700004578e+01    1.5440659523e+00
    3.3799858093e+01    1.5550260544e+00
    3.3899078369e+01    1.5659120083e+00
    3.3999279022e+01    1.5768939257e+00
    3.4099468231e+01    1.5878809690e+00
    3.4199657440e+01    1.5988500118e+00
    3.4298976898e+01    1.6097180843e+00
    3.4398822784e+01    1.6206380129e+00
    3.4498683929e+01    1.6315499544e+00
    3.4600006104e+01    1.6426049471e+00
    3.4698703766e+01    1.6533780098e+00
    3.4799999237e+01    1.6644109488e+00
    3.4899131775e+01    1.6751999855e+00
    3.4999439240e+01    1.6860920191e+00
    3.5098583221e+01    1.6968469620e+00
    3.5199813843e+01    1.7078120708e+00
    3.5299800873e+01    1.7186100483e+00
    3.5399803162e+01    1.7293940783e+00
    3.5499828339e+01    1.7401540279e+00
    3.5599868774e+01    1.7508981228e+00
    3.5699928284e+01    1.7616050243e+00
    3.5799468994e+01    1.7722369432e+00
    3.5899879456e+01    1.7829340696e+00
    3.5999172211e+01    1.7934859991e+00
    3.6099941254e+01    1.8041580915e+00
    3.6198822021e+01    1.8146109581e+00
    3.6299247742e+01    1.8251899481e+00
    3.6398387909e+01    1.8356058598e+00
    3.6498443604e+01    1.8460900784e+00
    3.6598506927e+01    1.8565319777e+00
    3.6698467255e+01    1.8669360876e+00
    3.6798519135e+01    1.8773288727e+00
    3.6898571014e+01    1.8876841068e+00
    3.6999034882e+01    1.8980619907e+00
    3.7099430084e+01    1.9084069729e+00
    3.7199806213e+01    1.9187169075e+00
    3.7298713684e+01    1.9288600683e+00
    3.7398700714e+01    1.9390919209e+00
    3.7498680115e+01    1.9492911100e+00
    3.7599437714e+01    1.9595581293e+00
    3.7699954987e+01    1.9697700739e+00
    3.7798725128e+01    1.9797869921e+00
    3.7899040222e+01    1.9899449348e+00
    3.7998901367e+01    2.0000379086e+00
    3.8098854065e+01    2.0101211071e+00
    3.8199676514e+01    2.0202848911e+00
    3.8298599243e+01    2.0302331448e+00
    3.8398880005e+01    2.0402979851e+00
    3.8499145508e+01    2.0503449440e+00
    3.8599403381e+01    2.0603740215e+00
    3.8699810028e+01    2.0703990459e+00
    3.8799743652e+01    2.0803599358e+00
    3.8899318695e+01    2.0902738571e+00
    3.8999256134e+01    2.1002030373e+00
    3.9099193573e+01    2.1101179123e+00
    3.9199428558e+01    2.1200411320e+00
    3.9299346924e+01    2.1299309731e+00
    3.9399574280e+01    2.1398401260e+00
    3.9499832153e+01    2.1497340202e+00
    3.9598548889e+01    2.1594569683e+00
    3.9698802948e+01    2.1693210602e+00
    3.9799804688e+01    2.1792459488e+00
    3.9899700165e+01    2.1890370846e+00
    3.9999599457e+01    2.1988220215e+00
    4.0099491119e+01    2.2163329124e+00
    4.0199382782e+01    2.2338609695e+00
    4.0299308777e+01    2.2513959408e+00
    4.0398658752e+01    2.2688069344e+00
    4.0498542786e+01    2.2863030434e+00
    4.0599205017e+01    2.3039250374e+00
    4.0699443817e+01    2.3214700222e+00
    4.0798583984e+01    2.3388071060e+00
    4.0899005890e+01    2.3563551903e+00
    4.0999259949e+01    2.3738651276e+00
    4.1099006653e+01    2.3912670612e+00
    4.1199893951e+01    2.4088609219e+00
    4.1299819946e+01    2.4262690544e+00
    4.1399124146e+01    2.4435498714e+00
    4.1499900818e+01    2.4610781670e+00
    4.1598678589e+01    2.4782290459e+00
    4.1698535919e+01    2.4955539703e+00
    4.1798995972e+01    2.5129559040e+00
    4.1898971558e+01    2.5302469730e+00
    4.1999313354e+01    2.5475780964e+00
    4.2099376678e+01    2.5648279190e+00
    4.2199447632e+01    2.5820469856e+00
    4.2299526215e+01    2.5992360115e+00
    4.2399623871e+01    2.6163959503e+00
    4.2499732971e+01    2.6335370541e+00
    4.2599319458e+01    2.6505579948e+00
    4.2699764252e+01    2.6676988602e+00
    4.2798641205e+01    2.6845431328e+00
    4.2898471832e+01    2.7015099525e+00
    4.2998527527e+01    2.7184729576e+00
    4.3098300934e+01    2.7353610992e+00
    4.3198326111e+01    2.7522661686e+00
    4.3298343658e+01    2.7691209316e+00
    4.3398330688e+01    2.7859599590e+00
    4.3499904633e+01    2.8030369282e+00
    4.3599796295e+01    2.8198070526e+00
    4.3699680328e+01    2.8365609646e+00
    4.3799571991e+01    2.8533098698e+00
    4.3899032593e+01    2.8699610233e+00
    4.3999256134e+01    2.8867299557e+00
    4.4099460602e+01    2.9034860134e+00
    4.4199665070e+01    2.9202280045e+00
    4.4299095154e+01    2.9368238449e+00
    4.4398963928e+01    2.9534780979e+00
    4.4498863220e+01    2.9701139927e+00
    4.4598987579e+01    2.9867749214e+00
    4.4699558258e+01    3.0034990311e+00
    4.4799873352e+01    3.0201530457e+00
    4.4898685455e+01    3.0365321636e+00
    4.4999061584e+01    3.0531418324e+00
    4.5098480225e+01    3.0695700645e+00
    4.5198535919e+01    3.0860688686e+00
    4.5298606873e+01    3.1025300026e+00
    4.5398704529e+01    3.1189529896e+00
    4.5498825073e+01    3.1353428364e+00
    4.5598976135e+01    3.1517009735e+00
    4.5699150085e+01    3.1680159569e+00
    4.5798889160e+01    3.1842169762e+00
    4.5899417877e+01    3.2005119324e+00
    4.5998348236e+01    3.2164931297e+00
    4.6099803925e+01    3.2328488827e+00
    4.6198802948e+01    3.2487578392e+00
    4.6299346924e+01    3.2648689747e+00
    4.6398906708e+01    3.2807660103e+00
    4.6499076843e+01    3.2967150211e+00
    4.6599254608e+01    3.3126239777e+00
    4.6699428558e+01    3.3284728527e+00
    4.6799594879e+01    3.3442759514e+00
    4.6899757385e+01    3.3600330353e+00
    4.6999172211e+01    3.3756229877e+00
    4.7099685669e+01    3.3913481236e+00
    4.7198627472e+01    3.4067909718e+00
    4.7298973083e+01    3.4224138260e+00
    4.7399055481e+01    3.4379529953e+00
    4.7499118805e+01    3.4534547329e+00
    4.7599098206e+01    3.4689049721e+00
    4.7699497223e+01    3.4843888283e+00
    4.7798332214e+01    3.4996011257e+00
    4.7899093628e+01    3.5150730610e+00
    4.7999114990e+01    3.5304038525e+00
    4.8099136353e+01    3.5457081795e+00
    4.8199150085e+01    3.5609848499e+00
    4.8299163818e+01    3.5762350559e+00
    4.8399497986e+01    3.5914998055e+00
    4.8499809265e+01    3.6067371368e+00
    4.8598567963e+01    3.6217060089e+00
    4.8699710846e+01    3.6370069981e+00
    4.8799705505e+01    3.6521100998e+00
    4.8899715424e+01    3.6671829224e+00
    4.8999729156e+01    3.6822211742e+00
    4.9099742889e+01    3.6972439289e+00
    4.9199687958e+01    3.7122380733e+00
    4.9299121857e+01    3.7271280289e+00
    4.9399105072e+01    3.7420737743e+00
    4.9499420166e+01    3.7570481300e+00
    4.9599727631e+01    3.7719969749e+00
    4.9698486328e+01    3.7866859436e+00
    4.9798564911e+01    3.8015439510e+00
    4.9898513794e+01    3.8163611889e+00
    4.9998458862e+01    3.8311429024e+00
    5.0098396301e+01    3.8553509712e+00
    5.0198333740e+01    3.8796858788e+00
    5.0298988342e+01    3.9041700363e+00
    5.0399051666e+01    3.9285001755e+00
    5.0498958588e+01    3.9527709484e+00
    5.0599754333e+01    3.9772341251e+00
    5.0698848724e+01    4.0012679100e+00
    5.0798778534e+01    4.0254950523e+00
    5.0899791718e+01    4.0499577522e+00
    5.0998546600e+01    4.0738539696e+00
    5.1099422455e+01    4.0982418060e+00
    5.1199409485e+01    4.1223907471e+00
    5.1299392700e+01    4.1465139389e+00
    5.1398460388e+01    4.1703972816e+00
    5.1498828888e+01    4.1945643425e+00
    5.1599227905e+01    4.2186970711e+00
    5.1698795319e+01    4.2426047325e+00
    5.1799270630e+01    4.2666888237e+00
    5.1898498535e+01    4.2904262543e+00
    5.1999736786e+01    4.3146009445e+00
    5.2098293304e+01    4.3380842209e+00
    5.2198513031e+01    4.3619122505e+00
    5.2298740387e+01    4.3856992722e+00
    5.2398986816e+01    4.4094352722e+00
    5.2499252319e+01    4.4331221581e+00
    5.2598693848e+01    4.4565758705e+00
    5.2699298859e+01    4.4802551270e+00
    5.2798324585e+01    4.5035057068e+00
    5.2898887634e+01    4.5270719528e+00
    5.2998146057e+01    4.5502700806e+00
    5.3098270416e+01    4.5736141205e+00
    5.3198638916e+01    4.5969681740e+00
    5.3298763275e+01    4.6202092171e+00
    5.3398845673e+01    4.6434078217e+00
    5.3498863220e+01    4.6665439606e+00
    5.3598827362e+01    4.6896276474e+00
    5.3698783875e+01    4.7126922607e+00
    5.3798748016e+01    4.7357187271e+00
    5.3898376465e+01    4.7586421967e+00
    5.3998661041e+01    4.7817029953e+00
    5.4098922729e+01    4.8047189713e+00
    5.4199176788e+01    4.8277091980e+00
    5.4299434662e+01    4.8506803513e+00
    5.4398975372e+01    4.8734498024e+00
    5.4498928070e+01    4.8962998390e+00
    5.4598907471e+01    4.9191203117e+00
    5.4699142456e+01    4.9419603348e+00
    5.4799526215e+01    4.9647998810e+00
    5.4898410797e+01    4.9872703552e+00
    5.4998855591e+01    5.0100603104e+00
    5.5099414825e+01    5.0328197479e+00
    5.5199550629e+01    5.0554504395e+00
    5.5299709320e+01    5.0780100822e+00
    5.5398262024e+01    5.1001701355e+00
    5.5498493195e+01    5.1226501465e+00
    5.5598762512e+01    5.1450700760e+00
    5.5699066162e+01    5.1674399376e+00
    5.5799133301e+01    5.1897001266e+00
    5.5898250580e+01    5.2116899490e+00
    5.5998855591e+01    5.2339301109e+00
    5.6098251343e+01    5.2558603287e+00
    5.6198928833e+01    5.2779998779e+00
    5.6299610138e+01    5.3000602722e+00
    5.6399494171e+01    5.3218798637e+00
    5.6498153687e+01    5.3433599472e+00
    5.6598472595e+01    5.3651399612e+00
    5.6698787689e+01    5.3868403435e+00
    5.6799095154e+01    5.4084601402e+00
    5.6899394989e+01    5.4300303459e+00
    5.6998844147e+01    5.4513397217e+00
    5.7099479675e+01    5.4728598595e+00
    5.7198535919e+01    5.4939699173e+00
    5.7298126221e+01    5.5151400566e+00
    5.7398303986e+01    5.5363903046e+00
    5.7498462677e+01    5.5575799942e+00
    5.7599483490e+01    5.5788898468e+00
    5.7698429108e+01    5.5997200012e+00
    5.7798900604e+01    5.6208200455e+00
    5.7898387909e+01    5.6416602135e+00
    5.7998489380e+01    5.6625900269e+00
    5.8098590851e+01    5.6834802628e+00
    5.8198692322e+01    5.7043399811e+00
    5.8298336029e+01    5.7250599861e+00
    5.8398750305e+01    5.7459001541e+00
    5.8499137878e+01    5.7666797638e+00
    5.8599510193e+01    5.7874298096e+00
    5.8698715210e+01    5.8078699112e+00
    5.8798801422e+01    5.8284697533e+00
    5.8898906708e+01    5.8490104675e+00
    5.8999023438e+01    5.8695302010e+00
    5.9099143982e+01    5.8899898529e+00
    5.9198684692e+01    5.9103097916e+00
    5.9298103333e+01    5.9305601120e+00
    5.9398941040e+01    5.9510602951e+00
    5.9499332428e+01    5.9714403152e+00
    5.9598171234e+01    5.9914598465e+00
    5.9698547363e+01    6.0117502213e+00
    5.9799266815e+01    6.0320796967e+00
    5.9899276733e+01    6.0522103310e+00
    5.9999275208e+01    6.0723099709e+00
    6.0099266052e+01    6.1035199165e+00
    6.0199249268e+01    6.1347703934e+00
    6.0298599243e+01    6.1657900810e+00
    6.0399562836e+01    6.1972799301e+00
    6.0499507904e+01    6.2284498215e+00
    6.0598796844e+01    6.2593698502e+00
    6.0699085236e+01    6.2905702591e+00
    6.0798671722e+01    6.3215303421e+00
    6.0898384094e+01    6.3525099754e+00
    6.0998741150e+01    6.3836398125e+00
    6.1098243713e+01    6.4144802094e+00
    6.1198612213e+01    6.4455494881e+00
    6.1298496246e+01    6.4764404297e+00
    6.1398799896e+01    6.5074100494e+00
    6.1499267578e+01    6.5383896828e+00
    6.1598220825e+01    6.5688600540e+00
    6.1698783875e+01    6.5997695923e+00
    6.1799381256e+01    6.6306304932e+00
    6.1898834229e+01    6.6610798836e+00
    6.1998859406e+01    6.6916399002e+00
    6.2099220276e+01    6.7222204208e+00
    6.2199611664e+01    6.7527303696e+00
    6.2298370361e+01    6.7826800346e+00
    6.2398792267e+01    6.8130702972e+00
    6.2499240875e+01    6.8433899879e+00
    6.2598773956e+01    6.8733596802e+00
    6.2699558258e+01    6.9036498070e+00
    6.2798755646e+01    6.9333696365e+00
    6.2899490356e+01    6.9634804726e+00
    6.2998657227e+01    6.9930496216e+00
    6.3099346161e+01    7.0229797363e+00
    6.3199203491e+01    7.0525803566e+00
    6.3299476624e+01    7.0822405815e+00
    6.3398059845e+01    7.1113405228e+00
    6.3498203278e+01    7.1408305168e+00
    6.3598281860e+01    7.1702504158e+00
    6.3698345184e+01    7.1996197701e+00
    6.3798412323e+01    7.2289400101e+00
    6.3899494171e+01    7.2585201263e+00
    6.3998321533e+01    7.2874002457e+00
    6.4098655701e+01    7.3166804314e+00
    6.4198974609e+01    7.3459095955e+00
    6.4299301147e+01    7.3750996590e+00
    6.4398712158e+01    7.4039802551e+00
    6.4498733521e+01    7.4330005646e+00
    6.4598770142e+01    7.4619803429e+00
    6.4699050903e+01    7.4909801483e+00
    6.4799507141e+01    7.5199899673e+00
    6.4898460388e+01    7.5485200882e+00
    6.4998977661e+01    7.5774497986e+00
    6.5099517822e+01    7.6063194275e+00
    6.5198020935e+01    7.6345396042e+00
    6.5298271179e+01    7.6631898880e+00
    6.5398559570e+01    7.6917800903e+00
    6.5498901367e+01    7.7203097343e+00
    6.5599288940e+01    7.7487697601e+00
    6.5698081970e+01    7.7766995430e+00
    6.5799057007e+01    7.8051695824e+00
    6.5898315430e+01    7.8330497742e+00
    6.5998672485e+01    7.8611803055e+00
    6.6099273682e+01    7.8893003464e+00
    6.6198547363e+01    7.9168996811e+00
    6.6299369812e+01    7.9449000359e+00
    6.6398918152e+01    7.9724698067e+00
    6.6499366760e+01    8.0001296997e+00
    6.6598175049e+01    8.0273199081e+00
    6.6698631287e+01    8.0547904968e+00
    6.6799079895e+01    8.0821704865e+00
    6.6899513245e+01    8.1094608307e+00
    6.6999481201e+01    8.1366405487e+00
    6.7098686218e+01    8.1634502411e+00
    6.7199401855e+01    8.1905698776e+00
    6.7298522949e+01    8.2172508240e+00
    6.7398216248e+01    8.2439594269e+00
    6.7498466492e+01    8.2708301544e+00
    6.7599105835e+01    8.2976703644e+00
    6.7698150635e+01    8.3239793777e+00
    6.7798721313e+01    8.3506898880e+00
    6.7899284363e+01    8.3773498535e+00
    6.7999114990e+01    8.4037494659e+00
    6.8099319458e+01    8.4301500320e+00
    6.8197891235e+01    8.4560394287e+00
    6.8299293518e+01    8.4827394485e+00
    6.8398277283e+01    8.5086593628e+00
    6.8498756409e+01    8.5348796844e+00
    6.8599227905e+01    8.5611495972e+00
    6.8698150635e+01    8.5868806839e+00
    6.8798355103e+01    8.6128597260e+00
    6.8898590088e+01    8.6387701035e+00
    6.8998832703e+01    8.6647100449e+00
    6.9099082947e+01    8.6905002594e+00
    6.9198181152e+01    8.7160091400e+00
    6.9298210144e+01    8.7417297363e+00
    6.9398376465e+01    8.7673797607e+00
    6.9499244690e+01    8.7931594849e+00
    6.9598175049e+01    8.8183898926e+00
    6.9698638916e+01    8.8439197540e+00
    6.9799362183e+01    8.8695602417e+00
    6.9899452209e+01    8.8948297501e+00
    6.9997894287e+01    8.9197206497e+00
    7.0097953796e+01    8.9559001923e+00
    7.0198013306e+01    8.9922399521e+00
    7.0298385620e+01    9.0285797119e+00
    7.0397972107e+01    9.0646095276e+00
    7.0497970581e+01    9.1008300781e+00
    7.0598266602e+01    9.1370697021e+00
    7.0698616028e+01    9.1732597351e+00
    7.0798156738e+01    9.2091398239e+00
    7.0898239136e+01    9.2451992035e+00
    7.0998672485e+01    9.2813491821e+00
    7.1099128723e+01    9.3174495697e+00
    7.1198059082e+01    9.3528499603e+00
    7.1298225403e+01    9.3887901306e+00
    7.1398330688e+01    9.4245901108e+00
    7.1498901367e+01    9.4604501724e+00
    7.1597961426e+01    9.4958000183e+00
    7.1698646545e+01    9.5316104889e+00
    7.1799377441e+01    9.5673294067e+00
    7.1898872375e+01    9.6025800705e+00
    7.1999336243e+01    9.6380701065e+00
    7.2098213196e+01    9.6728401184e+00
    7.2198783875e+01    9.7082195282e+00
    7.2299377441e+01    9.7433996201e+00
    7.2398338318e+01    9.7779598236e+00
    7.2498985291e+01    9.8130397797e+00
    7.2597938538e+01    9.8474197388e+00
    7.2698936462e+01    9.8824405670e+00
    7.2798332214e+01    9.9167394638e+00
    7.2899261475e+01    9.9515600204e+00
    7.2998626709e+01    9.9856605530e+00
    7.3097946167e+01    1.0019660950e+01
    7.3198951721e+01    1.0054039955e+01
    7.3299400330e+01    1.0088230133e+01
    7.3398155212e+01    1.0121739388e+01
    7.3498458862e+01    1.0155669212e+01
    7.3598686218e+01    1.0189550400e+01
    7.3698890686e+01    1.0223259926e+01
    7.3799095154e+01    1.0256999969e+01
    7.3898948669e+01    1.0290559769e+01
    7.3999420166e+01    1.0324230194e+01
    7.4098297119e+01    1.0357249260e+01
    7.4198692322e+01    1.0390829086e+01
    7.4299095154e+01    1.0424240112e+01
    7.4399269104e+01    1.0457640648e+01
    7.4499359131e+01    1.0490900040e+01
    7.4597831726e+01    1.0523519516e+01
    7.4697959900e+01    1.0556660652e+01
    7.4798286438e+01    1.0589799881e+01
    7.4898857117e+01    1.0623030663e+01
    7.4997894287e+01    1.0655600548e+01
    7.5098503113e+01    1.0688689232e+01
    7.5198562622e+01    1.0721500397e+01
    7.5298904419e+01    1.0754270554e+01
    7.5399284363e+01    1.0786939621e+01
    7.5498069763e+01    1.0819040298e+01
    7.5598571777e+01    1.0851590157e+01
    7.5699127197e+01    1.0884140015e+01
    7.5798065186e+01    1.0916009903e+01
    7.5899368286e+01    1.0948509216e+01
    7.5998306274e+01    1.0980189323e+01
    7.6098739624e+01    1.1012259483e+01
    7.6198127747e+01    1.1043829918e+01
    7.6299057007e+01    1.1075779915e+01
    7.6398429871e+01    1.1107140541e+01
    7.6498603821e+01    1.1138720512e+01
    7.6599174500e+01    1.1170200348e+01
    7.6698097229e+01    1.1201110840e+01
    7.6798660278e+01    1.1232370377e+01
    7.6899208069e+01    1.1263629913e+01
    7.6998306274e+01    1.1294310570e+01
    7.7099166870e+01    1.1325409889e+01
    7.7198432922e+01    1.1355859756e+01
    7.7298416138e+01    1.1386470795e+01
    7.7398780823e+01    1.1417221069e+01
    7.7498352051e+01    1.1447549820e+01
    7.7598548889e+01    1.1478059769e+01
    7.7699234009e+01    1.1508569717e+01
    7.7798362732e+01    1.1538559914e+01
    7.7899032593e+01    1.1568920135e+01
    7.7998100281e+01    1.1598670006e+01
    7.8098434448e+01    1.1628769875e+01
    7.8198776245e+01    1.1658899307e+01
    7.8298385620e+01    1.1688630104e+01
    7.8399032593e+01    1.1718639374e+01
    7.8498085022e+01    1.1748050690e+01
    7.8598670959e+01    1.1777919769e+01
    7.8698104858e+01    1.1807270050e+01
    7.8798423767e+01    1.1836839676e+01
    7.8898788452e+01    1.1866419792e+01
    7.8999168396e+01    1.1895811081e+01
    7.9097923279e+01    1.1924710274e+01
    7.9198036194e+01    1.1953929901e+01
    7.9297828674e+01    1.1983051300e+01
    7.9398124695e+01    1.2012189865e+01
    7.9498718262e+01    1.2041290283e+01
    7.9599296570e+01    1.2070410728e+01
    7.9698318481e+01    1.2098939896e+01
    7.9798080444e+01    1.2127618790e+01
    7.9898269653e+01    1.2156430244e+01
    7.9998451233e+01    1.2185070038e+01
    8.0098617554e+01    1.2225240707e+01
    8.0198776245e+01    1.2265570641e+01
    8.0297973633e+01    1.2305459976e+01
    8.0398445129e+01    1.2345799446e+01
    8.0497947693e+01    1.2385719299e+01
    8.0599060059e+01    1.2426210403e+01
    8.0697914124e+01    1.2465800285e+01
    8.0798088074e+01    1.2505810738e+01
    8.0898307800e+01    1.2545759201e+01
    8.0998809814e+01    1.2585780144e+01
    8.1097900391e+01    1.2625289917e+01
    8.1198966980e+01    1.2665359497e+01
    8.1298370361e+01    1.2704870224e+01
    8.1398605347e+01    1.2744510651e+01
    8.1499275208e+01    1.2784271240e+01
    8.1598442078e+01    1.2823420525e+01
    8.1699234009e+01    1.2863089561e+01
    8.1798530579e+01    1.2902038574e+01
    8.1897857666e+01    1.2940969467e+01
    8.1999053955e+01    1.2980530739e+01
    8.2098083496e+01    1.3019020081e+01
    8.2198829651e+01    1.3058158875e+01
    8.2297943115e+01    1.3096590996e+01
    8.2398750305e+01    1.3135469437e+01
    8.2497940063e+01    1.3173540115e+01
    8.2599136353e+01    1.3212379456e+01
    8.2698791504e+01    1.3250499725e+01
    8.2798385620e+01    1.3288410187e+01
    8.2897949219e+01    1.3326200485e+01
    8.2999046326e+01    1.3364459991e+01
    8.3098541260e+01    1.3402009964e+01
    8.3199142456e+01    1.3439829826e+01
    8.3298110962e+01    1.3476869583e+01
    8.3398666382e+01    1.3514469147e+01
    8.3499122620e+01    1.3551889420e+01
    8.3597854614e+01    1.3588580132e+01
    8.3698188782e+01    1.3625760078e+01
    8.3798522949e+01    1.3662849426e+01
    8.3897804260e+01    1.3699449539e+01
    8.3998382568e+01    1.3736529350e+01
    8.4098884583e+01    1.3773450851e+01
    8.4197814941e+01    1.3809740067e+01
    8.4298294067e+01    1.3846530914e+01
    8.4397979736e+01    1.3882969856e+01
    8.4498130798e+01    1.3919520378e+01
    8.4598312378e+01    1.3955990791e+01
    8.4698509216e+01    1.3992480278e+01
    8.4798606873e+01    1.4028739929e+01
    8.4899253845e+01    1.4065179825e+01
    8.4998344421e+01    1.4100970268e+01
    8.5099014282e+01    1.4137339592e+01
    8.5198188782e+01    1.4172940254e+01
    8.5299186707e+01    1.4209218979e+01
    8.5397994995e+01    1.4244529724e+01
    8.5498504639e+01    1.4280340195e+01
    8.5599098206e+01    1.4316120148e+01
    8.5698104858e+01    1.4351239204e+01
    8.5797729492e+01    1.4386379242e+01
    8.5898422241e+01    1.4421899796e+01
    8.5999107361e+01    1.4457210541e+01
    8.6099044800e+01    1.4492219925e+01
    8.6198532104e+01    1.4526840210e+01
    8.6297996521e+01    1.4561450958e+01
    8.6399009705e+01    1.4596380234e+01
    8.6498611450e+01    1.4630790710e+01
    8.6597625732e+01    1.4664860725e+01
    8.6698287964e+01    1.4699310303e+01
    8.6798950195e+01    1.4733640671e+01
    8.6897956848e+01    1.4767349243e+01
    8.6998817444e+01    1.4801500320e+01
    8.7098220825e+01    1.4835088730e+01
    8.7198150635e+01    1.4868820190e+01
    8.7299079895e+01    1.4902740479e+01
    8.7398658752e+01    1.4936080933e+01
    8.7498130798e+01    1.4969360352e+01
    8.7598899841e+01    1.5002840042e+01
    8.7698127747e+01    1.5035900116e+01
    8.7798904419e+01    1.5069189072e+01
    8.7898139954e+01    1.5102080345e+01
    8.7998779297e+01    1.5135250092e+01
    8.8097587585e+01    1.5167711258e+01
    8.8198059082e+01    1.5200670242e+01
    8.8298675537e+01    1.5233610153e+01
    8.8397895813e+01    1.5266009331e+01
    8.8498611450e+01    1.5298739433e+01
    8.8597763062e+01    1.5330970764e+01
    8.8698501587e+01    1.5363610268e+01
    8.8797897339e+01    1.5395670891e+01
    8.8898391724e+01    1.5427980423e+01
    8.8998924255e+01    1.5460190773e+01
    8.9097831726e+01    1.5491829872e+01
    8.9198394775e+01    1.5523960114e+01
    8.9298904419e+01    1.5555911064e+01
    8.9397712708e+01    1.5587239265e+01
    8.9497779846e+01    1.5618980408e+01
    8.9598510742e+01    1.5650810242e+01
    8.9697662354e+01    1.5681969643e+01
    8.9799003601e+01    1.5713838577e+01
    8.9897674561e+01    1.5744689941e+01
    8.9997970581e+01    1.5776020050e+01
    9.0098243713e+01    1.5821588516e+01
    9.0198501587e+01    1.5867290497e+01
    9.0298751831e+01    1.5912929535e+01
    9.0397926331e+01    1.5958059311e+01
    9.0498855591e+01    1.6003950119e+01
    9.0598960876e+01    1.6049360275e+01
    9.0699050903e+01    1.6094720840e+01
    9.0799163818e+01    1.6140020370e+01
    9.0898490906e+01    1.6184921265e+01
    9.0999046326e+01    1.6230340958e+01
    9.1099060059e+01    1.6275379181e+01
    9.1198524475e+01    1.6320240021e+01
    9.1297676086e+01    1.6364730835e+01
    9.1398414612e+01    1.6409910202e+01
    9.1499061584e+01    1.6455039978e+01
    9.1598091125e+01    1.6499340057e+01
    9.1698982239e+01    1.6544311523e+01
    9.1798377991e+01    1.6588489532e+01
    9.1897811890e+01    1.6632640839e+01
    9.1998817444e+01    1.6677429199e+01
    9.2097976685e+01    1.6721118927e+01
    9.2198867798e+01    1.6765579224e+01
    9.2298149109e+01    1.6809070587e+01
    9.2399131775e+01    1.6853321075e+01
    9.2498512268e+01    1.6896598816e+01
    9.2597877502e+01    1.6939758301e+01
    9.2697708130e+01    1.6983009338e+01
    9.2799026489e+01    1.7026798248e+01
    9.2898323059e+01    1.7069561005e+01
    9.2998008728e+01    1.7112329483e+01
    9.3097648621e+01    1.7154870987e+01
    9.3198387146e+01    1.7197761536e+01
    9.3297500610e+01    1.7239910126e+01
    9.3398200989e+01    1.7282541275e+01
    9.3498794556e+01    1.7325000763e+01
    9.3597633362e+01    1.7366600037e+01
    9.3698081970e+01    1.7408800125e+01
    9.3798515320e+01    1.7450929642e+01
    9.3898735046e+01    1.7492849350e+01
    9.3997825623e+01    1.7534210205e+01
    9.4098381042e+01    1.7576150894e+01
    9.4198898315e+01    1.7617931366e+01
    9.4297859192e+01    1.7659000397e+01
    9.4398071289e+01    1.7700538635e+01
    9.4498252869e+01    1.7742008209e+01
    9.4598472595e+01    1.7783401489e+01
    9.4698722839e+01    1.7824710846e+01
    9.4798881531e+01    1.7865978241e+01
    9.4898048401e+01    1.7906738281e+01
    9.4998756409e+01    1.7948049545e+01
    9.5097946167e+01    1.7988628387e+01
    9.5198738098e+01    1.8029720306e+01
    9.5297683716e+01    1.8069999695e+01
    9.5398208618e+01    1.8110870361e+01
    9.5498626709e+01    1.8151460648e+01
    9.5598861694e+01    1.8192008972e+01
    9.5697959900e+01    1.8231870651e+01
    9.5798217773e+01    1.8272069931e+01
    9.5899002075e+01    1.8312431335e+01
    9.5998146057e+01    1.8351921082e+01
    9.6098182678e+01    1.8391731262e+01
    9.6197776794e+01    1.8431179047e+01
    9.6298912048e+01    1.8471099854e+01
    9.6398475647e+01    1.8510292053e+01
    9.6498977661e+01    1.8549779892e+01
    9.6598091125e+01    1.8588481903e+01
    9.6698844910e+01    1.8627700806e+01
    9.6797950745e+01    1.8666200638e+01
    9.6898712158e+01    1.8705200195e+01
    9.6998214722e+01    1.8743499756e+01
    9.7097724915e+01    1.8781900406e+01
    9.7198402405e+01    1.8820499420e+01
    9.7298225403e+01    1.8858600616e+01
    9.7398559570e+01    1.8896900177e+01
    9.7497909546e+01    1.8934799194e+01
    9.7598747253e+01    1.8973098755e+01
    9.7698051453e+01    1.9010601044e+01
    9.7798912048e+01    1.9048700333e+01
    9.7898231506e+01    1.9086099625e+01
    9.7998313904e+01    1.9123699188e+01
    9.8098892212e+01    1.9161399841e+01
    9.8197853088e+01    1.9198400497e+01
    9.8298690796e+01    1.9236000061e+01
    9.8398025513e+01    1.9273000717e+01
    9.8498847961e+01    1.9310400009e+01
    9.8598106384e+01    1.9347099304e+01
    9.8698974609e+01    1.9384300232e+01
    9.8797836304e+01    1.9420700073e+01
    9.8898475647e+01    1.9457599640e+01
    9.8997512817e+01    1.9493801117e+01
    9.9098251343e+01    1.9530500412e+01
    9.9199012756e+01    1.9567100525e+01
    9.9297470093e+01    1.9602800369e+01
    9.9398101807e+01    1.9639301300e+01
    9.9497741699e+01    1.9675098419e+01
    9.9598617554e+01    1.9711500168e+01
    9.9697898865e+01    1.9747100830e+01
    9.9797409058e+01    1.9782699585e+01
    9.9897827148e+01    1.9818500519e+01
    9.9998229980e+01    1.9854198456e+01
    1.0009860229e+02    1.9907199860e+01
    1.0019895935e+02    1.9960399628e+01
    1.0029766846e+02    2.0012599945e+01
    1.0039761353e+02    2.0065498352e+01
    1.0049803925e+02    2.0118499756e+01
    1.0059819031e+02    2.0171298981e+01
    1.0069831848e+02    2.0223999023e+01
    1.0079846191e+02    2.0276802063e+01
    1.0089839935e+02    2.0329299927e+01
    1.0099899292e+02    2.0382101059e+01
    1.0109806824e+02    2.0433998108e+01
    1.0119821167e+02    2.0486499786e+01
    1.0129826355e+02    2.0538700104e+01
    1.0139749908e+02    2.0590501785e+01
    1.0149790192e+02    2.0642799377e+01
    1.0159793091e+02    2.0694900513e+01
    1.0169889832e+02    2.0747398376e+01
    1.0179837036e+02    2.0798900604e+01
    1.0189788818e+02    2.0850299835e+01
    1.0199812317e+02    2.0902000427e+01
    1.0209883881e+02    2.0953800201e+01
    1.0219863129e+02    2.1004899979e+01
    1.0229736328e+02    2.1055400848e+01
    1.0239849091e+02    2.1107000351e+01
    1.0249801636e+02    2.1157598495e+01
    1.0259841919e+02    2.1208499908e+01
    1.0269841003e+02    2.1258998871e+01
    1.0279743195e+02    2.1308900833e+01
    1.0289849854e+02    2.1359701157e+01
    1.0299900055e+02    2.1409999847e+01
    1.0309874725e+02    2.1459798813e+01
    1.0319805145e+02    2.1509199142e+01
    1.0329891968e+02    2.1559200287e+01
    1.0339807892e+02    2.1608299255e+01
    1.0349875641e+02    2.1657897949e+01
    1.0359767914e+02    2.1706600189e+01
    1.0369821167e+02    2.1756000519e+01
    1.0379872131e+02    2.1805202484e+01
    1.0389772797e+02    2.1853698730e+01
    1.0399839783e+02    2.1902900696e+01
    1.0409898376e+02    2.1951900482e+01
    1.0419795990e+02    2.2000099182e+01
    1.0429847717e+02    2.2048900604e+01
    1.0439781952e+02    2.2097200394e+01
    1.0449800873e+02    2.2145700455e+01
    1.0459824371e+02    2.2194200516e+01
    1.0469851685e+02    2.2242698669e+01
    1.0479872131e+02    2.2291000366e+01
    1.0489794922e+02    2.2338800430e+01
    1.0499871826e+02    2.2387199402e+01
    1.0509796143e+02    2.2434799194e+01
    1.0519880676e+02    2.2483098984e+01
    1.0529811096e+02    2.2530498505e+01
    1.0539871216e+02    2.2578399658e+01
    1.0549797058e+02    2.2625499725e+01
    1.0559771729e+02    2.2672800064e+01
    1.0569760895e+02    2.2719898224e+01
    1.0579885864e+02    2.2767702103e+01
    1.0589743042e+02    2.2813999176e+01
    1.0599835205e+02    2.2861198425e+01
    1.0609763336e+02    2.2907598495e+01
    1.0619763947e+02    2.2954200745e+01
    1.0629888916e+02    2.3001098633e+01
    1.0639858246e+02    2.3047199249e+01
    1.0649806213e+02    2.3093200684e+01
    1.0659837341e+02    2.3139202118e+01
    1.0669835663e+02    2.3184999466e+01
    1.0679754639e+02    2.3230400085e+01
    1.0689842224e+02    2.3276199341e+01
    1.0699841309e+02    2.3321601868e+01
    1.0709803009e+02    2.3366703033e+01
    1.0719848633e+02    2.3412099838e+01
    1.0729750824e+02    2.3456699371e+01
    1.0739810944e+02    2.3501899719e+01
    1.0749771118e+02    2.3546600342e+01
    1.0759860229e+02    2.3591697693e+01
    1.0769795227e+02    2.3636001587e+01
    1.0779885864e+02    2.3680900574e+01
    1.0789824677e+02    2.3724998474e+01
    1.0799849701e+02    2.3769397736e+01
    1.0809751892e+02    2.3813201904e+01
    1.0819824219e+02    2.3857601166e+01
    1.0829821777e+02    2.3901599884e+01
    1.0839765930e+02    2.3945301056e+01
    1.0849858093e+02    2.3989500046e+01
    1.0859793854e+02    2.4032897949e+01
    1.0869889832e+02    2.4076801300e+01
    1.0879839325e+02    2.4120098114e+01
    1.0889752197e+02    2.4163101196e+01
    1.0899835205e+02    2.4206600189e+01
    1.0909757996e+02    2.4249300003e+01
    1.0919790649e+02    2.4292400360e+01
    1.0929759979e+02    2.4335100174e+01
    1.0939836884e+02    2.4378200531e+01
    1.0949816895e+02    2.4420700073e+01
    1.0959761810e+02    2.4463001251e+01
    1.0969857025e+02    2.4505798340e+01
    1.0979839325e+02    2.4547998428e+01
    1.0989724731e+02    2.4589801788e+01
    1.0999772644e+02    2.4631999969e+01
    1.1009816742e+02    2.4695198059e+01
    1.1019860840e+02    2.4758699417e+01
    1.1029739380e+02    2.4821098328e+01
    1.1039779663e+02    2.4884500504e+01
    1.1049887085e+02    2.4948101044e+01
    1.1059739685e+02    2.5010198593e+01
    1.1069754028e+02    2.5073200226e+01
    1.1079766846e+02    2.5136100769e+01
    1.1089855957e+02    2.5199499130e+01
    1.1099758911e+02    2.5261499405e+01
    1.1109839630e+02    2.5324701309e+01
    1.1119872284e+02    2.5387500763e+01
    1.1129740143e+02    2.5449199677e+01
    1.1139820862e+02    2.5512098312e+01
    1.1149748993e+02    2.5574001312e+01
    1.1159802246e+02    2.5636501312e+01
    1.1169774628e+02    2.5698499680e+01
    1.1179882812e+02    2.5761198044e+01
    1.1189839172e+02    2.5822698593e+01
    1.1199748993e+02    2.5883901596e+01
    1.1209845734e+02    2.5946098328e+01
    1.1219869995e+02    2.6007698059e+01
    1.1229734802e+02    2.6068199158e+01
    1.1239859009e+02    2.6130001068e+01
    1.1249825287e+02    2.6190799713e+01
    1.1259860229e+02    2.6251798630e+01
    1.1269872284e+02    2.6312498093e+01
    1.1279875183e+02    2.6373001099e+01
    1.1289827728e+02    2.6433099747e+01
    1.1299752045e+02    2.6492698669e+01
    1.1309738159e+02    2.6552598953e+01
    1.1319831848e+02    2.6612899780e+01
    1.1329762268e+02    2.6672101974e+01
    1.1339849854e+02    2.6732198715e+01
    1.1349758911e+02    2.6790899277e+01
    1.1359819794e+02    2.6850500107e+01
    1.1369877625e+02    2.6909900665e+01
    1.1379768372e+02    2.6968202591e+01
    1.1389835358e+02    2.7027502060e+01
    1.1399746704e+02    2.7085901260e+01
    1.1409803772e+02    2.7145000458e+01
    1.1419854736e+02    2.7203899384e+01
    1.1429749298e+02    2.7261800766e+01
    1.1439795685e+02    2.7320598602e+01
    1.1449871063e+02    2.7379400253e+01
    1.1459726715e+02    2.7436897278e+01
    1.1469754028e+02    2.7495298386e+01
    1.1479766083e+02    2.7553598404e+01
    1.1489848328e+02    2.7612001419e+01
    1.1499772644e+02    2.7669599533e+01
    1.1509857178e+02    2.7728000641e+01
    1.1519824982e+02    2.7785499573e+01
    1.1529720306e+02    2.7842599869e+01
    1.1539865875e+02    2.7900899887e+01
    1.1549820709e+02    2.7958000183e+01
    1.1559786224e+02    2.8014902115e+01
    1.1569760895e+02    2.8071798325e+01
    1.1579740906e+02    2.8128499985e+01
    1.1589843750e+02    2.8185899734e+01
    1.1599783325e+02    2.8242000580e+01
    1.1609723663e+02    2.8298200607e+01
    1.1619870758e+02    2.8355199814e+01
    1.1629853821e+02    2.8411201477e+01
    1.1639833832e+02    2.8467000961e+01
    1.1649813843e+02    2.8522598267e+01
    1.1659792328e+02    2.8578098297e+01
    1.1669824219e+02    2.8633602142e+01
    1.1679752350e+02    2.8688400269e+01
    1.1689846802e+02    2.8743999481e+01
    1.1699816895e+02    2.8798698425e+01
    1.1709786987e+02    2.8853399277e+01
    1.1719792175e+02    2.8907999039e+01
    1.1729865265e+02    2.8963001251e+01
    1.1739762878e+02    2.9016801834e+01
    1.1749801636e+02    2.9071300507e+01
    1.1759738922e+02    2.9125101089e+01
    1.1769831085e+02    2.9179599762e+01
    1.1779768372e+02    2.9233200073e+01
    1.1789864349e+02    2.9287500381e+01
    1.1799746704e+02    2.9340599060e+01
    1.1809818268e+02    2.9394598007e+01
    1.1819730377e+02    2.9447601318e+01
    1.1829847717e+02    2.9501600266e+01
    1.1839798737e+02    2.9554599762e+01
    1.1849741364e+02    2.9607400894e+01
    1.1859837341e+02    2.9661001205e+01
    1.1869783783e+02    2.9713500977e+01
    1.1879739380e+02    2.9766000748e+01
    1.1889729309e+02    2.9818599701e+01
    1.1899820709e+02    2.9871500015e+01
    1.1909752655e+02    2.9923498154e+01
    1.1919847870e+02    2.9976099014e+01
    1.1929866028e+02    3.0028299332e+01
    1.1939778137e+02    3.0079799652e+01
    1.1949736786e+02    3.0131298065e+01
    1.1959845734e+02    3.0183601379e+01
    1.1969795227e+02    3.0234901428e+01
    1.1979775238e+02    3.0286201477e+01
    1.1989830780e+02    3.0337799072e+01
    1.1999716187e+02    3.0388401031e+01
    1.2009763336e+02    3.0462701797e+01
    1.2019808960e+02    3.0537500381e+01
    1.2029853821e+02    3.0612298965e+01
    1.2039749146e+02    3.0685800552e+01
    1.2049719238e+02    3.0759901047e+01
    1.2059735870e+02    3.0834197998e+01
    1.2069745636e+02    3.0908401489e+01
    1.2079754639e+02    3.0982501984e+01
    1.2089856720e+02    3.1057201385e+01
    1.2099752045e+02    3.1130298615e+01
    1.2109806824e+02    3.1204599380e+01
    1.2119793701e+02    3.1278301239e+01
    1.2129810333e+02    3.1352001190e+01
    1.2139730835e+02    3.1424999237e+01
    1.2149810791e+02    3.1499002457e+01
    1.2159729004e+02    3.1571899414e+01
    1.2169834900e+02    3.1645898819e+01
    1.2179788208e+02    3.1718702316e+01
    1.2189745331e+02    3.1791399002e+01
    1.2199735260e+02    3.1864101410e+01
    1.2209835052e+02    3.1937501907e+01
    1.2219854736e+02    3.2010200500e+01
    1.2229857635e+02    3.2082599640e+01
    1.2239768219e+02    3.2154098511e+01
    1.2249742126e+02    3.2225898743e+01
    1.2259796906e+02    3.2298099518e+01
    1.2269819641e+02    3.2369903564e+01
    1.2279744720e+02    3.2440795898e+01
    1.2289707184e+02    3.2511802673e+01
    1.2299794006e+02    3.2583503723e+01
    1.2309786224e+02    3.2654296875e+01
    1.2319766998e+02    3.2724800110e+01
    1.2329704285e+02    3.2794898987e+01
    1.2339798737e+02    3.2865898132e+01
    1.2349710846e+02    3.2935501099e+01
    1.2359776306e+02    3.3005901337e+01
    1.2369837952e+02    3.3076198578e+01
    1.2379730225e+02    3.3145301819e+01
    1.2389836121e+02    3.3215599060e+01
    1.2399745178e+02    3.3284599304e+01
    1.2409861755e+02    3.3354904175e+01
    1.2419757080e+02    3.3423500061e+01
    1.2429799652e+02    3.3493099213e+01
    1.2439842224e+02    3.3562599182e+01
    1.2449741364e+02    3.3630897522e+01
    1.2459757996e+02    3.3700099945e+01
    1.2469780731e+02    3.3769104004e+01
    1.2479731750e+02    3.3837600708e+01
    1.2489810944e+02    3.3906700134e+01
    1.2499735260e+02    3.3974700928e+01
    1.2509738159e+02    3.4043300629e+01
    1.2519792175e+02    3.4111900330e+01
    1.2529855347e+02    3.4180500031e+01
    1.2539733124e+02    3.4247596741e+01
    1.2549848175e+02    3.4316101074e+01
    1.2559816742e+02    3.4383598328e+01
    1.2569793701e+02    3.4450901031e+01
    1.2579778290e+02    3.4518096924e+01
    1.2589769745e+02    3.4584999084e+01
    1.2599716949e+02    3.4651599884e+01
    1.2609832001e+02    3.4719100952e+01
    1.2619714355e+02    3.4784797668e+01
    1.2629862213e+02    3.4852096558e+01
    1.2639849854e+02    3.4918197632e+01
    1.2649836731e+02    3.4983898163e+01
    1.2659821320e+02    3.5049499512e+01
    1.2669799805e+02    3.5114898682e+01
    1.2679756165e+02    3.5179901123e+01
    1.2689852905e+02    3.5245697021e+01
    1.2699774933e+02    3.5310100555e+01
    1.2709764862e+02    3.5374900818e+01
    1.2719848633e+02    3.5440101624e+01
    1.2729759216e+02    3.5503997803e+01
    1.2739821625e+02    3.5568801880e+01
    1.2749790192e+02    3.5632801056e+01
    1.2759723663e+02    3.5696502686e+01
    1.2769812012e+02    3.5761001587e+01
    1.2779743195e+02    3.5824401855e+01
    1.2789833832e+02    3.5888702393e+01
    1.2799722290e+02    3.5951499939e+01
    1.2809788513e+02    3.6015399933e+01
    1.2819859314e+02    3.6079200745e+01
    1.2829808044e+02    3.6142097473e+01
    1.2839758301e+02    3.6204902649e+01
    1.2849856567e+02    3.6268402100e+01
    1.2859796143e+02    3.6330894470e+01
    1.2869741821e+02    3.6393199921e+01
    1.2879853821e+02    3.6456398010e+01
    1.2889797974e+02    3.6518402100e+01
    1.2899728394e+02    3.6580101013e+01
    1.2909791565e+02    3.6642601013e+01
    1.2919775391e+02    3.6704299927e+01
    1.2929753113e+02    3.6765899658e+01
    1.2939721680e+02    3.6827301025e+01
    1.2949838257e+02    3.6889495850e+01
    1.2959838867e+02    3.6950702667e+01
    1.2969790649e+02    3.7011497498e+01
    1.2979780579e+02    3.7072502136e+01
    1.2989839172e+02    3.7133598328e+01
    1.2999765015e+02    3.7193798065e+01
    1.3009811401e+02    3.7279796600e+01
    1.3019854736e+02    3.7366199493e+01
    1.3029731750e+02    3.7451103210e+01
    1.3039796448e+02    3.7537498474e+01
    1.3049731445e+02    3.7622604370e+01
    1.3059744263e+02    3.7708301544e+01
    1.3069747925e+02    3.7793899536e+01
    1.3079747009e+02    3.7879402161e+01
    1.3089741516e+02    3.7964702606e+01
    1.3099781799e+02    3.8050399780e+01
    1.3109826660e+02    3.8135902405e+01
    1.3119873047e+02    3.8221405029e+01
    1.3129742432e+02    3.8305397034e+01
    1.3139808655e+02    3.8390899658e+01
    1.3149879456e+02    3.8476303101e+01
    1.3159805298e+02    3.8560199738e+01
    1.3169767761e+02    3.8644496918e+01
    1.3179754639e+02    3.8728797913e+01
    1.3189866638e+02    3.8813999176e+01
    1.3199757385e+02    3.8897201538e+01
    1.3209857178e+02    3.8981903076e+01
    1.3219819641e+02    3.9065200806e+01
    1.3229826355e+02    3.9148799896e+01
    1.3239842224e+02    3.9232200623e+01
    1.3249851990e+02    3.9315399170e+01
    1.3259863281e+02    3.9398395538e+01
    1.3269755554e+02    3.9480094910e+01
    1.3279733276e+02    3.9562500000e+01
    1.3289866638e+02    3.9645797729e+01
    1.3299803162e+02    3.9727298737e+01
    1.3309800720e+02    3.9808998108e+01
    1.3319775391e+02    3.9890396118e+01
    1.3329884338e+02    3.9972698212e+01
    1.3339854431e+02    4.0053600311e+01
    1.3349763489e+02    4.0133701324e+01
    1.3359831238e+02    4.0215099335e+01
    1.3369894409e+02    4.0296298981e+01
    1.3379786682e+02    4.0375896454e+01
    1.3389753723e+02    4.0456001282e+01
    1.3399858093e+02    4.0537097931e+01
    1.3409869385e+02    4.0617301941e+01
    1.3419778442e+02    4.0696502686e+01
    1.3429815674e+02    4.0776695251e+01
    1.3439851379e+02    4.0856700897e+01
    1.3449812317e+02    4.0935997009e+01
    1.3459820557e+02    4.1015499115e+01
    1.3469836426e+02    4.1095005035e+01
    1.3479844666e+02    4.1174201965e+01
    1.3489758301e+02    4.1252700806e+01
    1.3499827576e+02    4.1332199097e+01
    1.3509764099e+02    4.1410400391e+01
    1.3519810486e+02    4.1489402771e+01
    1.3529867554e+02    4.1568302155e+01
    1.3539773560e+02    4.1645801544e+01
    1.3549792480e+02    4.1723899841e+01
    1.3559759521e+02    4.1801494598e+01
    1.3569888306e+02    4.1880203247e+01
    1.3579867554e+02    4.1957298279e+01
    1.3589772034e+02    4.2033695221e+01
    1.3599885559e+02    4.2111602783e+01
    1.3609834290e+02    4.2187896729e+01
    1.3619784546e+02    4.2264003754e+01
    1.3629899597e+02    4.2341094971e+01
    1.3639845276e+02    4.2416698456e+01
    1.3649876404e+02    4.2492702484e+01
    1.3659858704e+02    4.2568202972e+01
    1.3669839478e+02    4.2643299103e+01
    1.3679815674e+02    4.2718303680e+01
    1.3689805603e+02    4.2792995453e+01
    1.3699896240e+02    4.2868400574e+01
    1.3709815979e+02    4.2942295074e+01
    1.3719894409e+02    4.3017200470e+01
    1.3729797363e+02    4.3090702057e+01
    1.3739852905e+02    4.3165000916e+01
    1.3749896240e+02    4.3239303589e+01
    1.3759906006e+02    4.3313102722e+01
    1.3769827271e+02    4.3385997772e+01
    1.3779899597e+02    4.3459896088e+01
    1.3789823914e+02    4.3532600403e+01
    1.3799818420e+02    4.3605701447e+01
    1.3809872437e+02    4.3679100037e+01
    1.3819766235e+02    4.3751201630e+01
    1.3829826355e+02    4.3824302673e+01
    1.3839894104e+02    4.3897300720e+01
    1.3849832153e+02    4.3969303131e+01
    1.3859922791e+02    4.4042198181e+01
    1.3869865417e+02    4.4113899231e+01
    1.3879818726e+02    4.4185398102e+01
    1.3889869690e+02    4.4257499695e+01
    1.3899798584e+02    4.4328502655e+01
    1.3909805298e+02    4.4399803162e+01
    1.3919790649e+02    4.4470897675e+01
    1.3929922485e+02    4.4542800903e+01
    1.3939889526e+02    4.4613399506e+01
    1.3949848938e+02    4.4683696747e+01
    1.3959921265e+02    4.4754596710e+01
    1.3969900513e+02    4.4824798584e+01
    1.3979888916e+02    4.4894702911e+01
    1.3989784241e+02    4.4963901520e+01
    1.3999880981e+02    4.5034305573e+01
    1.4009895325e+02    4.5128498077e+01
    1.4019770813e+02    4.5221599579e+01
    1.4029931641e+02    4.5317298889e+01
    1.4039883423e+02    4.5410800934e+01
    1.4049908447e+02    4.5504901886e+01
    1.4059910583e+02    4.5598701477e+01
    1.4069906616e+02    4.5692298889e+01
    1.4079896545e+02    4.5785594940e+01
    1.4089801025e+02    4.5878200531e+01
    1.4099829102e+02    4.5971797943e+01
    1.4109863281e+02    4.6065299988e+01
    1.4119902039e+02    4.6158599854e+01
    1.4129789734e+02    4.6250503540e+01
    1.4139840698e+02    4.6343799591e+01
    1.4149897766e+02    4.6436901093e+01
    1.4159809875e+02    4.6528602600e+01
    1.4169807434e+02    4.6620895386e+01
    1.4179895020e+02    4.6713901520e+01
    1.4189811707e+02    4.6805103302e+01
    1.4199890137e+02    4.6897701263e+01
    1.4209819031e+02    4.6988498688e+01
    1.4219903564e+02    4.7080703735e+01
    1.4229911804e+02    4.7171798706e+01
    1.4239929199e+02    4.7262897491e+01
    1.4249798584e+02    4.7352298737e+01
    1.4259878540e+02    4.7443504333e+01
    1.4269871521e+02    4.7533500671e+01
    1.4279849243e+02    4.7623298645e+01
    1.4289849854e+02    4.7712902069e+01
    1.4299856567e+02    4.7802303314e+01
    1.4309939575e+02    4.7892101288e+01
    1.4319888306e+02    4.7980503082e+01
    1.4329837036e+02    4.8068599701e+01
    1.4339881897e+02    4.8157402039e+01
    1.4349829102e+02    4.8244998932e+01
    1.4359901428e+02    4.8333599091e+01
    1.4369804382e+02    4.8420501709e+01
    1.4379948425e+02    4.8509204865e+01
    1.4389863586e+02    4.8595798492e+01
    1.4399841309e+02    4.8682903290e+01
    1.4409846497e+02    4.8769897461e+01
    1.4419880676e+02    4.8857002258e+01
    1.4429913330e+02    4.8944000244e+01
    1.4439941406e+02    4.9030700684e+01
    1.4449818420e+02    4.9116096497e+01
    1.4459843445e+02    4.9202495575e+01
    1.4469845581e+02    4.9288597107e+01
    1.4479898071e+02    4.9374900818e+01
    1.4489952087e+02    4.9461002350e+01
    1.4499850464e+02    4.9545700073e+01
    1.4509913635e+02    4.9631500244e+01
    1.4519943237e+02    4.9716899872e+01
    1.4529823303e+02    4.9800796509e+01
    1.4539884949e+02    4.9885997772e+01
    1.4549905396e+02    4.9970695496e+01
    1.4559866333e+02    5.0054496765e+01
    1.4569827271e+02    5.0138099670e+01
    1.4579949951e+02    5.0222896576e+01
    1.4589967346e+02    5.0306499481e+01
    1.4599902344e+02    5.0389095306e+01
    1.4609843445e+02    5.0471500397e+01
    1.4619949341e+02    5.0555004120e+01
    1.4629890442e+02    5.0636898041e+01
    1.4639828491e+02    5.0718605042e+01
    1.4649859619e+02    5.0800701141e+01
    1.4659832764e+02    5.0882102966e+01
    1.4669960022e+02    5.0964401245e+01
    1.4679930115e+02    5.1045299530e+01
    1.4689895630e+02    5.1125801086e+01
    1.4699862671e+02    5.1206298828e+01
    1.4709931946e+02    5.1287300110e+01
    1.4719830322e+02    5.1366802216e+01
    1.4729884338e+02    5.1447196960e+01
    1.4739921570e+02    5.1527400970e+01
    1.4749946594e+02    5.1607299805e+01
    1.4759971619e+02    5.1687000275e+01
    1.4769874573e+02    5.1765701294e+01
    1.4779931641e+02    5.1845397949e+01
    1.4789837646e+02    5.1923698425e+01
    1.4799914551e+02    5.2003295898e+01
    1.4809881592e+02    5.2081699371e+01
    1.4819937134e+02    5.2160800934e+01
    1.4829978943e+02    5.2239501953e+01
    1.4839930725e+02    5.2317398071e+01
    1.4849859619e+02    5.2394996643e+01
    1.4859945679e+02    5.2473503113e+01
    1.4869882202e+02    5.2550601959e+01
    1.4879832458e+02    5.2627803802e+01
    1.4889836121e+02    5.2705303192e+01
    1.4899934387e+02    5.2783397675e+01
    1.4909965515e+02    5.2860095978e+01
    1.4919953918e+02    5.2937000275e+01
    1.4929936218e+02    5.3012802124e+01
    1.4939907837e+02    5.3088500977e+01
    1.4949867249e+02    5.3164196014e+01
    1.4959951782e+02    5.3241096497e+01
    1.4969857788e+02    5.3315898895e+01
    1.4979928589e+02    5.3391601562e+01
    1.4989831543e+02    5.3465904236e+01
    1.4999844360e+02    5.3540798187e+01
    1.5009982300e+02    5.3639999390e+01
    1.5019857788e+02    5.3738002777e+01
    1.5029881287e+02    5.3836200714e+01
    1.5039935303e+02    5.3934703827e+01
    1.5049972534e+02    5.4032299042e+01
    1.5059971619e+02    5.4130203247e+01
    1.5069960022e+02    5.4228096008e+01
    1.5079942322e+02    5.4324802399e+01
    1.5089970398e+02    5.4421897888e+01
    1.5099987793e+02    5.4519901276e+01
    1.5109855652e+02    5.4614498138e+01
    1.5119882202e+02    5.4712200165e+01
    1.5129908752e+02    5.4808597565e+01
    1.5139938354e+02    5.4905799866e+01
    1.5149975586e+02    5.5001804352e+01
    1.5159864807e+02    5.5096298218e+01
    1.5169856262e+02    5.5192401886e+01
    1.5179890442e+02    5.5288799286e+01
    1.5189938354e+02    5.5383800507e+01
    1.5200001526e+02    5.5480396271e+01
    1.5209915161e+02    5.5573501587e+01
    1.5219969177e+02    5.5668697357e+01
    1.5229971313e+02    5.5763198853e+01
    1.5239985657e+02    5.5857295990e+01
    1.5249853516e+02    5.5950000763e+01
    1.5259881592e+02    5.6044395447e+01
    1.5269865417e+02    5.6137100220e+01
    1.5280007935e+02    5.6231601715e+01
    1.5289971924e+02    5.6323898315e+01
    1.5299972534e+02    5.6416503906e+01
    1.5309895325e+02    5.6507698059e+01
    1.5320008850e+02    5.6600299835e+01
    1.5329959106e+02    5.6691596985e+01
    1.5339892578e+02    5.6781902313e+01
    1.5349899292e+02    5.6872997284e+01
    1.5359980774e+02    5.6963901520e+01
    1.5369886780e+02    5.7053798676e+01
    1.5379875183e+02    5.7144401550e+01
    1.5389941406e+02    5.7234794617e+01
    1.5399943542e+02    5.7324798584e+01
    1.5409939575e+02    5.7413696289e+01
    1.5419932556e+02    5.7503398895e+01
    1.5429899597e+02    5.7592304230e+01
    1.5439924622e+02    5.7681198120e+01
    1.5449951172e+02    5.7770900726e+01
    1.5459892273e+02    5.7858497620e+01
    1.5469885254e+02    5.7947303772e+01
    1.5479905701e+02    5.8035499573e+01
    1.5489941406e+02    5.8124202728e+01
    1.5499975586e+02    5.8211795807e+01
    1.5510020447e+02    5.8299999237e+01
    1.5519865417e+02    5.8385597229e+01
    1.5529893494e+02    5.8473499298e+01
    1.5539941406e+02    5.8559898376e+01
    1.5549934387e+02    5.8646800995e+01
    1.5559884644e+02    5.8732997894e+01
    1.5569993591e+02    5.8819797516e+01
    1.5579946899e+02    5.8905403137e+01
    1.5589881897e+02    5.8989898682e+01
    1.5599964905e+02    5.9076301575e+01
    1.5609889221e+02    5.9160400391e+01
    1.5619984436e+02    5.9244899750e+01
    1.5629914856e+02    5.9329399109e+01
    1.5640005493e+02    5.9413402557e+01
    1.5649925232e+02    5.9497398376e+01
    1.5659895325e+02    5.9580501556e+01
    1.5670010376e+02    5.9664402008e+01
    1.5679968262e+02    5.9747100830e+01
    1.5689921570e+02    5.9829704285e+01
    1.5700018311e+02    5.9911998749e+01
    1.5710003662e+02    5.9994701385e+01
    1.5719883728e+02    6.0075500488e+01
    1.5729916382e+02    6.0158103943e+01
    1.5739930725e+02    6.0239799500e+01
    1.5749929810e+02    6.0320404053e+01
    1.5760023499e+02    6.0402595520e+01
    1.5769902039e+02    6.0482501984e+01
    1.5779937744e+02    6.0564098358e+01
    1.5789981079e+02    6.0645401001e+01
    1.5800036621e+02    6.0725402832e+01
    1.5809999084e+02    6.0805400848e+01
    1.5820010376e+02    6.0885604858e+01
    1.5830035400e+02    6.0966499329e+01
    1.5839970398e+02    6.1045402527e+01
    1.5850039673e+02    6.1125198364e+01
    1.5859959412e+02    6.1203804016e+01
    1.5869894409e+02    6.1283100128e+01
    1.5880001831e+02    6.1362602234e+01
    1.5889973450e+02    6.1440898895e+01
    1.5900045776e+02    6.1519401550e+01
    1.5910038757e+02    6.1597896576e+01
    1.5920033264e+02    6.1675998688e+01
    1.5930026245e+02    6.1752895355e+01
    1.5940013123e+02    6.1830699921e+01
    1.5949986267e+02    6.1907302856e+01
    1.5959992981e+02    6.1984199524e+01
    1.5970042419e+02    6.2061203003e+01
    1.5979937744e+02    6.2136100769e+01
    1.5989991760e+02    6.2212501526e+01
    1.5999955750e+02    6.2287899017e+01
    1.6009945679e+02    6.2384597778e+01
    1.6019999695e+02    6.2482196808e+01
    1.6029956055e+02    6.2578895569e+01
    1.6040017700e+02    6.2675903320e+01
    1.6049943542e+02    6.2771503448e+01
    1.6059945679e+02    6.2867900848e+01
    1.6069937134e+02    6.2963199615e+01
    1.6079919434e+02    6.3059398651e+01
    1.6090058899e+02    6.3156097412e+01
    1.6100035095e+02    6.3250995636e+01
    1.6110008240e+02    6.3345695496e+01
    1.6120022583e+02    6.3440601349e+01
    1.6130033875e+02    6.3535301208e+01
    1.6140045166e+02    6.3629901886e+01
    1.6150056458e+02    6.3724197388e+01
    1.6159919739e+02    6.3816398621e+01
    1.6170042419e+02    6.3911697388e+01
    1.6180044556e+02    6.4004394531e+01
    1.6189970398e+02    6.4097007751e+01
    1.6200039673e+02    6.4191299438e+01
    1.6210055542e+02    6.4284004211e+01
    1.6219932556e+02    6.4374496460e+01
    1.6229995728e+02    6.4468002319e+01
    1.6239994812e+02    6.4559097290e+01
    1.6250006104e+02    6.4650810242e+01
    1.6260025024e+02    6.4742095947e+01
    1.6269911194e+02    6.4832000732e+01
    1.6280029297e+02    6.4924194336e+01
    1.6289912415e+02    6.5013595581e+01
    1.6299943542e+02    6.5103500366e+01
    1.6309927368e+02    6.5192703247e+01
    1.6319975281e+02    6.5282699585e+01
    1.6329919434e+02    6.5371902466e+01
    1.6339987183e+02    6.5460998535e+01
    1.6349919128e+02    6.5548805237e+01
    1.6359997559e+02    6.5637207031e+01
    1.6370071411e+02    6.5726394653e+01
    1.6379924011e+02    6.5812705994e+01
    1.6389988708e+02    6.5900505066e+01
    1.6400065613e+02    6.5988891602e+01
    1.6410057068e+02    6.6075393677e+01
    1.6420045471e+02    6.6162696838e+01
    1.6430012512e+02    6.6248008728e+01
    1.6440036011e+02    6.6335304260e+01
    1.6450061035e+02    6.6421394348e+01
    1.6459930420e+02    6.6506599426e+01
    1.6469955444e+02    6.6592201233e+01
    1.6479981995e+02    6.6677497864e+01
    1.6490008545e+02    6.6762603760e+01
    1.6500030518e+02    6.6848503113e+01
    1.6510040283e+02    6.6933303833e+01
    1.6520027161e+02    6.7017303467e+01
    1.6529980469e+02    6.7100502014e+01
    1.6540028381e+02    6.7184898376e+01
    1.6550033569e+02    6.7268806458e+01
    1.6559982300e+02    6.7352203369e+01
    1.6569937134e+02    6.7434196472e+01
    1.6580049133e+02    6.7518493652e+01
    1.6589985657e+02    6.7600204468e+01
    1.6600065613e+02    6.7682395935e+01
    1.6609982300e+02    6.7763809204e+01
    1.6620069885e+02    6.7846298218e+01
    1.6629995728e+02    6.7926902771e+01
    1.6640005493e+02    6.8007995605e+01
    1.6649963379e+02    6.8087501526e+01
    1.6660075378e+02    6.8169303894e+01
    1.6670031738e+02    6.8248291016e+01
    1.6679986572e+02    6.8328094482e+01
    1.6690097046e+02    6.8408096313e+01
    1.6699986267e+02    6.8486396790e+01
    1.6710029602e+02    6.8565895081e+01
    1.6720060730e+02    6.8644500732e+01
    1.6730075073e+02    6.8723098755e+01
    1.6740069580e+02    6.8801704407e+01
    1.6749989319e+02    6.8879295349e+01
    1.6760052490e+02    6.8957389832e+01
    1.6769973755e+02    6.9034599304e+01
    1.6779985046e+02    6.9112106323e+01
    1.6790008545e+02    6.9189201355e+01
    1.6800047302e+02    6.9265907288e+01
    1.6810089111e+02    6.9343307495e+01
    1.6819972229e+02    6.9419006348e+01
    1.6829995728e+02    6.9495292664e+01
    1.6840101624e+02    6.9571899414e+01
    1.6849998474e+02    6.9647796631e+01
    1.6859976196e+02    6.9722991943e+01
    1.6870039368e+02    6.9798606873e+01
    1.6879978943e+02    6.9872901917e+01
    1.6890104675e+02    6.9948898315e+01
    1.6900088501e+02    7.0022895813e+01
    1.6909999084e+02    7.0096801758e+01
    1.6919999695e+02    7.0170005798e+01
    1.6930000305e+02    7.0243896484e+01
    1.6939999390e+02    7.0317504883e+01
    1.6949992371e+02    7.0389801025e+01
    1.6960099792e+02    7.0463005066e+01
    1.6970071411e+02    7.0535102844e+01
    1.6979986572e+02    7.0606796265e+01
    1.6990084839e+02    7.0679100037e+01
    1.7000071716e+02    7.0750991821e+01
    1.7010044861e+02    7.0841796875e+01
    1.7020010376e+02    7.0932403564e+01
    1.7030073547e+02    7.1024093628e+01
    1.7039956665e+02    7.1113502502e+01
    1.7050013733e+02    7.1203804016e+01
    1.7060087585e+02    7.1294403076e+01
    1.7070094299e+02    7.1383995056e+01
    1.7080087280e+02    7.1473503113e+01
    1.7089993286e+02    7.1562202454e+01
    1.7100007629e+02    7.1650901794e+01
    1.7110064697e+02    7.1740493774e+01
    1.7120075989e+02    7.1828804016e+01
    1.7130079651e+02    7.1916900635e+01
    1.7140077209e+02    7.2004898071e+01
    1.7150073242e+02    7.2092605591e+01
    1.7160072327e+02    7.2180099487e+01
    1.7170072937e+02    7.2267295837e+01
    1.7179974365e+02    7.2353004456e+01
    1.7190087891e+02    7.2440704346e+01
    1.7200126648e+02    7.2527404785e+01
    1.7210127258e+02    7.2614494324e+01
    1.7220051575e+02    7.2699607849e+01
    1.7230043030e+02    7.2784294128e+01
    1.7240051270e+02    7.2870399475e+01
    1.7250039673e+02    7.2954597473e+01
    1.7260040283e+02    7.3039192200e+01
    1.7270040894e+02    7.3123603821e+01
    1.7280029297e+02    7.3207901001e+01
    1.7290115356e+02    7.3292297363e+01
    1.7300033569e+02    7.3375190735e+01
    1.7310124207e+02    7.3459793091e+01
    1.7320054626e+02    7.3541908264e+01
    1.7329991150e+02    7.3623603821e+01
    1.7340031433e+02    7.3706108093e+01
    1.7350056458e+02    7.3788696289e+01
    1.7360006714e+02    7.3870300293e+01
    1.7370083618e+02    7.3952407837e+01
    1.7380108643e+02    7.4033103943e+01
    1.7390025330e+02    7.4113502502e+01
    1.7399981689e+02    7.4194000244e+01
    1.7410046387e+02    7.4275299072e+01
    1.7420014954e+02    7.4355003357e+01
    1.7430003357e+02    7.4435195923e+01
    1.7440055847e+02    7.4514900208e+01
    1.7450079346e+02    7.4594902039e+01
    1.7460101318e+02    7.4673698425e+01
    1.7470118713e+02    7.4753303528e+01
    1.7480143738e+02    7.4832504272e+01
    1.7490014648e+02    7.4909202576e+01
    1.7500128174e+02    7.4988204956e+01
    1.7510144043e+02    7.5066802979e+01
    1.7520146179e+02    7.5144203186e+01
    1.7530003357e+02    7.5220001221e+01
    1.7540045166e+02    7.5297203064e+01
    1.7550082397e+02    7.5374206543e+01
    1.7560038757e+02    7.5450294495e+01
    1.7570002747e+02    7.5525894165e+01
    1.7580131531e+02    7.5602294922e+01
    1.7590124512e+02    7.5677696228e+01
    1.7600093079e+02    7.5752395630e+01
    1.7610028076e+02    7.5827301025e+01
    1.7620121765e+02    7.5901992798e+01
    1.7630105591e+02    7.5976409912e+01
    1.7640083313e+02    7.6049491882e+01
    1.7650123596e+02    7.6123199463e+01
    1.7660098267e+02    7.6196792603e+01
    1.7670072937e+02    7.6269096375e+01
    1.7680047607e+02    7.6341003418e+01
    1.7690136719e+02    7.6414604187e+01
    1.7700044250e+02    7.6485191345e+01
    1.7710104370e+02    7.6557800293e+01
    1.7720143127e+02    7.6629501343e+01
    1.7729997253e+02    7.6699302673e+01
    1.7740155029e+02    7.6771194458e+01
    1.7750085449e+02    7.6842201233e+01
    1.7760137939e+02    7.6912506104e+01
    1.7770123291e+02    7.6982894897e+01
    1.7780120850e+02    7.7052795410e+01
    1.7790127563e+02    7.7122207642e+01
    1.7800146484e+02    7.7191200256e+01
    1.7810014343e+02    7.7259803772e+01
    1.7820027161e+02    7.7328399658e+01
    1.7830030823e+02    7.7396896362e+01
    1.7840060425e+02    7.7465599060e+01
    1.7850158691e+02    7.7534797668e+01
    1.7860157776e+02    7.7602493286e+01
    1.7870152283e+02    7.7670104980e+01
    1.7880137634e+02    7.7736495972e+01
    1.7890087891e+02    7.7803298950e+01
    1.7900053406e+02    7.7869400024e+01
    1.7910031128e+02    7.7936096191e+01
    1.7920170593e+02    7.8002304077e+01
    1.7930166626e+02    7.8067893982e+01
    1.7940020752e+02    7.8131996155e+01
    1.7950073242e+02    7.8197906494e+01
    1.7960025024e+02    7.8262405396e+01
    1.7970062256e+02    7.8326995850e+01
    1.7980009460e+02    7.8390007019e+01
    1.7990124512e+02    7.8454490662e+01
    1.8000090027e+02    7.8517494202e+01
    1.8010049438e+02    7.8598304749e+01
    1.8020022583e+02    7.8678596497e+01
    1.8030046082e+02    7.8758499146e+01
    1.8040121460e+02    7.8838195801e+01
    1.8050132751e+02    7.8917793274e+01
    1.8060163879e+02    7.8996795654e+01
    1.8070072937e+02    7.9074905396e+01
    1.8080090332e+02    7.9153503418e+01
    1.8090046692e+02    7.9231193542e+01
    1.8100085449e+02    7.9309898376e+01
    1.8110119629e+02    7.9387504578e+01
    1.8120146179e+02    7.9465003967e+01
    1.8130160522e+02    7.9542503357e+01
    1.8140095520e+02    7.9619308472e+01
    1.8150068665e+02    7.9696098328e+01
    1.8160107422e+02    7.9772300720e+01
    1.8170111084e+02    7.9848999023e+01
    1.8180114746e+02    7.9924400330e+01
    1.8190126038e+02    8.0000396729e+01
    1.8200148010e+02    8.0075897217e+01
    1.8210174561e+02    8.0151000977e+01
    1.8220167542e+02    8.0225494385e+01
    1.8230134583e+02    8.0300201416e+01
    1.8240049744e+02    8.0374000549e+01
    1.8250172424e+02    8.0449005127e+01
    1.8260151672e+02    8.0521995544e+01
    1.8270152283e+02    8.0594993591e+01
    1.8280136108e+02    8.0667999268e+01
    1.8290182495e+02    8.0741996765e+01
    1.8300149536e+02    8.0813995361e+01
    1.8310113525e+02    8.0886009216e+01
    1.8320121765e+02    8.0958007812e+01
    1.8330157471e+02    8.1030006409e+01
    1.8340196228e+02    8.1101997375e+01
    1.8350128174e+02    8.1171997070e+01
    1.8360116577e+02    8.1243003845e+01
    1.8370196533e+02    8.1314002991e+01
    1.8380137634e+02    8.1384002686e+01
    1.8390177917e+02    8.1453010559e+01
    1.8400068665e+02    8.1523002625e+01
    1.8410122681e+02    8.1592994690e+01
    1.8420080566e+02    8.1660995483e+01
    1.8430105591e+02    8.1729995728e+01
    1.8440133667e+02    8.1797996521e+01
    1.8450158691e+02    8.1866996765e+01
    1.8460154724e+02    8.1934997559e+01
    1.8470158386e+02    8.2001998901e+01
    1.8480166626e+02    8.2069999695e+01
    1.8490174866e+02    8.2136993408e+01
    1.8500056458e+02    8.2203002930e+01
    1.8510107422e+02    8.2269996643e+01
    1.8520097351e+02    8.2335998535e+01
    1.8530169678e+02    8.2400993347e+01
    1.8540072632e+02    8.2466003418e+01
    1.8550105286e+02    8.2531005859e+01
    1.8560186768e+02    8.2597007751e+01
    1.8570100403e+02    8.2661003113e+01
    1.8580166626e+02    8.2724990845e+01
    1.8590101624e+02    8.2788993835e+01
    1.8600061035e+02    8.2850997925e+01
    1.8610078430e+02    8.2915000916e+01
    1.8620199585e+02    8.2978004456e+01
    1.8630151367e+02    8.3039993286e+01
    1.8640130615e+02    8.3103004456e+01
    1.8650088501e+02    8.3164001465e+01
    1.8660171509e+02    8.3226005554e+01
    1.8670063782e+02    8.3287002563e+01
    1.8680200195e+02    8.3349006653e+01
    1.8690107727e+02    8.3409004211e+01
    1.8700065613e+02    8.3469001770e+01
    1.8710116577e+02    8.3528999329e+01
    1.8720164490e+02    8.3590003967e+01
    1.8730192566e+02    8.3649002075e+01
    1.8740109253e+02    8.3708000183e+01
    1.8750213623e+02    8.3766998291e+01
    1.8760104370e+02    8.3825996399e+01
    1.8770075989e+02    8.3882995605e+01
    1.8780149841e+02    8.3941993713e+01
    1.8790112305e+02    8.4000000000e+01
    1.8800134277e+02    8.4056999207e+01
    1.8810165405e+02    8.4115989685e+01
    1.8820181274e+02    8.4172996521e+01
    1.8830122375e+02    8.4229003906e+01
    1.8840159607e+02    8.4285995483e+01
    1.8850177002e+02    8.4341995239e+01
    1.8860136414e+02    8.4398002625e+01
    1.8870098877e+02    8.4453994751e+01
    1.8880158997e+02    8.4509002686e+01
    1.8890190125e+02    8.4564002991e+01
    1.8900201416e+02    8.4619003296e+01
    1.8910128784e+02    8.4672996521e+01
    1.8920199585e+02    8.4727996826e+01
    1.8930108643e+02    8.4781990051e+01
    1.8940197754e+02    8.4834999084e+01
    1.8950148010e+02    8.4888000488e+01
    1.8960076904e+02    8.4941001892e+01
    1.8970230103e+02    8.4994003296e+01
    1.8980081177e+02    8.5045997620e+01
    1.8990170288e+02    8.5097999573e+01
    1.9000173950e+02    8.5151000977e+01
    1.9010183716e+02    8.5216995239e+01
    1.9020219421e+02    8.5282997131e+01
    1.9030174255e+02    8.5347999573e+01
    1.9040229797e+02    8.5414001465e+01
    1.9050181580e+02    8.5480003357e+01
    1.9060142517e+02    8.5542999268e+01
    1.9070120239e+02    8.5607994080e+01
    1.9080209351e+02    8.5674011230e+01
    1.9090237427e+02    8.5737991333e+01
    1.9100091553e+02    8.5801002502e+01
    1.9110215759e+02    8.5865005493e+01
    1.9120104980e+02    8.5928001404e+01
    1.9130145264e+02    8.5992004395e+01
    1.9140209961e+02    8.6055000305e+01
    1.9150111389e+02    8.6118003845e+01
    1.9160235596e+02    8.6181007385e+01
    1.9170106506e+02    8.6242996216e+01
    1.9180126953e+02    8.6304992676e+01
    1.9190124512e+02    8.6367004395e+01
    1.9200216675e+02    8.6427993774e+01
    1.9210148621e+02    8.6489997864e+01
    1.9220179749e+02    8.6550994873e+01
    1.9230168152e+02    8.6611000061e+01
    1.9240103149e+02    8.6670997620e+01
    1.9250248718e+02    8.6732009888e+01
    1.9260156250e+02    8.6790992737e+01
    1.9270173645e+02    8.6850990295e+01
    1.9280242920e+02    8.6910003662e+01
    1.9290164185e+02    8.6968994141e+01
    1.9300245667e+02    8.7027992249e+01
    1.9310197449e+02    8.7085006714e+01
    1.9320184326e+02    8.7143997192e+01
    1.9330233765e+02    8.7202003479e+01
    1.9340104675e+02    8.7258003235e+01
    1.9350172424e+02    8.7315994263e+01
    1.9360148621e+02    8.7371994019e+01
    1.9370193481e+02    8.7429000854e+01
    1.9380155945e+02    8.7485000610e+01
    1.9390161133e+02    8.7541000366e+01
    1.9400172424e+02    8.7597000122e+01
    1.9410163879e+02    8.7652008057e+01
    1.9420256042e+02    8.7707000732e+01
    1.9430139160e+02    8.7762001038e+01
    1.9440206909e+02    8.7815994263e+01
[...]
    2.5130491638e+02    9.8136016846e+01
    2.5140538025e+02    9.8104003906e+01
    2.5150572205e+02    9.8072998047e+01
    2.5160601807e+02    9.8041992188e+01
    2.5170582581e+02    9.8009979248e+01
    2.5180516052e+02    9.7979003906e+01
    2.5190498352e+02    9.7946990967e+01
    2.5200596619e+02    9.7914978027e+01
    2.5210566711e+02    9.7882995605e+01
    2.5220509338e+02    9.7850006104e+01
    2.5230494690e+02    9.7816986084e+01
    2.5240481567e+02    9.7785003662e+01
    2.5250604248e+02    9.7751983643e+01
    2.5260557556e+02    9.7718017578e+01
    2.5270521545e+02    9.7684997559e+01
    2.5280621338e+02    9.7651000977e+01
    2.5290567017e+02    9.7616973877e+01
    2.5300587463e+02    9.7582977295e+01
    2.5310554504e+02    9.7549011230e+01
    2.5320610046e+02    9.7514984131e+01
    2.5330502319e+02    9.7480010986e+01
    2.5340547180e+02    9.7445007324e+01
    2.5350616455e+02    9.7410003662e+01
    2.5360499573e+02    9.7376007080e+01
    2.5370527649e+02    9.7341003418e+01
    2.5380572510e+02    9.7304992676e+01
    2.5390626526e+02    9.7269989014e+01
    2.5400550842e+02    9.7235015869e+01
    2.5410627747e+02    9.7199981689e+01
    2.5420605469e+02    9.7164001465e+01
    2.5430586243e+02    9.7128021240e+01
    2.5440570068e+02    9.7092010498e+01
    2.5450552368e+02    9.7057006836e+01
    2.5460604858e+02    9.7020019531e+01
    2.5470532227e+02    9.6984985352e+01
    2.5480589294e+02    9.6947998047e+01
    2.5490513611e+02    9.6912994385e+01
    2.5500570679e+02    9.6875000000e+01
    2.5510539246e+02    9.6838989258e+01
    2.5520503235e+02    9.6802978516e+01
    2.5530590820e+02    9.6764007568e+01
    2.5540518188e+02    9.6727996826e+01
    2.5550561523e+02    9.6691009521e+01
    2.5560559082e+02    9.6652984619e+01
    2.5570628357e+02    9.6615020752e+01
    2.5580549622e+02    9.6578002930e+01
    2.5590586853e+02    9.6540008545e+01
    2.5600622559e+02    9.6501007080e+01
    2.5610522461e+02    9.6463989258e+01
    2.5620507812e+02    9.6425018311e+01
    2.5630508423e+02    9.6387023926e+01
    2.5640521240e+02    9.6348022461e+01
    2.5650537109e+02    9.6309997559e+01
    2.5660549927e+02    9.6270996094e+01
    2.5670632935e+02    9.6231018066e+01
    2.5680584717e+02    9.6192016602e+01
    2.5690545654e+02    9.6152984619e+01
    2.5700643921e+02    9.6113006592e+01
    2.5710620117e+02    9.6074005127e+01
    2.5720635986e+02    9.6035003662e+01
    2.5730532837e+02    9.5995025635e+01
    2.5740625000e+02    9.5955017090e+01
    2.5750619507e+02    9.5916015625e+01
    2.5760534668e+02    9.5876983643e+01
    2.5770587158e+02    9.5835998535e+01
    2.5780606079e+02    9.5796997070e+01
    2.5790609741e+02    9.5756988525e+01
    2.5800650024e+02    9.5716003418e+01
    2.5810531616e+02    9.5677001953e+01
    2.5820581055e+02    9.5635986328e+01
    2.5830630493e+02    9.5595001221e+01
    2.5840594482e+02    9.5554992676e+01
    2.5850567627e+02    9.5514984131e+01
    2.5860638428e+02    9.5473999023e+01
    2.5870550537e+02    9.5434020996e+01
    2.5880569458e+02    9.5393981934e+01
    2.5890557861e+02    9.5352996826e+01
    2.5900656128e+02    9.5312011719e+01
    2.5910580444e+02    9.5271026611e+01
    2.5920590210e+02    9.5230987549e+01
    2.5930596924e+02    9.5190002441e+01
    2.5940612793e+02    9.5147979736e+01
    2.5950640869e+02    9.5106994629e+01
    2.5960549927e+02    9.5067016602e+01
    2.5970645142e+02    9.5024993896e+01
    2.5980569458e+02    9.4984008789e+01
    2.5990631104e+02    9.4941986084e+01
    2.6000549316e+02    9.4901000977e+01
    2.6010577393e+02    9.4859008789e+01
    2.6020565796e+02    9.4819000244e+01
    2.6030560303e+02    9.4777984619e+01
    2.6040560913e+02    9.4735992432e+01
    2.6050573730e+02    9.4695007324e+01
    2.6060604858e+02    9.4655029297e+01
    2.6070571899e+02    9.4613006592e+01
    2.6080548096e+02    9.4572998047e+01
    2.6090591431e+02    9.4531005859e+01
    2.6100650024e+02    9.4490997314e+01
    2.6110546875e+02    9.4449981689e+01
    2.6120556641e+02    9.4408996582e+01
    2.6130599976e+02    9.4367980957e+01
    2.6140661621e+02    9.4325988770e+01
    2.6150588989e+02    9.4285980225e+01
    2.6160656738e+02    9.4245025635e+01
    2.6170593262e+02    9.4205017090e+01
    2.6180664062e+02    9.4162994385e+01
    2.6190664673e+02    9.4122985840e+01
    2.6200640869e+02    9.4083007812e+01
    2.6210598755e+02    9.4041992188e+01
    2.6220660400e+02    9.4001007080e+01
    2.6230636597e+02    9.3960021973e+01
    2.6240597534e+02    9.3920013428e+01
    2.6250555420e+02    9.3880004883e+01
    2.6260559082e+02    9.3838989258e+01
    2.6270596313e+02    9.3797973633e+01
    2.6280630493e+02    9.3757995605e+01
    2.6290655518e+02    9.3717010498e+01
    2.6300552368e+02    9.3675994873e+01
    2.6310604858e+02    9.3636016846e+01
    2.6320635986e+02    9.3595001221e+01
    2.6330575562e+02    9.3555023193e+01
    2.6340628052e+02    9.3513000488e+01
    2.6350680542e+02    9.3472015381e+01
    2.6360659790e+02    9.3432006836e+01
    2.6370632935e+02    9.3391021729e+01
    2.6380612183e+02    9.3351013184e+01
    2.6390664673e+02    9.3309997559e+01
    2.6400604248e+02    9.3269012451e+01
    2.6410690308e+02    9.3228027344e+01
    2.6420657349e+02    9.3187011719e+01
    2.6430630493e+02    9.3147003174e+01
    2.6440612793e+02    9.3106994629e+01
    2.6450595093e+02    9.3067016602e+01
    2.6460580444e+02    9.3026000977e+01
    2.6470568848e+02    9.2986022949e+01
    2.6480630493e+02    9.2946014404e+01
    2.6490582275e+02    9.2904998779e+01
    2.6500558472e+02    9.2864990234e+01
    2.6510690308e+02    9.2824981689e+01
    2.6520559692e+02    9.2785003662e+01
    2.6530569458e+02    9.2746002197e+01
    2.6540573120e+02    9.2706024170e+01
    2.6550564575e+02    9.2666015625e+01
    2.6560595703e+02    9.2626983643e+01
    2.6570623779e+02    9.2587005615e+01
    2.6580630493e+02    9.2548004150e+01
    2.6590655518e+02    9.2507995605e+01
    2.6600570679e+02    9.2470001221e+01
    2.6610629272e+02    9.2429992676e+01
    2.6620693970e+02    9.2391021729e+01
    2.6630627441e+02    9.2352996826e+01
    2.6640698242e+02    9.2312988281e+01
    2.6650686646e+02    9.2274993896e+01
    2.6660702515e+02    9.2236022949e+01
    2.6670596313e+02    9.2197998047e+01
    2.6680661011e+02    9.2157989502e+01
    2.6690701294e+02    9.2118988037e+01
    2.6700604248e+02    9.2082000732e+01
    2.6710653687e+02    9.2042999268e+01
    2.6720578003e+02    9.2005004883e+01
    2.6730648804e+02    9.1966003418e+01
    2.6740594482e+02    9.1928009033e+01
    2.6750701904e+02    9.1889984131e+01
    2.6760595703e+02    9.1851989746e+01
    2.6770626831e+02    9.1813018799e+01
    2.6780670166e+02    9.1774993896e+01
    2.6790597534e+02    9.1738006592e+01
    2.6800665283e+02    9.1700012207e+01
    2.6810607910e+02    9.1662994385e+01
    2.6820657349e+02    9.1625000000e+01
    2.6830688477e+02    9.1586975098e+01
    2.6840591431e+02    9.1550994873e+01
    2.6850643921e+02    9.1513000488e+01
    2.6860644531e+02    9.1476989746e+01
    2.6870623779e+02    9.1438995361e+01
    2.6880590820e+02    9.1403991699e+01
    2.6890667725e+02    9.1367004395e+01
    2.6900592041e+02    9.1330993652e+01
    2.6910632324e+02    9.1295013428e+01
    2.6920666504e+02    9.1259002686e+01
    2.6930612183e+02    9.1223022461e+01
    2.6940686035e+02    9.1187011719e+01
    2.6950619507e+02    9.1152008057e+01
    2.6960681152e+02    9.1117004395e+01
    2.6970632935e+02    9.1082000732e+01
    2.6980630493e+02    9.1047973633e+01
    2.6990628052e+02    9.1013000488e+01
    2.7000616455e+02    9.0977996826e+01
    2.7010714722e+02    9.0941009521e+01
    2.7020666504e+02    9.0905975342e+01
    2.7030599976e+02    9.0869995117e+01
    2.7040698242e+02    9.0834014893e+01
    2.7050671387e+02    9.0798004150e+01
    2.7060635376e+02    9.0763000488e+01
    2.7070608521e+02    9.0727996826e+01
    2.7080624390e+02    9.0692993164e+01
    2.7090701294e+02    9.0658020020e+01
    2.7100671387e+02    9.0622985840e+01
    2.7110662842e+02    9.0587005615e+01
    2.7120651245e+02    9.0553009033e+01
    2.7130603027e+02    9.0519012451e+01
    2.7140704346e+02    9.0484008789e+01
    2.7150665283e+02    9.0450012207e+01
    2.7160647583e+02    9.0416015625e+01
    2.7170623779e+02    9.0381988525e+01
    2.7180731201e+02    9.0347015381e+01
    2.7190704346e+02    9.0313995361e+01
    2.7200714111e+02    9.0279998779e+01
    2.7210729980e+02    9.0246978760e+01
    2.7220611572e+02    9.0213989258e+01
    2.7230627441e+02    9.0180023193e+01
    2.7240628052e+02    9.0147003174e+01
    2.7250717163e+02    9.0114990234e+01
    2.7260675049e+02    9.0082000732e+01
    2.7270642090e+02    9.0049987793e+01
    2.7280615234e+02    9.0018005371e+01
    2.7290725708e+02    8.9985992432e+01
    2.7300692749e+02    8.9954010010e+01
    2.7310714722e+02    8.9921997070e+01
    2.7320666504e+02    8.9890014648e+01
    2.7330679321e+02    8.9860015869e+01
    2.7340670776e+02    8.9828002930e+01
    2.7350643921e+02    8.9796997070e+01
    2.7360723877e+02    8.9766998291e+01
    2.7370727539e+02    8.9735992432e+01
    2.7380685425e+02    8.9705017090e+01
    2.7390628052e+02    8.9675994873e+01
    2.7400698853e+02    8.9645996094e+01
    2.7410638428e+02    8.9615997314e+01
    2.7420721436e+02    8.9584991455e+01
    2.7430673218e+02    8.9555999756e+01
    2.7440747070e+02    8.9526000977e+01
    2.7450720215e+02    8.9497009277e+01
    2.7460751343e+02    8.9467987061e+01
    2.7470645142e+02    8.9438995361e+01
    2.7480670166e+02    8.9410003662e+01
    2.7490722656e+02    8.9382019043e+01
    2.7500695801e+02    8.9354003906e+01
    2.7510693359e+02    8.9325012207e+01
    2.7520718384e+02    8.9296997070e+01
    2.7530630493e+02    8.9270019531e+01
    2.7540704346e+02    8.9243011475e+01
    2.7550708008e+02    8.9214996338e+01
    2.7560751343e+02    8.9187988281e+01
    2.7570672607e+02    8.9160980225e+01
    2.7580737305e+02    8.9134002686e+01
    2.7590707397e+02    8.9106994629e+01
    2.7600701904e+02    8.9081024170e+01
    2.7610702515e+02    8.9054992676e+01
    2.7620721436e+02    8.9028991699e+01
    2.7630746460e+02    8.9003997803e+01
    2.7640637207e+02    8.8977996826e+01
    2.7650668335e+02    8.8953002930e+01
    2.7660638428e+02    8.8929016113e+01
    2.7670700073e+02    8.8903991699e+01
    2.7680648804e+02    8.8878997803e+01
    2.7690704346e+02    8.8855010986e+01
    2.7700653076e+02    8.8830993652e+01
    2.7710687256e+02    8.8806976318e+01
    2.7720654297e+02    8.8783996582e+01
    2.7730758667e+02    8.8759979248e+01
    2.7740689087e+02    8.8736999512e+01
    2.7750747681e+02    8.8714019775e+01
    2.7760723877e+02    8.8691009521e+01
    2.7770755005e+02    8.8667999268e+01
    2.7780648804e+02    8.8645996094e+01
    2.7790692139e+02    8.8623992920e+01
    2.7800711060e+02    8.8600982666e+01
    2.7810729980e+02    8.8578979492e+01
    2.7820745850e+02    8.8556976318e+01
    2.7830670166e+02    8.8535003662e+01
    2.7840750122e+02    8.8513000488e+01
    2.7850695801e+02    8.8491973877e+01
    2.7860662842e+02    8.8471008301e+01
    2.7870651245e+02    8.8448974609e+01
    2.7880682373e+02    8.8427978516e+01
    2.7890661621e+02    8.8408020020e+01
    2.7900653076e+02    8.8386993408e+01
    2.7910775757e+02    8.8365997314e+01
    2.7920761108e+02    8.8345977783e+01
    2.7930749512e+02    8.8325988770e+01
    2.7940740967e+02    8.8305999756e+01
    2.7950656128e+02    8.8286987305e+01
    2.7960723877e+02    8.8266998291e+01
    2.7970666504e+02    8.8247985840e+01
    2.7980761719e+02    8.8229003906e+01
    2.7990731812e+02    8.8209991455e+01
    2.8000711060e+02    8.8192016602e+01
    2.8010696411e+02    8.8170013428e+01
    2.8020764160e+02    8.8148010254e+01
    2.8030752563e+02    8.8126007080e+01
    2.8040661621e+02    8.8105010986e+01
    2.8050732422e+02    8.8083984375e+01
    2.8060650635e+02    8.8063995361e+01
    2.8070706177e+02    8.8042999268e+01
    2.8080761719e+02    8.8023010254e+01
    2.8090701294e+02    8.8003021240e+01
    2.8100701904e+02    8.7981994629e+01
    2.8110699463e+02    8.7963012695e+01
    2.8120690918e+02    8.7944000244e+01
    2.8130700684e+02    8.7924011230e+01
    2.8140731812e+02    8.7904998779e+01
    2.8150765991e+02    8.7885986328e+01
    2.8160668945e+02    8.7867004395e+01
    2.8170724487e+02    8.7847991943e+01
    2.8180789185e+02    8.7829986572e+01
    2.8190722656e+02    8.7812011719e+01
    2.8200720215e+02    8.7792999268e+01
    2.8210757446e+02    8.7776000977e+01
    2.8220794678e+02    8.7757019043e+01
    2.8230706787e+02    8.7739990234e+01
    2.8240762329e+02    8.7722991943e+01
    2.8250662231e+02    8.7705017090e+01
    2.8260668945e+02    8.7687988281e+01
    2.8270700073e+02    8.7670013428e+01
    2.8280752563e+02    8.7654998779e+01
    2.8290722656e+02    8.7638000488e+01
    2.8300772095e+02    8.7621002197e+01
    2.8310702515e+02    8.7605987549e+01
    2.8320779419e+02    8.7589996338e+01
    2.8330731201e+02    8.7572998047e+01
    2.8340728760e+02    8.7558990479e+01
    2.8350726318e+02    8.7542999268e+01
    2.8360717773e+02    8.7527984619e+01
    2.8370700073e+02    8.7513000488e+01
    2.8380792236e+02    8.7498992920e+01
    2.8390704346e+02    8.7484008789e+01
    2.8400790405e+02    8.7470001221e+01
    2.8410726929e+02    8.7455993652e+01
    2.8420809937e+02    8.7442016602e+01
    2.8430749512e+02    8.7428985596e+01
    2.8440679932e+02    8.7415008545e+01
    2.8450671387e+02    8.7402008057e+01
    2.8460794067e+02    8.7388000488e+01
    2.8470806885e+02    8.7375976562e+01
    2.8480810547e+02    8.7362976074e+01
    2.8490795898e+02    8.7350006104e+01
    2.8500698853e+02    8.7337982178e+01
    2.8510702515e+02    8.7325988770e+01
    2.8520706177e+02    8.7312988281e+01
    2.8530725098e+02    8.7300994873e+01
    2.8540722656e+02    8.7288970947e+01
    2.8550732422e+02    8.7276977539e+01
    2.8560772705e+02    8.7264984131e+01
    2.8570681763e+02    8.7253997803e+01
    2.8580786133e+02    8.7243011475e+01
    2.8590811157e+02    8.7230987549e+01
    2.8600750732e+02    8.7220001221e+01
    2.8610705566e+02    8.7209014893e+01
    2.8620822144e+02    8.7197998047e+01
    2.8630807495e+02    8.7186981201e+01
    2.8640786743e+02    8.7175018311e+01
    2.8650787354e+02    8.7165008545e+01
    2.8660800171e+02    8.7154022217e+01
    2.8670819092e+02    8.7144012451e+01
    2.8680700684e+02    8.7133972168e+01
    2.8690686035e+02    8.7123016357e+01
    2.8700732422e+02    8.7113983154e+01
    2.8710778809e+02    8.7104003906e+01
    2.8720684814e+02    8.7093963623e+01
    2.8730749512e+02    8.7084991455e+01
    2.8740829468e+02    8.7075988770e+01
    2.8750711060e+02    8.7067016602e+01
    2.8760806274e+02    8.7058990479e+01
    2.8770733643e+02    8.7050018311e+01
    2.8780804443e+02    8.7040985107e+01
    2.8790753174e+02    8.7032989502e+01
    2.8800708008e+02    8.7023986816e+01
    2.8810797119e+02    8.7016967773e+01
    2.8820724487e+02    8.7009002686e+01
    2.8830783081e+02    8.7000976562e+01
    2.8840808105e+02    8.6992980957e+01
    2.8850714111e+02    8.6985015869e+01
    2.8860787964e+02    8.6978027344e+01
    2.8870806885e+02    8.6970977783e+01
    2.8880715942e+02    8.6963012695e+01
    2.8890719604e+02    8.6957000732e+01
    2.8900744629e+02    8.6950012207e+01
    2.8910827637e+02    8.6943023682e+01
    2.8920764160e+02    8.6934967041e+01
    2.8930828857e+02    8.6928009033e+01
    2.8940737915e+02    8.6921966553e+01
    2.8950833130e+02    8.6914978027e+01
    2.8960781860e+02    8.6908966064e+01
    2.8970736694e+02    8.6901977539e+01
    2.8980706787e+02    8.6896026611e+01
    2.8990798950e+02    8.6888977051e+01
    2.9000762939e+02    8.6883026123e+01
    2.9010708618e+02    8.6872039795e+01
    2.9020785522e+02    8.6860992432e+01
    2.9030831909e+02    8.6850006104e+01
    2.9040740967e+02    8.6838989258e+01
    2.9050790405e+02    8.6828033447e+01
    2.9060839844e+02    8.6817993164e+01
    2.9070751953e+02    8.6808013916e+01
    2.9080801392e+02    8.6797973633e+01
    2.9090765381e+02    8.6787017822e+01
    2.9100808716e+02    8.6777984619e+01
    2.9110852051e+02    8.6766998291e+01
    2.9120846558e+02    8.6757019043e+01
    2.9130850220e+02    8.6748016357e+01
    2.9140744019e+02    8.6737976074e+01
    2.9150772095e+02    8.6727996826e+01
    2.9160797119e+02    8.6718994141e+01
    2.9170819092e+02    8.6709991455e+01
    2.9180831909e+02    8.6700988770e+01
    2.9190835571e+02    8.6691009521e+01
    2.9200790405e+02    8.6681976318e+01
    2.9210742188e+02    8.6673034668e+01
    2.9220819092e+02    8.6663970947e+01
    2.9230749512e+02    8.6654998779e+01
    2.9240820312e+02    8.6647003174e+01
    2.9250738525e+02    8.6638031006e+01
    2.9260848999e+02    8.6629028320e+01
    2.9270831299e+02    8.6619964600e+01
    2.9280816650e+02    8.6611999512e+01
    2.9290805054e+02    8.6603027344e+01
    2.9300796509e+02    8.6594970703e+01
    2.9310803223e+02    8.6585998535e+01
    2.9320812988e+02    8.6578002930e+01
    2.9330831909e+02    8.6569000244e+01
    2.9340740967e+02    8.6559967041e+01
    2.9350817871e+02    8.6551971436e+01
    2.9360812378e+02    8.6542999268e+01
    2.9370825195e+02    8.6535003662e+01
    2.9380868530e+02    8.6526977539e+01
    2.9390759277e+02    8.6518035889e+01
    2.9400750732e+02    8.6509979248e+01
    2.9410824585e+02    8.6502014160e+01
    2.9420776367e+02    8.6493988037e+01
    2.9430825806e+02    8.6486022949e+01
    2.9440835571e+02    8.6478027344e+01
    2.9450781250e+02    8.6470031738e+01
    2.9460736084e+02    8.6462005615e+01
    2.9470846558e+02    8.6454010010e+01
    2.9480813599e+02    8.6445983887e+01
    2.9490777588e+02    8.6438018799e+01
    2.9500732422e+02    8.6430999756e+01
    2.9510818481e+02    8.6423034668e+01
    2.9520770264e+02    8.6416015625e+01
    2.9530792236e+02    8.6408996582e+01
    2.9540795898e+02    8.6402008057e+01
    2.9550781250e+02    8.6393981934e+01
    2.9560760498e+02    8.6387023926e+01
    2.9570816040e+02    8.6379974365e+01
    2.9580761719e+02    8.6374023438e+01
    2.9590866089e+02    8.6365966797e+01
    2.9600823975e+02    8.6359039307e+01
    2.9610812378e+02    8.6351989746e+01
    2.9620748901e+02    8.6345977783e+01
    2.9630834961e+02    8.6338989258e+01
    2.9640786743e+02    8.6332000732e+01
    2.9650765991e+02    8.6326019287e+01
    2.9660858154e+02    8.6319030762e+01
    2.9670809937e+02    8.6312011719e+01
    2.9680755615e+02    8.6305999756e+01
    2.9690887451e+02    8.6298980713e+01
    2.9700866699e+02    8.6291992188e+01
    2.9710867310e+02    8.6285034180e+01
    2.9720742798e+02    8.6278991699e+01
    2.9730792236e+02    8.6273040771e+01
    2.9740856934e+02    8.6265991211e+01
    2.9750891113e+02    8.6259002686e+01
    2.9760815430e+02    8.6253021240e+01
    2.9770892334e+02    8.6246032715e+01
    2.9780838013e+02    8.6240997314e+01
    2.9790798950e+02    8.6233978271e+01
    2.9800778198e+02    8.6226959229e+01
    2.9810864258e+02    8.6222015381e+01
    2.9820883179e+02    8.6214996338e+01
    2.9830749512e+02    8.6207977295e+01
    2.9840872192e+02    8.6203002930e+01
    2.9850759888e+02    8.6195983887e+01
    2.9860845947e+02    8.6190979004e+01
    2.9870816040e+02    8.6185028076e+01
    2.9880776978e+02    8.6179016113e+01
    2.9890890503e+02    8.6173004150e+01
    2.9900860596e+02    8.6166992188e+01
    2.9910836792e+02    8.6161010742e+01
    2.9920819092e+02    8.6155029297e+01
    2.9930847168e+02    8.6149017334e+01
    2.9940805054e+02    8.6143005371e+01
    2.9950888062e+02    8.6137023926e+01
    2.9960809326e+02    8.6132019043e+01
    2.9970849609e+02    8.6125030518e+01
    2.9980874634e+02    8.6119018555e+01
    2.9990905762e+02    8.6114013672e+01
endcurve
