Curveplot
LS-DYNA keyword deck by LS-PrePost
Abscissa
Ordinate
XY data
CHOP_EAMZ_mo-1 #pts=3000
* Minval=    -8.8655899048e+01 at time=       278.5069580078
* Maxval=     7.9936802422e-07 at time=         2.4992706776
    0.0000000000e+00    0.0000000000e+00
    9.8665714264e-02    1.4012984643e-44
    1.9887307286e-01    1.3929699893e-35
    2.9908046126e-01    4.8266100476e-29
    3.9928781986e-01    1.4979100705e-23
    4.9949517846e-01    2.6869700748e-19
    5.9970253706e-01    3.0673900580e-15
    6.9932085276e-01    6.6929400910e-10
    7.9968386889e-01    3.3236599251e-08
    8.9898151159e-01    8.7227199685e-08
    9.9915391207e-01    1.0452900057e-07
    1.0998978615e+00    1.2457499565e-07
    1.1999748945e+00    1.6204499786e-07
    1.2987960577e+00    1.9831399811e-07
    1.3993667364e+00    2.2888499984e-07
    1.4999196529e+00    2.8210598657e-07
    1.5987406969e+00    3.2526298810e-07
    1.6998659372e+00    3.7448899093e-07
    1.7999436855e+00    4.3086200208e-07
    1.8996568918e+00    4.7559998961e-07
    1.9994639158e+00    5.1498602716e-07
    2.0987761021e+00    5.6623099454e-07
    2.1985299587e+00    6.1813801722e-07
    2.2983815670e+00    6.8305200784e-07
    2.3998730183e+00    7.4339902767e-07
    2.4992706776e+00    7.9936802422e-07
    2.5997676849e+00    7.6504500157e-07
    2.6999757290e+00    5.6062600606e-07
    2.7988300323e+00    2.2354799967e-07
    2.8986189365e+00   -1.3464000403e-07
    2.9991533756e+00   -3.7765599359e-07
    3.0992131233e+00   -5.0711201993e-07
    3.1998617649e+00   -7.0547997666e-07
    3.2991583347e+00   -1.2218499705e-06
    3.3992121220e+00   -2.3075599529e-06
    3.4992592335e+00   -4.1292000788e-06
    3.5987131596e+00   -6.7756900535e-06
    3.6993260384e+00   -1.0366699826e-05
    3.7997486591e+00   -1.4902700059e-05
    3.8994097710e+00   -2.0318999304e-05
    3.9999620914e+00   -2.6603300284e-05
    4.0991630554e+00   -3.3476000681e-05
    4.1985726357e+00   -4.0892900870e-05
    4.2996191978e+00   -4.8875801440e-05
    4.3994731903e+00   -5.7060999097e-05
    4.4987592697e+00   -6.5367603383e-05
    4.5998926163e+00   -7.3894203524e-05
    4.6993927956e+00   -8.2338199718e-05
    4.7994699478e+00   -9.0946698037e-05
    4.8983769417e+00   -9.9580196547e-05
    4.9993224144e+00   -1.0851999832e-04
    5.0995249748e+00   -1.1755600281e-04
    5.1995201111e+00   -1.2671000150e-04
    5.2986416817e+00   -1.3592600590e-04
    5.3995928764e+00   -1.4544000442e-04
    5.4984164238e+00   -1.5486500342e-04
    5.5999279022e+00   -1.6470000264e-04
    5.6984696388e+00   -1.7436999769e-04
    5.7986989021e+00   -1.8438500410e-04
    5.8993062973e+00   -1.9467399397e-04
    5.9984145164e+00   -2.0505499560e-04
    6.0998477936e+00   -2.1606599330e-04
    6.1989188194e+00   -2.2724899463e-04
    6.2996253967e+00   -2.3909899755e-04
    6.3983716965e+00   -2.5123401429e-04
    6.4995007515e+00   -2.6418099878e-04
    6.5993127823e+00   -2.7750400477e-04
    6.6993141174e+00   -2.9135899968e-04
    6.7991056442e+00   -3.0564999906e-04
    6.8997559547e+00   -3.2052298775e-04
    6.9994716644e+00   -3.3571099630e-04
    7.0997943878e+00   -3.5146099981e-04
    7.1987619400e+00   -3.6750599975e-04
    7.2993636131e+00   -3.8432399742e-04
    7.3990545273e+00   -4.0144199738e-04
    7.4989185333e+00   -4.1905298713e-04
    7.5992770195e+00   -4.3722501141e-04
    7.6987156868e+00   -4.5573900570e-04
    7.7994089127e+00   -4.7504701070e-04
    7.8997044563e+00   -4.9482798204e-04
    7.9995851517e+00   -5.1508797333e-04
    8.0999584198e+00   -5.3603400011e-04
    8.1994724274e+00   -5.5739399977e-04
    8.2992858887e+00   -5.7947699679e-04
    8.3986196518e+00   -6.0214899713e-04
    8.4988069534e+00   -6.2578899087e-04
    8.5989942551e+00   -6.5025599906e-04
    8.6984653473e+00   -6.7538302392e-04
    8.7998790741e+00   -7.0187798701e-04
    8.8996896744e+00   -7.2881497908e-04
    8.9992752075e+00   -7.5657002162e-04
    9.0993385315e+00   -7.8533298802e-04
    9.1996097565e+00   -8.1506598508e-04
    9.2996873856e+00   -8.4564997815e-04
    9.3993835449e+00   -8.7690097280e-04
    9.4990024567e+00   -9.0880302014e-04
    9.5992116928e+00   -9.4140798319e-04
    9.6999759674e+00   -9.7447901499e-04
    9.7993879318e+00   -1.0072099976e-03
    9.8992424011e+00   -1.0400899919e-03
    9.9996871948e+00   -1.0731300572e-03
    1.0099941254e+01   -1.1061000405e-03
    1.0198670387e+01   -1.1386700207e-03
    1.0299817085e+01   -1.1721800547e-03
    1.0399135590e+01   -1.2053400278e-03
    1.0499294281e+01   -1.2392200297e-03
    1.0598592758e+01   -1.2733299518e-03
    1.0698574066e+01   -1.3083600206e-03
    1.0798555374e+01   -1.3441999909e-03
    1.0898838043e+01   -1.3810599921e-03
    1.0998833656e+01   -1.4188500354e-03
    1.1099402428e+01   -1.4579499839e-03
    1.1198697090e+01   -1.4976300299e-03
    1.1298677444e+01   -1.5385600273e-03
    1.1398848534e+01   -1.5805399744e-03
    1.1499307632e+01   -1.6235799994e-03
    1.1599677086e+01   -1.6674699727e-03
    1.1698794365e+01   -1.7116799718e-03
    1.1798995972e+01   -1.7571599456e-03
    1.1898798943e+01   -1.8031799700e-03
    1.1999782562e+01   -1.8504100153e-03
    1.2099208832e+01   -1.8974300474e-03
    1.2199954033e+01   -1.9455000293e-03
    1.2299825668e+01   -1.9935900345e-03
    1.2399702072e+01   -2.0421301015e-03
    1.2499883652e+01   -2.0913600456e-03
    1.2598860741e+01   -2.1407599561e-03
    1.2699087143e+01   -2.1917100530e-03
    1.2799306870e+01   -2.2436699364e-03
    1.2899601936e+01   -2.2965399548e-03
    1.2999082565e+01   -2.3496600334e-03
    1.3098941803e+01   -2.4037200492e-03
    1.3198799133e+01   -2.4587600492e-03
    1.3298561096e+01   -2.5150999427e-03
    1.3398999214e+01   -2.5735900272e-03
    1.3499709129e+01   -2.6342200581e-03
    1.3599534035e+01   -2.6964501012e-03
    1.3699357986e+01   -2.7608899400e-03
    1.3798517227e+01   -2.8271900956e-03
    1.3898679733e+01   -2.8965100646e-03
    1.3999144554e+01   -2.9682801105e-03
    1.4099323273e+01   -3.0419400427e-03
    1.4199502945e+01   -3.1174400356e-03
    1.4298810959e+01   -3.1939100008e-03
    1.4398548126e+01   -3.2720400486e-03
    1.4498391151e+01   -3.3512900118e-03
    1.4599130630e+01   -3.4321199637e-03
    1.4699625015e+01   -3.5135999788e-03
    1.4799732208e+01   -3.5956499632e-03
    1.4899262428e+01   -3.6780301016e-03
    1.4999880791e+01   -3.7620600779e-03
    1.5098719597e+01   -3.8453699090e-03
    1.5198610306e+01   -3.9303600788e-03
    1.5299570084e+01   -4.0170801803e-03
    1.5399980545e+01   -4.1041299701e-03
    1.5499902725e+01   -4.1915001348e-03
    1.5599719048e+01   -4.2795198970e-03
    1.5699064255e+01   -4.3679000810e-03
    1.5798649788e+01   -4.4575100765e-03
    1.5898917198e+01   -4.5489999466e-03
    1.5999511719e+01   -4.6422500163e-03
    1.6099826813e+01   -4.7369301319e-03
    1.6199512482e+01   -4.8328600824e-03
    1.6299785614e+01   -4.9313497730e-03
    1.6399372101e+01   -5.0311600789e-03
    1.6499305725e+01   -5.1333499141e-03
    1.6599048615e+01   -5.2373497747e-03
    1.6699186325e+01   -5.3435801528e-03
    1.6798429489e+01   -5.4504899308e-03
    1.6899503708e+01   -5.5609201081e-03
    1.6999053955e+01   -5.6710802019e-03
    1.7099515915e+01   -5.7836398482e-03
    1.7199779510e+01   -5.8973301202e-03
    1.7299049377e+01   -6.0112099163e-03
    1.7399724960e+01   -6.1280401424e-03
    1.7499521255e+01   -6.2452899292e-03
    1.7598663330e+01   -6.3633001409e-03
    1.7699377060e+01   -6.4849299379e-03
    1.7799608231e+01   -6.6078500822e-03
    1.7898965836e+01   -6.7315399647e-03
    1.7999240875e+01   -6.8582799286e-03
    1.8099725723e+01   -6.9871800952e-03
    1.8198949814e+01   -7.1163899265e-03
    1.8299024582e+01   -7.2487699799e-03
    1.8399129868e+01   -7.3833800852e-03
    1.8499340057e+01   -7.5204400346e-03
    1.8599550247e+01   -7.6598199084e-03
    1.8698759079e+01   -7.8000300564e-03
    1.8798530579e+01   -7.9432697967e-03
    1.8899085999e+01   -8.0898301676e-03
    1.8998956680e+01   -8.2374801859e-03
    1.9099990845e+01   -8.3887996152e-03
    1.9199626923e+01   -8.5398703814e-03
    1.9299144745e+01   -8.6924796924e-03
    1.9399421692e+01   -8.8478401303e-03
    1.9499637604e+01   -9.0044997633e-03
    1.9599853516e+01   -9.1623002663e-03
    1.9699192047e+01   -9.3196397647e-03
    1.9799736023e+01   -9.4797099009e-03
    1.9899597168e+01   -9.6395695582e-03
    1.9999458313e+01   -9.8003698513e-03
    2.0099317551e+01   -9.9621899426e-03
    2.0199178696e+01   -1.0125099681e-02
    2.0298517227e+01   -1.0288500227e-02
    2.0399871826e+01   -1.0456600226e-02
    2.0498962402e+01   -1.0622600093e-02
    2.0598831177e+01   -1.0791700333e-02
    2.0699207306e+01   -1.0963600129e-02
    2.0799760818e+01   -1.1138100177e-02
    2.0899932861e+01   -1.1314399540e-02
    2.0999078751e+01   -1.1491400190e-02
    2.1099082947e+01   -1.1672699824e-02
    2.1200040817e+01   -1.1858499609e-02
    2.1299140930e+01   -1.2043599971e-02
    2.1398736954e+01   -1.2232200243e-02
    2.1499895096e+01   -1.2426299974e-02
    2.1598661423e+01   -1.2618199922e-02
    2.1699058533e+01   -1.2815499678e-02
    2.1798717499e+01   -1.3013400137e-02
    2.1899429321e+01   -1.3215299696e-02
    2.1999353409e+01   -1.3417299837e-02
    2.2098709106e+01   -1.3619500212e-02
    2.2198734283e+01   -1.3824500144e-02
    2.2299903870e+01   -1.4033099636e-02
    2.2399820328e+01   -1.4240399934e-02
    2.2499740601e+01   -1.4449199662e-02
    2.2599123001e+01   -1.4658399858e-02
    2.2699390411e+01   -1.4871399850e-02
    2.2799650192e+01   -1.5086499974e-02
    2.2899888992e+01   -1.5303499997e-02
    2.2999135971e+01   -1.5520099550e-02
    2.3098852158e+01   -1.5739500523e-02
    2.3198562622e+01   -1.5961000696e-02
    2.3298440933e+01   -1.6185499728e-02
    2.3399662018e+01   -1.6416000202e-02
    2.3499134064e+01   -1.6645900905e-02
    2.3598976135e+01   -1.6879899427e-02
    2.3698818207e+01   -1.7117500305e-02
    2.3799158096e+01   -1.7359899357e-02
    2.3899055481e+01   -1.7604699358e-02
    2.3999254227e+01   -1.7853800207e-02
    2.4099449158e+01   -1.8106199801e-02
    2.4199836731e+01   -1.8362300470e-02
    2.4298568726e+01   -1.8617000431e-02
    2.4400054932e+01   -1.8881399184e-02
    2.4499914169e+01   -1.9143899903e-02
    2.4599782944e+01   -1.9408499822e-02
    2.4699327469e+01   -1.9674200565e-02
    2.4799566269e+01   -1.9943999127e-02
    2.4899822235e+01   -2.0215800032e-02
    2.4998540878e+01   -2.0485399291e-02
    2.5100027084e+01   -2.0764499903e-02
    2.5199466705e+01   -2.1040100604e-02
    2.5299388885e+01   -2.1319000050e-02
    2.5399816513e+01   -2.1601300687e-02
    2.5499284744e+01   -2.1882699803e-02
    2.5599239349e+01   -2.2167399526e-02
    2.5699201584e+01   -2.2453900427e-02
    2.5799791336e+01   -2.2744499147e-02
    2.5898660660e+01   -2.3032499477e-02
    2.5998544693e+01   -2.3326199502e-02
    2.6099594116e+01   -2.3626400158e-02
    2.6198757172e+01   -2.3924099281e-02
    2.6299083710e+01   -2.4228500202e-02
    2.6398723602e+01   -2.4534000084e-02
    2.6498689651e+01   -2.4843899533e-02
    2.6598659515e+01   -2.5157000870e-02
    2.6699123383e+01   -2.5474699214e-02
    2.6799583435e+01   -2.5795299560e-02
    2.6899261475e+01   -2.6116000488e-02
    2.6999736786e+01   -2.6441700757e-02
    2.7100051880e+01   -2.6769399643e-02
    2.7199480057e+01   -2.7096400037e-02
    2.7299264908e+01   -2.7426900342e-02
    2.7399196625e+01   -2.7759900317e-02
    2.7499994278e+01   -2.8098300099e-02
    2.7598958969e+01   -2.8432900086e-02
    2.7699207306e+01   -2.8774499893e-02
    2.7799465179e+01   -2.9119100422e-02
    2.7899227142e+01   -2.9464999214e-02
    2.7999715805e+01   -2.9816400260e-02
    2.8098754883e+01   -3.0165800825e-02
    2.8199239731e+01   -3.0523400754e-02
    2.8299148560e+01   -3.0882099643e-02
    2.8399087906e+01   -3.1244000420e-02
    2.8499320984e+01   -3.1610298902e-02
    2.8599552155e+01   -3.1979601830e-02
    2.8700038910e+01   -3.2352898270e-02
    2.8799930573e+01   -3.2726898789e-02
    2.8899827957e+01   -3.3103898168e-02
    2.8999727249e+01   -3.3483698964e-02
    2.9099624634e+01   -3.3866100013e-02
    2.9198661804e+01   -3.4247800708e-02
    2.9300012589e+01   -3.4640800208e-02
    2.9399641037e+01   -3.5029500723e-02
    2.9499870300e+01   -3.5422701389e-02
    2.9598558426e+01   -3.5811800510e-02
    2.9698783875e+01   -3.6208700389e-02
    2.9799528122e+01   -3.6609601229e-02
    2.9899206161e+01   -3.7008300424e-02
    2.9999074936e+01   -3.7409998477e-02
    3.0098939896e+01   -3.7814099342e-02
    3.0198802948e+01   -3.8220599294e-02
    3.0299003601e+01   -3.8631100208e-02
    3.0398899078e+01   -3.9043001831e-02
    3.0498756409e+01   -3.9457499981e-02
    3.0598539352e+01   -3.9874598384e-02
    3.0698753357e+01   -4.0296498686e-02
    3.0798460007e+01   -4.0719199926e-02
    3.0899412155e+01   -4.1150499135e-02
    3.0999244690e+01   -4.1580401361e-02
    3.1099538803e+01   -4.2015701532e-02
    3.1199554443e+01   -4.2453300208e-02
    3.1299940109e+01   -4.2895998806e-02
    3.1398616791e+01   -4.3334499002e-02
    3.1498872757e+01   -4.3783400208e-02
    3.1599708557e+01   -4.4238299131e-02
    3.1698604584e+01   -4.4687598944e-02
    3.1799562454e+01   -4.5149099082e-02
    3.1899860382e+01   -4.5610498637e-02
    3.1999465942e+01   -4.6071100980e-02
    3.2099044800e+01   -4.6533700079e-02
    3.2199005127e+01   -4.7000098974e-02
    3.2298976898e+01   -4.7468300909e-02
    3.2398956299e+01   -4.7938600183e-02
    3.2500015259e+01   -4.8415899277e-02
    3.2598815918e+01   -4.8884898424e-02
    3.2699146271e+01   -4.9363899976e-02
    3.2799465179e+01   -4.9845598638e-02
    3.2899955750e+01   -5.0330400467e-02
    3.2999244690e+01   -5.0811000168e-02
    3.3099006653e+01   -5.1295500249e-02
    3.3198947906e+01   -5.1783099771e-02
    3.3298881531e+01   -5.2274100482e-02
    3.3398788452e+01   -5.2769400179e-02
    3.3498664856e+01   -5.3269598633e-02
    3.3598518372e+01   -5.3775198758e-02
    3.3700004578e+01   -5.4295200855e-02
    3.3799858093e+01   -5.4813098162e-02
    3.3899078369e+01   -5.5334001780e-02
    3.3999279022e+01   -5.5865898728e-02
    3.4099468231e+01   -5.6403398514e-02
    3.4199657440e+01   -5.6945998222e-02
    3.4298976898e+01   -5.7488601655e-02
    3.4398822784e+01   -5.8038100600e-02
    3.4498683929e+01   -5.8591101319e-02
    3.4600006104e+01   -5.9155300260e-02
    3.4698703766e+01   -5.9707999229e-02
    3.4799999237e+01   -6.0278698802e-02
    3.4899131775e+01   -6.0840498656e-02
    3.4999439240e+01   -6.1412498355e-02
    3.5098583221e+01   -6.1981201172e-02
    3.5199813843e+01   -6.2565401196e-02
    3.5299800873e+01   -6.3145801425e-02
    3.5399803162e+01   -6.3729301095e-02
    3.5499828339e+01   -6.4315803349e-02
    3.5599868774e+01   -6.4904697239e-02
    3.5699928284e+01   -6.5496101975e-02
    3.5799468994e+01   -6.6086903214e-02
    3.5899879456e+01   -6.6685803235e-02
    3.5999172211e+01   -6.7281298339e-02
    3.6099941254e+01   -6.7889302969e-02
    3.6198822021e+01   -6.8489797413e-02
    3.6299247742e+01   -6.9103896618e-02
    3.6398387909e+01   -6.9714300334e-02
    3.6498443604e+01   -7.0334702730e-02
    3.6598506927e+01   -7.0959396660e-02
    3.6698467255e+01   -7.1587696671e-02
    3.6798519135e+01   -7.2220496833e-02
    3.6898571014e+01   -7.2857096791e-02
    3.6999034882e+01   -7.3499903083e-02
    3.7099430084e+01   -7.4146002531e-02
    3.7199806213e+01   -7.4795797467e-02
    3.7298713684e+01   -7.5439698994e-02
    3.7398700714e+01   -7.6094202697e-02
    3.7498680115e+01   -7.6752498746e-02
    3.7599437714e+01   -7.7419802547e-02
    3.7699954987e+01   -7.8089803457e-02
    3.7798725128e+01   -7.8752301633e-02
    3.7899040222e+01   -7.9429402947e-02
    3.7998901367e+01   -8.0107502639e-02
    3.8098854065e+01   -8.0790303648e-02
    3.8199676514e+01   -8.1483103335e-02
    3.8298599243e+01   -8.2166902721e-02
    3.8398880005e+01   -8.2864202559e-02
    3.8499145508e+01   -8.3565898240e-02
    3.8599403381e+01   -8.4271997213e-02
    3.8699810028e+01   -8.4983699024e-02
    3.8799743652e+01   -8.5696697235e-02
    3.8899318695e+01   -8.6411699653e-02
    3.8999256134e+01   -8.7134197354e-02
    3.9099193573e+01   -8.7861396372e-02
    3.9199428558e+01   -8.8595703244e-02
    3.9299346924e+01   -8.9332297444e-02
    3.9399574280e+01   -9.0075500309e-02
    3.9499832153e+01   -9.0822800994e-02
    3.9598548889e+01   -9.1561697423e-02
    3.9698802948e+01   -9.2314697802e-02
    3.9799804688e+01   -9.3075498939e-02
    3.9899700165e+01   -9.3830399215e-02
    3.9999599457e+01   -9.4587497413e-02
    4.0099491119e+01   -9.5347099006e-02
    4.0199382782e+01   -9.6109300852e-02
    4.0299308777e+01   -9.6874803305e-02
    4.0398658752e+01   -9.7638897598e-02
    4.0498542786e+01   -9.8410896957e-02
    4.0599205017e+01   -9.9192798138e-02
    4.0699443817e+01   -9.9975697696e-02
    4.0798583984e+01   -1.0075499862e-01
    4.0899005890e+01   -1.0154899955e-01
    4.0999259949e+01   -1.0234600306e-01
    4.1099006653e+01   -1.0314500332e-01
    4.1199893951e+01   -1.0395900160e-01
    4.1299819946e+01   -1.0476999730e-01
    4.1399124146e+01   -1.0558100045e-01
    4.1499900818e+01   -1.0640799999e-01
    4.1598678589e+01   -1.0722400248e-01
    4.1698535919e+01   -1.0805299878e-01
    4.1798995972e+01   -1.0889100283e-01
    4.1898971558e+01   -1.0972899944e-01
    4.1999313354e+01   -1.1057300121e-01
    4.2099376678e+01   -1.1141800135e-01
    4.2199447632e+01   -1.1226499826e-01
    4.2299526215e+01   -1.1311499774e-01
    4.2399623871e+01   -1.1396700144e-01
    4.2499732971e+01   -1.1482200027e-01
    4.2599319458e+01   -1.1567600071e-01
    4.2699764252e+01   -1.1654099822e-01
    4.2798641205e+01   -1.1739599705e-01
    4.2898471832e+01   -1.1826200038e-01
    4.2998527527e+01   -1.1913300306e-01
    4.3098300934e+01   -1.2000399828e-01
    4.3198326111e+01   -1.2088000029e-01
    4.3298343658e+01   -1.2176200002e-01
    4.3398330688e+01   -1.2264800072e-01
    4.3499904633e+01   -1.2355600297e-01
    4.3599796295e+01   -1.2445700169e-01
    4.3699680328e+01   -1.2536500394e-01
    4.3799571991e+01   -1.2628300488e-01
    4.3899032593e+01   -1.2720499933e-01
    4.3999256134e+01   -1.2814299762e-01
    4.4099460602e+01   -1.2908899784e-01
    4.4199665070e+01   -1.3004299998e-01
    4.4299095154e+01   -1.3099700212e-01
    4.4398963928e+01   -1.3196100295e-01
    4.4498863220e+01   -1.3293099403e-01
    4.4598987579e+01   -1.3390800357e-01
    4.4699558258e+01   -1.3489300013e-01
    4.4799873352e+01   -1.3588200510e-01
    4.4898685455e+01   -1.3685999811e-01
    4.4999061584e+01   -1.3785800338e-01
    4.5098480225e+01   -1.3885000348e-01
    4.5198535919e+01   -1.3985399902e-01
    4.5298606873e+01   -1.4086200297e-01
    4.5398704529e+01   -1.4187300205e-01
    4.5498825073e+01   -1.4288799465e-01
    4.5598976135e+01   -1.4390599728e-01
    4.5699150085e+01   -1.4492599666e-01
    4.5798889160e+01   -1.4594599605e-01
    4.5899417877e+01   -1.4697700739e-01
    4.5998348236e+01   -1.4799599349e-01
    4.6099803925e+01   -1.4904700220e-01
    4.6198802948e+01   -1.5007799864e-01
    4.6299346924e+01   -1.5113100410e-01
    4.6398906708e+01   -1.5217900276e-01
    4.6499076843e+01   -1.5324099362e-01
    4.6599254608e+01   -1.5430800617e-01
    4.6699428558e+01   -1.5538200736e-01
    4.6799594879e+01   -1.5646000206e-01
    4.6899757385e+01   -1.5754400194e-01
    4.6999172211e+01   -1.5862299502e-01
    4.7099685669e+01   -1.5971900523e-01
    4.7198627472e+01   -1.6080300510e-01
    4.7298973083e+01   -1.6190600395e-01
    4.7399055481e+01   -1.6301099956e-01
    4.7499118805e+01   -1.6412100196e-01
    4.7599098206e+01   -1.6523599625e-01
    4.7699497223e+01   -1.6636100411e-01
    4.7798332214e+01   -1.6747500002e-01
    4.7899093628e+01   -1.6861599684e-01
    4.7999114990e+01   -1.6975499690e-01
    4.8099136353e+01   -1.7090000212e-01
    4.8199150085e+01   -1.7204999924e-01
    4.8299163818e+01   -1.7320600152e-01
    4.8399497986e+01   -1.7437100410e-01
    4.8499809265e+01   -1.7554299533e-01
    4.8598567963e+01   -1.7670300603e-01
    4.8699710846e+01   -1.7789800465e-01
    4.8799705505e+01   -1.7908599973e-01
    4.8899715424e+01   -1.8027999997e-01
    4.8999729156e+01   -1.8148100376e-01
    4.9099742889e+01   -1.8268799782e-01
    4.9199687958e+01   -1.8389999866e-01
    4.9299121857e+01   -1.8511100113e-01
    4.9399105072e+01   -1.8633300066e-01
    4.9499420166e+01   -1.8756400049e-01
    4.9599727631e+01   -1.8879699707e-01
    4.9698486328e+01   -1.9001400471e-01
    4.9798564911e+01   -1.9124899805e-01
    4.9898513794e+01   -1.9248600304e-01
    4.9998458862e+01   -1.9372500479e-01
    5.0098396301e+01   -1.9496700168e-01
    5.0198333740e+01   -1.9621300697e-01
    5.0298988342e+01   -1.9747200608e-01
    5.0399051666e+01   -1.9872899354e-01
    5.0498958588e+01   -1.9998799264e-01
    5.0599754333e+01   -2.0126399398e-01
    5.0698848724e+01   -2.0252500474e-01
    5.0798778534e+01   -2.0380200446e-01
    5.0899791718e+01   -2.0510099828e-01
    5.0998546600e+01   -2.0637699962e-01
    5.1099422455e+01   -2.0768900216e-01
    5.1199409485e+01   -2.0899599791e-01
    5.1299392700e+01   -2.1031099558e-01
    5.1398460388e+01   -2.1162100136e-01
    5.1498828888e+01   -2.1295399964e-01
    5.1599227905e+01   -2.1429499984e-01
    5.1698795319e+01   -2.1562999487e-01
    5.1799270630e+01   -2.1698300540e-01
    5.1898498535e+01   -2.1832300723e-01
    5.1999736786e+01   -2.1969500184e-01
    5.2098293304e+01   -2.2103300691e-01
    5.2198513031e+01   -2.2239500284e-01
    5.2298740387e+01   -2.2375999391e-01
    5.2398986816e+01   -2.2512799501e-01
    5.2499252319e+01   -2.2649900615e-01
    5.2598693848e+01   -2.2786299884e-01
    5.2699298859e+01   -2.2924700379e-01
    5.2798324585e+01   -2.3061299324e-01
    5.2898887634e+01   -2.3200500011e-01
    5.2998146057e+01   -2.3338299990e-01
    5.3098270416e+01   -2.3477500677e-01
    5.3198638916e+01   -2.3617599905e-01
    5.3298763275e+01   -2.3757900298e-01
    5.3398845673e+01   -2.3898899555e-01
    5.3498863220e+01   -2.4040700495e-01
    5.3598827362e+01   -2.4183399975e-01
    5.3698783875e+01   -2.4327200651e-01
    5.3798748016e+01   -2.4472099543e-01
    5.3898376465e+01   -2.4617500603e-01
    5.3998661041e+01   -2.4764999747e-01
    5.4098922729e+01   -2.4913500249e-01
    5.4199176788e+01   -2.5062999129e-01
    5.4299434662e+01   -2.5213399529e-01
    5.4398975372e+01   -2.5363600254e-01
    5.4498928070e+01   -2.5514999032e-01
    5.4598907471e+01   -2.5667199492e-01
    5.4699142456e+01   -2.5820299983e-01
    5.4799526215e+01   -2.5974300504e-01
    5.4898410797e+01   -2.6126599312e-01
    5.4998855591e+01   -2.6281899214e-01
    5.5099414825e+01   -2.6437899470e-01
    5.5199550629e+01   -2.6593899727e-01
    5.5299709320e+01   -2.6750400662e-01
    5.5398262024e+01   -2.6904898882e-01
    5.5498493195e+01   -2.7062401175e-01
    5.5598762512e+01   -2.7220299840e-01
    5.5699066162e+01   -2.7378600836e-01
    5.5799133301e+01   -2.7536898851e-01
    5.5898250580e+01   -2.7694299817e-01
    5.5998855591e+01   -2.7854698896e-01
    5.6098251343e+01   -2.8013700247e-01
    5.6198928833e+01   -2.8175601363e-01
    5.6299610138e+01   -2.8338199854e-01
    5.6399494171e+01   -2.8500300646e-01
    5.6498153687e+01   -2.8661200404e-01
    5.6598472595e+01   -2.8825500607e-01
    5.6698787689e+01   -2.8990399837e-01
    5.6799095154e+01   -2.9155999422e-01
    5.6899394989e+01   -2.9322201014e-01
    5.6998844147e+01   -2.9487401247e-01
    5.7099479675e+01   -2.9655200243e-01
    5.7198535919e+01   -2.9820799828e-01
    5.7298126221e+01   -2.9987800121e-01
    5.7398303986e+01   -3.0156400800e-01
    5.7498462677e+01   -3.0325499177e-01
    5.7599483490e+01   -3.0496698618e-01
    5.7698429108e+01   -3.0665099621e-01
    5.7798900604e+01   -3.0836901069e-01
    5.7898387909e+01   -3.1007799506e-01
    5.7998489380e+01   -3.1180599332e-01
    5.8098590851e+01   -3.1354099512e-01
    5.8198692322e+01   -3.1528401375e-01
    5.8298336029e+01   -3.1702598929e-01
    5.8398750305e+01   -3.1878998876e-01
    5.8499137878e+01   -3.2056000829e-01
    5.8599510193e+01   -3.2233899832e-01
    5.8698715210e+01   -3.2410299778e-01
    5.8798801422e+01   -3.2589000463e-01
    5.8898906708e+01   -3.2768499851e-01
    5.8999023438e+01   -3.2948699594e-01
    5.9099143982e+01   -3.3129501343e-01
    5.9198684692e+01   -3.3309900761e-01
    5.9298103333e+01   -3.3490601182e-01
    5.9398941040e+01   -3.3674401045e-01
    5.9499332428e+01   -3.3857798576e-01
    5.9598171234e+01   -3.4038600326e-01
    5.9698547363e+01   -3.4222498536e-01
    5.9799266815e+01   -3.4407299757e-01
    5.9899276733e+01   -3.4591200948e-01
    5.9999275208e+01   -3.4775501490e-01
    6.0099266052e+01   -3.4960201383e-01
    6.0199249268e+01   -3.5145500302e-01
    6.0298599243e+01   -3.5330200195e-01
    6.0399562836e+01   -3.5518500209e-01
    6.0499507904e+01   -3.5705700517e-01
    6.0598796844e+01   -3.5892501473e-01
    6.0699085236e+01   -3.6081901193e-01
    6.0798671722e+01   -3.6270800233e-01
    6.0898384094e+01   -3.6460900307e-01
    6.0998741150e+01   -3.6653000116e-01
    6.1098243713e+01   -3.6844500899e-01
    6.1198612213e+01   -3.7038499117e-01
    6.1298496246e+01   -3.7232398987e-01
    6.1398799896e+01   -3.7428098917e-01
    6.1499267578e+01   -3.7624898553e-01
    6.1598220825e+01   -3.7819498777e-01
    6.1698783875e+01   -3.8018000126e-01
    6.1799381256e+01   -3.8217198849e-01
    6.1898834229e+01   -3.8414698839e-01
    6.1998859406e+01   -3.8613799214e-01
    6.2099220276e+01   -3.8813701272e-01
    6.2199611664e+01   -3.9013999701e-01
    6.2298370361e+01   -3.9211198688e-01
    6.2398792267e+01   -3.9411899447e-01
    6.2499240875e+01   -3.9612999558e-01
    6.2598773956e+01   -3.9812600613e-01
    6.2699558258e+01   -4.0015199780e-01
    6.2798755646e+01   -4.0215098858e-01
    6.2899490356e+01   -4.0418401361e-01
    6.2998657227e+01   -4.0618899465e-01
    6.3099346161e+01   -4.0822800994e-01
    6.3199203491e+01   -4.1025298834e-01
    6.3299476624e+01   -4.1229400039e-01
    6.3398059845e+01   -4.1430801153e-01
    6.3498203278e+01   -4.1636401415e-01
    6.3598281860e+01   -4.1843101382e-01
    6.3698345184e+01   -4.2050901055e-01
    6.3798412323e+01   -4.2260101438e-01
    6.3899494171e+01   -4.2472800612e-01
    6.3998321533e+01   -4.2682000995e-01
    6.4098655701e+01   -4.2895600200e-01
    6.4198974609e+01   -4.3110400438e-01
    6.4299301147e+01   -4.3326398730e-01
    6.4398712158e+01   -4.3541300297e-01
    6.4498733521e+01   -4.3758401275e-01
    6.4598770142e+01   -4.3976399302e-01
    6.4699050903e+01   -4.4195699692e-01
    6.4799507141e+01   -4.4416201115e-01
    6.4898460388e+01   -4.4634300470e-01
    6.4998977661e+01   -4.4856700301e-01
    6.5099517822e+01   -4.5080000162e-01
    6.5198020935e+01   -4.5299598575e-01
    6.5298271179e+01   -4.5523801446e-01
    6.5398559570e+01   -4.5748901367e-01
    6.5498901367e+01   -4.5974600315e-01
    6.5599288940e+01   -4.6200901270e-01
    6.5698081970e+01   -4.6424001455e-01
    6.5799057007e+01   -4.6652498841e-01
    6.5898315430e+01   -4.6877700090e-01
    6.5998672485e+01   -4.7106000781e-01
    6.6099273682e+01   -4.7335600853e-01
    6.6198547363e+01   -4.7562998533e-01
    6.6299369812e+01   -4.7794699669e-01
    6.6398918152e+01   -4.8024299741e-01
    6.6499366760e+01   -4.8256701231e-01
    6.6598175049e+01   -4.8486098647e-01
    6.6698631287e+01   -4.8720100522e-01
    6.6799079895e+01   -4.8954799771e-01
    6.6899513245e+01   -4.9189901352e-01
    6.6999481201e+01   -4.9424499273e-01
    6.7098686218e+01   -4.9658000469e-01
    6.7199401855e+01   -4.9895501137e-01
    6.7298522949e+01   -5.0129997730e-01
    6.7398216248e+01   -5.0366401672e-01
    6.7498466492e+01   -5.0604897738e-01
    6.7599105835e+01   -5.0845098495e-01
    6.7698150635e+01   -5.1082402468e-01
    6.7798721313e+01   -5.1324200630e-01
    6.7899284363e+01   -5.1567000151e-01
    6.7999114990e+01   -5.1808798313e-01
    6.8099319458e+01   -5.2052497864e-01
    6.8197891235e+01   -5.2292901278e-01
    6.8299293518e+01   -5.2540999651e-01
    6.8398277283e+01   -5.2783900499e-01
    6.8498756409e+01   -5.3031402826e-01
    6.8599227905e+01   -5.3279697895e-01
    6.8698150635e+01   -5.3524798155e-01
    6.8798355103e+01   -5.3773897886e-01
    6.8898590088e+01   -5.4023897648e-01
    6.8998832703e+01   -5.4274702072e-01
    6.9099082947e+01   -5.4526197910e-01
    6.9198181152e+01   -5.4775601625e-01
    6.9298210144e+01   -5.5027997494e-01
    6.9398376465e+01   -5.5281299353e-01
    6.9499244690e+01   -5.5536901951e-01
    6.9598175049e+01   -5.5787897110e-01
    6.9698638916e+01   -5.6043100357e-01
    6.9799362183e+01   -5.6299400330e-01
    6.9899452209e+01   -5.6554400921e-01
    6.9997894287e+01   -5.6805801392e-01
    7.0097953796e+01   -5.7062000036e-01
    7.0198013306e+01   -5.7318800688e-01
    7.0298385620e+01   -5.7577198744e-01
    7.0397972107e+01   -5.7834500074e-01
    7.0497970581e+01   -5.8093702793e-01
    7.0598266602e+01   -5.8354699612e-01
    7.0698616028e+01   -5.8616799116e-01
    7.0798156738e+01   -5.8877998590e-01
    7.0898239136e+01   -5.9141600132e-01
    7.0998672485e+01   -5.9407299757e-01
    7.1099128723e+01   -5.9674197435e-01
    7.1198059082e+01   -5.9938102961e-01
    7.1298225403e+01   -6.0206401348e-01
    7.1398330688e+01   -6.0475701094e-01
    7.1498901367e+01   -6.0747200251e-01
    7.1597961426e+01   -6.1015498638e-01
    7.1698646545e+01   -6.1289101839e-01
    7.1799377441e+01   -6.1563497782e-01
    7.1898872375e+01   -6.1835098267e-01
    7.1999336243e+01   -6.2109798193e-01
    7.2098213196e+01   -6.2380397320e-01
    7.2198783875e+01   -6.2655800581e-01
    7.2299377441e+01   -6.2931400537e-01
    7.2398338318e+01   -6.3202697039e-01
    7.2498985291e+01   -6.3478797674e-01
    7.2597938538e+01   -6.3750499487e-01
    7.2698936462e+01   -6.4028102160e-01
    7.2798332214e+01   -6.4301598072e-01
    7.2899261475e+01   -6.4579701424e-01
    7.2998626709e+01   -6.4853501320e-01
    7.3097946167e+01   -6.5127497911e-01
    7.3198951721e+01   -6.5406501293e-01
    7.3299400330e+01   -6.5684401989e-01
    7.3398155212e+01   -6.5958499908e-01
    7.3498458862e+01   -6.6237902641e-01
    7.3598686218e+01   -6.6518300772e-01
    7.3698890686e+01   -6.6799998283e-01
    7.3799095154e+01   -6.7083102465e-01
    7.3898948669e+01   -6.7366802692e-01
    7.3999420166e+01   -6.7653602362e-01
    7.4098297119e+01   -6.7937397957e-01
    7.4198692322e+01   -6.8226897717e-01
    7.4299095154e+01   -6.8517899513e-01
    7.4399269104e+01   -6.8809497356e-01
    7.4499359131e+01   -6.9102102518e-01
    7.4597831726e+01   -6.9391000271e-01
    7.4697959900e+01   -6.9686001539e-01
    7.4798286438e+01   -6.9982701540e-01
    7.4898857117e+01   -7.0281302929e-01
    7.4997894287e+01   -7.0576399565e-01
    7.5098503113e+01   -7.0877200365e-01
    7.5198562622e+01   -7.1177399158e-01
    7.5298904419e+01   -7.1479302645e-01
    7.5399284363e+01   -7.1782201529e-01
    7.5498069763e+01   -7.2080898285e-01
    7.5598571777e+01   -7.2385299206e-01
    7.5699127197e+01   -7.2690200806e-01
    7.5798065186e+01   -7.2990798950e-01
    7.5899368286e+01   -7.3299300671e-01
    7.5998306274e+01   -7.3601198196e-01
    7.6098739624e+01   -7.3908400536e-01
    7.6198127747e+01   -7.4213200808e-01
    7.6299057007e+01   -7.4523502588e-01
    7.6398429871e+01   -7.4829900265e-01
    7.6498603821e+01   -7.5139397383e-01
    7.6599174500e+01   -7.5450998545e-01
    7.6698097229e+01   -7.5758200884e-01
    7.6798660278e+01   -7.6071101427e-01
    7.6899208069e+01   -7.6384598017e-01
    7.6998306274e+01   -7.6693999767e-01
    7.7099166870e+01   -7.7009600401e-01
    7.7198432922e+01   -7.7320802212e-01
    7.7298416138e+01   -7.7635002136e-01
    7.7398780823e+01   -7.7951002121e-01
    7.7498352051e+01   -7.8265297413e-01
    7.7598548889e+01   -7.8582298756e-01
    7.7699234009e+01   -7.8901898861e-01
    7.7798362732e+01   -7.9217398167e-01
    7.7899032593e+01   -7.9538798332e-01
    7.7998100281e+01   -7.9855901003e-01
    7.8098434448e+01   -8.0177897215e-01
    7.8198776245e+01   -8.0500799417e-01
    7.8298385620e+01   -8.0821901560e-01
    7.8399032593e+01   -8.1147301197e-01
    7.8498085022e+01   -8.1468200684e-01
    7.8598670959e+01   -8.1794899702e-01
    7.8698104858e+01   -8.2118600607e-01
    7.8798423767e+01   -8.2445901632e-01
    7.8898788452e+01   -8.2774198055e-01
    7.8999168396e+01   -8.3103501797e-01
    7.9097923279e+01   -8.3428198099e-01
    7.9198036194e+01   -8.3758199215e-01
    7.9297828674e+01   -8.4087902308e-01
    7.9398124695e+01   -8.4419798851e-01
    7.9498718262e+01   -8.4753197432e-01
    7.9599296570e+01   -8.5087001324e-01
    7.9698318481e+01   -8.5415798426e-01
    7.9798080444e+01   -8.5747498274e-01
    7.9898269653e+01   -8.6080998182e-01
    7.9998451233e+01   -8.6415201426e-01
    8.0098617554e+01   -8.6750102043e-01
    8.0198776245e+01   -8.7085801363e-01
    8.0297973633e+01   -8.7419199944e-01
    8.0398445129e+01   -8.7757998705e-01
    8.0497947693e+01   -8.8094598055e-01
    8.0599060059e+01   -8.8437902927e-01
    8.0697914124e+01   -8.8774698973e-01
    8.0798088074e+01   -8.9117300510e-01
    8.0898307800e+01   -8.9461398125e-01
    8.0998809814e+01   -8.9807701111e-01
    8.1097900391e+01   -9.0150398016e-01
    8.1198966980e+01   -9.0501302481e-01
    8.1298370361e+01   -9.0847700834e-01
    8.1398605347e+01   -9.1198301315e-01
    8.1499275208e+01   -9.1551601887e-01
    8.1598442078e+01   -9.1900801659e-01
    8.1699234009e+01   -9.2256599665e-01
    8.1798530579e+01   -9.2607897520e-01
    8.1897857666e+01   -9.2959898710e-01
    8.1999053955e+01   -9.3318802118e-01
    8.2098083496e+01   -9.3670099974e-01
    8.2198829651e+01   -9.4027400017e-01
    8.2297943115e+01   -9.4378900528e-01
    8.2398750305e+01   -9.4736397266e-01
    8.2497940063e+01   -9.5088100433e-01
    8.2599136353e+01   -9.5447099209e-01
    8.2698791504e+01   -9.5800799131e-01
    8.2798385620e+01   -9.6154397726e-01
    8.2897949219e+01   -9.6508002281e-01
    8.2999046326e+01   -9.6867001057e-01
    8.3098541260e+01   -9.7220301628e-01
    8.3199142456e+01   -9.7577601671e-01
    8.3298110962e+01   -9.7929501534e-01
    8.3398666382e+01   -9.8287802935e-01
    8.3499122620e+01   -9.8646700382e-01
    8.3597854614e+01   -9.9000698328e-01
    8.3698188782e+01   -9.9361997843e-01
    8.3798522949e+01   -9.9724900723e-01
    8.3897804260e+01   -1.0008599758e+00
    8.3998382568e+01   -1.0045299530e+00
    8.4098884583e+01   -1.0082099438e+00
    8.4197814941e+01   -1.0118499994e+00
    8.4298294067e+01   -1.0155700445e+00
    8.4397979736e+01   -1.0192799568e+00
    8.4498130798e+01   -1.0230100155e+00
    8.4598312378e+01   -1.0267599821e+00
    8.4698509216e+01   -1.0305299759e+00
    8.4798606873e+01   -1.0343099833e+00
    8.4899253845e+01   -1.0381200314e+00
    8.4998344421e+01   -1.0418900251e+00
    8.5099014282e+01   -1.0457299948e+00
    8.5198188782e+01   -1.0495200157e+00
    8.5299186707e+01   -1.0534000397e+00
    8.5397994995e+01   -1.0571999550e+00
    8.5498504639e+01   -1.0610699654e+00
    8.5599098206e+01   -1.0649499893e+00
    8.5698104858e+01   -1.0687799454e+00
    8.5797729492e+01   -1.0726399422e+00
    8.5898422241e+01   -1.0765399933e+00
    8.5999107361e+01   -1.0804500580e+00
    8.6099044800e+01   -1.0843399763e+00
    8.6198532104e+01   -1.0882200003e+00
    8.6297996521e+01   -1.0921100378e+00
    8.6399009705e+01   -1.0960700512e+00
    8.6498611450e+01   -1.0999799967e+00
    8.6597625732e+01   -1.1038700342e+00
    8.6698287964e+01   -1.1078399420e+00
    8.6798950195e+01   -1.1118099689e+00
    8.6897956848e+01   -1.1157200336e+00
    8.6998817444e+01   -1.1197099686e+00
    8.7098220825e+01   -1.1236499548e+00
    8.7198150635e+01   -1.1276099682e+00
    8.7299079895e+01   -1.1316200495e+00
    8.7398658752e+01   -1.1355799437e+00
    8.7498130798e+01   -1.1395499706e+00
    8.7598899841e+01   -1.1435799599e+00
    8.7698127747e+01   -1.1475499868e+00
    8.7798904419e+01   -1.1516000032e+00
    8.7898139954e+01   -1.1555900574e+00
    8.7998779297e+01   -1.1596599817e+00
    8.8097587585e+01   -1.1636500359e+00
    8.8198059082e+01   -1.1677299738e+00
    8.8298675537e+01   -1.1718200445e+00
    8.8397895813e+01   -1.1758600473e+00
    8.8498611450e+01   -1.1799700260e+00
    8.8597763062e+01   -1.1840200424e+00
    8.8698501587e+01   -1.1881400347e+00
    8.8797897339e+01   -1.1922199726e+00
    8.8898391724e+01   -1.1963499784e+00
    8.8998924255e+01   -1.2004899979e+00
    8.9097831726e+01   -1.2045700550e+00
    8.9198394775e+01   -1.2087299824e+00
    8.9298904419e+01   -1.2129000425e+00
    8.9397712708e+01   -1.2169899940e+00
    8.9497779846e+01   -1.2211500406e+00
    8.9598510742e+01   -1.2253400087e+00
    8.9697662354e+01   -1.2294600010e+00
    8.9799003601e+01   -1.2336800098e+00
    8.9897674561e+01   -1.2378000021e+00
    8.9997970581e+01   -1.2419799566e+00
    9.0098243713e+01   -1.2461800575e+00
    9.0198501587e+01   -1.2503900528e+00
    9.0298751831e+01   -1.2546099424e+00
    9.0397926331e+01   -1.2587900162e+00
    9.0498855591e+01   -1.2630699873e+00
    9.0598960876e+01   -1.2673300505e+00
    9.0699050903e+01   -1.2716000080e+00
    9.0799163818e+01   -1.2758899927e+00
    9.0898490906e+01   -1.2801599503e+00
    9.0999046326e+01   -1.2845000029e+00
    9.1099060059e+01   -1.2888400555e+00
    9.1198524475e+01   -1.2931599617e+00
    9.1297676086e+01   -1.2974900007e+00
    9.1398414612e+01   -1.3019100428e+00
    9.1499061584e+01   -1.3063399792e+00
    9.1598091125e+01   -1.3107000589e+00
    9.1698982239e+01   -1.3151700497e+00
    9.1798377991e+01   -1.3195699453e+00
    9.1897811890e+01   -1.3239799738e+00
    9.1998817444e+01   -1.3284699917e+00
    9.2097976685e+01   -1.3328700066e+00
    9.2198867798e+01   -1.3373500109e+00
    9.2298149109e+01   -1.3417600393e+00
    9.2399131775e+01   -1.3462400436e+00
    9.2498512268e+01   -1.3506499529e+00
    9.2597877502e+01   -1.3550599813e+00
    9.2697708130e+01   -1.3594900370e+00
    9.2799026489e+01   -1.3639800549e+00
    9.2898323059e+01   -1.3683899641e+00
    9.2998008728e+01   -1.3727999926e+00
    9.3097648621e+01   -1.3772200346e+00
    9.3198387146e+01   -1.3816800117e+00
    9.3297500610e+01   -1.3860800266e+00
    9.3398200989e+01   -1.3905500174e+00
    9.3498794556e+01   -1.3950300217e+00
    9.3597633362e+01   -1.3994499445e+00
    9.3698081970e+01   -1.4039599895e+00
    9.3798515320e+01   -1.4084800482e+00
    9.3898735046e+01   -1.4130200148e+00
    9.3997825623e+01   -1.4175299406e+00
    9.4098381042e+01   -1.4221299887e+00
    9.4198898315e+01   -1.4267499447e+00
    9.4297859192e+01   -1.4313199520e+00
    9.4398071289e+01   -1.4359600544e+00
    9.4498252869e+01   -1.4406299591e+00
    9.4598472595e+01   -1.4453099966e+00
    9.4698722839e+01   -1.4500199556e+00
    9.4798881531e+01   -1.4547400475e+00
    9.4898048401e+01   -1.4594399929e+00
    9.4998756409e+01   -1.4642299414e+00
    9.5097946167e+01   -1.4689600468e+00
    9.5198738098e+01   -1.4737900496e+00
    9.5297683716e+01   -1.4785399437e+00
    9.5398208618e+01   -1.4833799601e+00
    9.5498626709e+01   -1.4882299900e+00
    9.5598861694e+01   -1.4930700064e+00
    9.5697959900e+01   -1.4978699684e+00
    9.5798217773e+01   -1.5027400255e+00
    9.5899002075e+01   -1.5076400042e+00
    9.5998146057e+01   -1.5124700069e+00
    9.6098182678e+01   -1.5173499584e+00
    9.6197776794e+01   -1.5222200155e+00
    9.6298912048e+01   -1.5271899700e+00
    9.6398475647e+01   -1.5320800543e+00
    9.6498977661e+01   -1.5370299816e+00
    9.6598091125e+01   -1.5419199467e+00
    9.6698844910e+01   -1.5469100475e+00
    9.6797950745e+01   -1.5518200397e+00
    9.6898712158e+01   -1.5568100214e+00
    9.6998214722e+01   -1.5617599487e+00
    9.7097724915e+01   -1.5667099953e+00
    9.7198402405e+01   -1.5717200041e+00
    9.7298225403e+01   -1.5767099857e+00
    9.7398559570e+01   -1.5817300081e+00
    9.7497909546e+01   -1.5867199898e+00
    9.7598747253e+01   -1.5917899609e+00
    9.7698051453e+01   -1.5967999697e+00
    9.7798912048e+01   -1.6018999815e+00
    9.7898231506e+01   -1.6069400311e+00
    9.7998313904e+01   -1.6120300293e+00
    9.8098892212e+01   -1.6171599627e+00
    9.8197853088e+01   -1.6222200394e+00
    9.8298690796e+01   -1.6273900270e+00
    9.8398025513e+01   -1.6324900389e+00
    9.8498847961e+01   -1.6376899481e+00
    9.8598106384e+01   -1.6428099871e+00
    9.8698974609e+01   -1.6480200291e+00
    9.8797836304e+01   -1.6531499624e+00
    9.8898475647e+01   -1.6583700180e+00
    9.8997512817e+01   -1.6635299921e+00
    9.9098251343e+01   -1.6687799692e+00
    9.9199012756e+01   -1.6740499735e+00
    9.9297470093e+01   -1.6792099476e+00
    9.9398101807e+01   -1.6844899654e+00
    9.9497741699e+01   -1.6897300482e+00
    9.9598617554e+01   -1.6950399876e+00
    9.9697898865e+01   -1.7002700567e+00
    9.9797409058e+01   -1.7055200338e+00
    9.9897827148e+01   -1.7108299732e+00
    9.9998229980e+01   -1.7161500454e+00
    1.0009860229e+02   -1.7214800119e+00
    1.0019895935e+02   -1.7268300056e+00
    1.0029766846e+02   -1.7321100235e+00
    1.0039761353e+02   -1.7374700308e+00
    1.0049803925e+02   -1.7428900003e+00
    1.0059819031e+02   -1.7483099699e+00
    1.0069831848e+02   -1.7537599802e+00
    1.0079846191e+02   -1.7592400312e+00
    1.0089839935e+02   -1.7647199631e+00
    1.0099899292e+02   -1.7702800035e+00
    1.0109806824e+02   -1.7757699490e+00
    1.0119821167e+02   -1.7813500166e+00
    1.0129826355e+02   -1.7869399786e+00
    1.0139749908e+02   -1.7925200462e+00
    1.0149790192e+02   -1.7981899977e+00
    1.0159793091e+02   -1.8038500547e+00
    1.0169889832e+02   -1.8095899820e+00
    1.0179837036e+02   -1.8152600527e+00
    1.0189788818e+02   -1.8209400177e+00
    1.0199812317e+02   -1.8266700506e+00
    1.0209883881e+02   -1.8324300051e+00
    1.0219863129e+02   -1.8381400108e+00
    1.0229736328e+02   -1.8437999487e+00
    1.0239849091e+02   -1.8495899439e+00
    1.0249801636e+02   -1.8552900553e+00
    1.0259841919e+02   -1.8610399961e+00
    1.0269841003e+02   -1.8667700291e+00
    1.0279743195e+02   -1.8724499941e+00
    1.0289849854e+02   -1.8782500029e+00
    1.0299900055e+02   -1.8840099573e+00
    1.0309874725e+02   -1.8897299767e+00
    1.0319805145e+02   -1.8954299688e+00
    1.0329891968e+02   -1.9012199640e+00
    1.0339807892e+02   -1.9069299698e+00
    1.0349875641e+02   -1.9127500057e+00
    1.0359767914e+02   -1.9184800386e+00
    1.0369821167e+02   -1.9243400097e+00
    1.0379872131e+02   -1.9302300215e+00
    1.0389772797e+02   -1.9360599518e+00
    1.0399839783e+02   -1.9420200586e+00
    1.0409898376e+02   -1.9480099678e+00
    1.0419795990e+02   -1.9539300203e+00
    1.0429847717e+02   -1.9599800110e+00
    1.0439781952e+02   -1.9659899473e+00
    1.0449800873e+02   -1.9720799923e+00
    1.0459824371e+02   -1.9782099724e+00
    1.0469851685e+02   -1.9843800068e+00
    1.0479872131e+02   -1.9905699492e+00
    1.0489794922e+02   -1.9967399836e+00
    1.0499871826e+02   -2.0030400753e+00
    1.0509796143e+02   -2.0092599392e+00
    1.0519880676e+02   -2.0156199932e+00
    1.0529811096e+02   -2.0218999386e+00
    1.0539871216e+02   -2.0282800198e+00
    1.0549797058e+02   -2.0346000195e+00
    1.0559771729e+02   -2.0409700871e+00
    1.0569760895e+02   -2.0473699570e+00
    1.0579885864e+02   -2.0538699627e+00
    1.0589743042e+02   -2.0602200031e+00
    1.0599835205e+02   -2.0667400360e+00
    1.0609763336e+02   -2.0731699467e+00
    1.0619763947e+02   -2.0796699524e+00
    1.0629888916e+02   -2.0862801075e+00
    1.0639858246e+02   -2.0927898884e+00
    1.0649806213e+02   -2.0993199348e+00
    1.0659837341e+02   -2.1059100628e+00
    1.0669835663e+02   -2.1125099659e+00
    1.0679754639e+02   -2.1190600395e+00
    1.0689842224e+02   -2.1257400513e+00
    1.0699841309e+02   -2.1323800087e+00
    1.0709803009e+02   -2.1390099525e+00
    1.0719848633e+02   -2.1457200050e+00
    1.0729750824e+02   -2.1523499489e+00
    1.0739810944e+02   -2.1591100693e+00
    1.0749771118e+02   -2.1658298969e+00
    1.0759860229e+02   -2.1726500988e+00
    1.0769795227e+02   -2.1793999672e+00
    1.0779885864e+02   -2.1862699986e+00
    1.0789824677e+02   -2.1930699348e+00
    1.0799849701e+02   -2.1999499798e+00
    1.0809751892e+02   -2.2067799568e+00
    1.0819824219e+02   -2.2137401104e+00
    1.0829821777e+02   -2.2206799984e+00
    1.0839765930e+02   -2.2276000977e+00
    1.0849858093e+02   -2.2346398830e+00
    1.0859793854e+02   -2.2416000366e+00
    1.0869889832e+02   -2.2486898899e+00
    1.0879839325e+02   -2.2557001114e+00
    1.0889752197e+02   -2.2627000809e+00
    1.0899835205e+02   -2.2698400021e+00
    1.0909757996e+02   -2.2769000530e+00
    1.0919790649e+02   -2.2840499878e+00
    1.0929759979e+02   -2.2911798954e+00
    1.0939836884e+02   -2.2983999252e+00
    1.0949816895e+02   -2.3055799007e+00
    1.0959761810e+02   -2.3127501011e+00
    1.0969857025e+02   -2.3200399876e+00
    1.0979839325e+02   -2.3272600174e+00
    1.0989724731e+02   -2.3344399929e+00
    1.0999772644e+02   -2.3417599201e+00
    1.1009816742e+02   -2.3491001129e+00
    1.1019860840e+02   -2.3564701080e+00
    1.1029739380e+02   -2.3637599945e+00
    1.1039779663e+02   -2.3712000847e+00
    1.1049887085e+02   -2.3787300587e+00
    1.1059739685e+02   -2.3861100674e+00
    1.1069754028e+02   -2.3936600685e+00
    1.1079766846e+02   -2.4012401104e+00
    1.1089855957e+02   -2.4089300632e+00
    1.1099758911e+02   -2.4165298939e+00
    1.1109839630e+02   -2.4242999554e+00
    1.1119872284e+02   -2.4320800304e+00
    1.1129740143e+02   -2.4397699833e+00
    1.1139820862e+02   -2.4476799965e+00
    1.1149748993e+02   -2.4554998875e+00
    1.1159802246e+02   -2.4634599686e+00
    1.1169774628e+02   -2.4713900089e+00
    1.1179882812e+02   -2.4794600010e+00
    1.1189839172e+02   -2.4874300957e+00
    1.1199748993e+02   -2.4953799248e+00
    1.1209845734e+02   -2.5034999847e+00
    1.1219869995e+02   -2.5115699768e+00
    1.1229734802e+02   -2.5195200443e+00
    1.1239859009e+02   -2.5276899338e+00
    1.1249825287e+02   -2.5357499123e+00
    1.1259860229e+02   -2.5438699722e+00
    1.1269872284e+02   -2.5519900322e+00
    1.1279875183e+02   -2.5601100922e+00
    1.1289827728e+02   -2.5682001114e+00
    1.1299752045e+02   -2.5762701035e+00
    1.1309738159e+02   -2.5843899250e+00
    1.1319831848e+02   -2.5926198959e+00
    1.1329762268e+02   -2.6007299423e+00
    1.1339849854e+02   -2.6089899540e+00
    1.1349758911e+02   -2.6171400547e+00
    1.1359819794e+02   -2.6254498959e+00
    1.1369877625e+02   -2.6338100433e+00
    1.1379768372e+02   -2.6420700550e+00
    1.1389835358e+02   -2.6505300999e+00
    1.1399746704e+02   -2.6589200497e+00
    1.1409803772e+02   -2.6674799919e+00
    1.1419854736e+02   -2.6761000156e+00
    1.1429749298e+02   -2.6846299171e+00
    1.1439795685e+02   -2.6933500767e+00
    1.1449871063e+02   -2.7021501064e+00
    1.1459726715e+02   -2.7108199596e+00
    1.1469754028e+02   -2.7196900845e+00
    1.1479766083e+02   -2.7286100388e+00
    1.1489848328e+02   -2.7376399040e+00
    1.1499772644e+02   -2.7465898991e+00
    1.1509857178e+02   -2.7557399273e+00
    1.1519824982e+02   -2.7648200989e+00
    1.1529720306e+02   -2.7738800049e+00
    1.1539865875e+02   -2.7832200527e+00
    1.1549820709e+02   -2.7924098969e+00
    1.1559786224e+02   -2.8016500473e+00
    1.1569760895e+02   -2.8109400272e+00
    1.1579740906e+02   -2.8202600479e+00
    1.1589843750e+02   -2.8297400475e+00
    1.1599783325e+02   -2.8390998840e+00
    1.1609723663e+02   -2.8485000134e+00
    1.1619870758e+02   -2.8581299782e+00
    1.1629853821e+02   -2.8676400185e+00
    1.1639833832e+02   -2.8771800995e+00
    1.1649813843e+02   -2.8867599964e+00
    1.1659792328e+02   -2.8963699341e+00
    1.1669824219e+02   -2.9060599804e+00
    1.1679752350e+02   -2.9156799316e+00
    1.1689846802e+02   -2.9254999161e+00
    1.1699816895e+02   -2.9352300167e+00
    1.1709786987e+02   -2.9449899197e+00
    1.1719792175e+02   -2.9548299313e+00
    1.1729865265e+02   -2.9647700787e+00
    1.1739762878e+02   -2.9745800495e+00
    1.1749801636e+02   -2.9845700264e+00
    1.1759738922e+02   -2.9944999218e+00
    1.1769831085e+02   -3.0046300888e+00
    1.1779768372e+02   -3.0146598816e+00
    1.1789864349e+02   -3.0248799324e+00
    1.1799746704e+02   -3.0349400043e+00
    1.1809818268e+02   -3.0452399254e+00
    1.1819730377e+02   -3.0554199219e+00
    1.1829847717e+02   -3.0658600330e+00
    1.1839798737e+02   -3.0761599541e+00
    1.1849741364e+02   -3.0864999294e+00
    1.1859837341e+02   -3.0970399380e+00
    1.1869783783e+02   -3.1074500084e+00
    1.1879739380e+02   -3.1179199219e+00
    1.1889729309e+02   -3.1284499168e+00
    1.1899820709e+02   -3.1391398907e+00
    1.1909752655e+02   -3.1496899128e+00
    1.1919847870e+02   -3.1604599953e+00
    1.1929866028e+02   -3.1711900234e+00
    1.1939778137e+02   -3.1818499565e+00
    1.1949736786e+02   -3.1926000118e+00
    1.1959845734e+02   -3.2035400867e+00
    1.1969795227e+02   -3.2143399715e+00
    1.1979775238e+02   -3.2252199650e+00
    1.1989830780e+02   -3.2362198830e+00
    1.1999716187e+02   -3.2470700741e+00
    1.2009763336e+02   -3.2581601143e+00
    1.2019808960e+02   -3.2692899704e+00
    1.2029853821e+02   -3.2804899216e+00
    1.2039749146e+02   -3.2915699482e+00
    1.2049719238e+02   -3.3028099537e+00
    1.2059735870e+02   -3.3141698837e+00
    1.2069745636e+02   -3.3255999088e+00
    1.2079754639e+02   -3.3371000290e+00
    1.2089856720e+02   -3.3487699032e+00
    1.2099752045e+02   -3.3602900505e+00
    1.2109806824e+02   -3.3720600605e+00
    1.2119793701e+02   -3.3838200569e+00
    1.2129810333e+02   -3.3956899643e+00
    1.2139730835e+02   -3.4075200558e+00
    1.2149810791e+02   -3.4196000099e+00
    1.2159729004e+02   -3.4315500259e+00
    1.2169834900e+02   -3.4437899590e+00
    1.2179788208e+02   -3.4558899403e+00
    1.2189745331e+02   -3.4680500031e+00
    1.2199735260e+02   -3.4802799225e+00
    1.2209835052e+02   -3.4926800728e+00
    1.2219854736e+02   -3.5050098896e+00
    1.2229857635e+02   -3.5173499584e+00
    1.2239768219e+02   -3.5295999050e+00
    1.2249742126e+02   -3.5419600010e+00
    1.2259796906e+02   -3.5544500351e+00
    1.2269819641e+02   -3.5669200420e+00
    1.2279744720e+02   -3.5792999268e+00
    1.2289707184e+02   -3.5917398930e+00
    1.2299794006e+02   -3.6043601036e+00
    1.2309786224e+02   -3.6168799400e+00
    1.2319766998e+02   -3.6294100285e+00
    1.2329704285e+02   -3.6419200897e+00
    1.2339798737e+02   -3.6546700001e+00
    1.2349710846e+02   -3.6672499180e+00
    1.2359776306e+02   -3.6800799370e+00
    1.2369837952e+02   -3.6929800510e+00
    1.2379730225e+02   -3.7057299614e+00
    1.2389836121e+02   -3.7188498974e+00
    1.2399745178e+02   -3.7317900658e+00
    1.2409861755e+02   -3.7450900078e+00
    1.2419757080e+02   -3.7581698895e+00
    1.2429799652e+02   -3.7715499401e+00
    1.2439842224e+02   -3.7850000858e+00
    1.2449741364e+02   -3.7983601093e+00
    1.2459757996e+02   -3.8119599819e+00
    1.2469780731e+02   -3.8256700039e+00
    1.2479731750e+02   -3.8393700123e+00
    1.2489810944e+02   -3.8533399105e+00
    1.2499735260e+02   -3.8671801090e+00
    1.2509738159e+02   -3.8812100887e+00
    1.2519792175e+02   -3.8953900337e+00
    1.2529855347e+02   -3.9096601009e+00
    1.2539733124e+02   -3.9237399101e+00
    1.2549848175e+02   -3.9382200241e+00
    1.2559816742e+02   -3.9525499344e+00
    1.2569793701e+02   -3.9669499397e+00
    1.2579778290e+02   -3.9814200401e+00
    1.2589769745e+02   -3.9959700108e+00
    1.2599716949e+02   -4.0105099678e+00
    1.2609832001e+02   -4.0253601074e+00
    1.2619714355e+02   -4.0399198532e+00
    1.2629862213e+02   -4.0549402237e+00
    1.2639849854e+02   -4.0697698593e+00
    1.2649836731e+02   -4.0846600533e+00
    1.2659821320e+02   -4.0995998383e+00
    1.2669799805e+02   -4.1145801544e+00
    1.2679756165e+02   -4.1295900345e+00
    1.2689852905e+02   -4.1448597908e+00
    1.2699774933e+02   -4.1599202156e+00
    1.2709764862e+02   -4.1751499176e+00
    1.2719848633e+02   -4.1905798912e+00
    1.2729759216e+02   -4.2058100700e+00
    1.2739821625e+02   -4.2213401794e+00
    1.2749790192e+02   -4.2367901802e+00
    1.2759723663e+02   -4.2522501945e+00
    1.2769812012e+02   -4.2680301666e+00
    1.2779743195e+02   -4.2836298943e+00
    1.2789833832e+02   -4.2995600700e+00
    1.2799722290e+02   -4.3152499199e+00
    1.2809788513e+02   -4.3312997818e+00
    1.2819859314e+02   -4.3474302292e+00
    1.2829808044e+02   -4.3634400368e+00
    1.2839758301e+02   -4.3795199394e+00
    1.2849856567e+02   -4.3958997726e+00
    1.2859796143e+02   -4.4120798111e+00
    1.2869741821e+02   -4.4283399582e+00
    1.2879853821e+02   -4.4449300766e+00
    1.2889797974e+02   -4.4612998962e+00
    1.2899728394e+02   -4.4777097702e+00
    1.2909791565e+02   -4.4944100380e+00
    1.2919775391e+02   -4.5110502243e+00
    1.2929753113e+02   -4.5277400017e+00
    1.2939721680e+02   -4.5444698334e+00
    1.2949838257e+02   -4.5615301132e+00
    1.2959838867e+02   -4.5784401894e+00
    1.2969790649e+02   -4.5953397751e+00
    1.2979780579e+02   -4.6123600006e+00
    1.2989839172e+02   -4.6295599937e+00
    1.2999765015e+02   -4.6465997696e+00
    1.3009811401e+02   -4.6639299393e+00
    1.3019854736e+02   -4.6813502312e+00
    1.3029731750e+02   -4.6985602379e+00
    1.3039796448e+02   -4.7161998749e+00
    1.3049731445e+02   -4.7337098122e+00
    1.3059744263e+02   -4.7514600754e+00
    1.3069747925e+02   -4.7693099976e+00
    1.3079747009e+02   -4.7872600555e+00
    1.3089741516e+02   -4.8053097725e+00
    1.3099781799e+02   -4.8235502243e+00
    1.3109826660e+02   -4.8419198990e+00
    1.3119873047e+02   -4.8603901863e+00
    1.3129742432e+02   -4.8786401749e+00
    1.3139808655e+02   -4.8973698616e+00
    1.3149879456e+02   -4.9162101746e+00
    1.3159805298e+02   -4.9348697662e+00
    1.3169767761e+02   -4.9536900520e+00
    1.3179754639e+02   -4.9726400375e+00
    1.3189866638e+02   -4.9918999672e+00
    1.3199757385e+02   -5.0107898712e+00
    1.3209857178e+02   -5.0301499367e+00
    1.3219819641e+02   -5.0492901802e+00
    1.3229826355e+02   -5.0685701370e+00
    1.3239842224e+02   -5.0879101753e+00
    1.3249851990e+02   -5.1072897911e+00
    1.3259863281e+02   -5.1267199516e+00
    1.3269755554e+02   -5.1459598541e+00
    1.3279733276e+02   -5.1654100418e+00
    1.3289866638e+02   -5.1852002144e+00
    1.3299803162e+02   -5.2046399117e+00
    1.3309800720e+02   -5.2242298126e+00
    1.3319775391e+02   -5.2438201904e+00
    1.3329884338e+02   -5.2637200356e+00
    1.3339854431e+02   -5.2834100723e+00
    1.3349763489e+02   -5.3030600548e+00
    1.3359831238e+02   -5.3231101036e+00
    1.3369894409e+02   -5.3432598114e+00
    1.3379786682e+02   -5.3631601334e+00
    1.3389753723e+02   -5.3833298683e+00
    1.3399858093e+02   -5.4038901329e+00
    1.3409869385e+02   -5.4243898392e+00
    1.3419778442e+02   -5.4447898865e+00
    1.3429815674e+02   -5.4655799866e+00
    1.3439851379e+02   -5.4864897728e+00
    1.3449812317e+02   -5.5073699951e+00
    1.3459820557e+02   -5.5284900665e+00
    1.3469836426e+02   -5.5497598648e+00
    1.3479844666e+02   -5.5711398125e+00
    1.3489758301e+02   -5.5924501419e+00
    1.3499827576e+02   -5.6142301559e+00
    1.3509764099e+02   -5.6358299255e+00
    1.3519810486e+02   -5.6577901840e+00
    1.3529867554e+02   -5.6798901558e+00
    1.3539773560e+02   -5.7017498016e+00
    1.3549792480e+02   -5.7239599228e+00
    1.3559759521e+02   -5.7461400032e+00
    1.3569888306e+02   -5.7687802315e+00
    1.3579867554e+02   -5.7911701202e+00
    1.3589772034e+02   -5.8134899139e+00
    1.3599885559e+02   -5.8363599777e+00
    1.3609834290e+02   -5.8589401245e+00
    1.3619784546e+02   -5.8816099167e+00
    1.3629899597e+02   -5.9047398567e+00
    1.3639845276e+02   -5.9275498390e+00
    1.3649876404e+02   -5.9506402016e+00
    1.3659858704e+02   -5.9736900330e+00
    1.3669839478e+02   -5.9967999458e+00
    1.3679815674e+02   -6.0199999809e+00
    1.3689805603e+02   -6.0433001518e+00
    1.3699896240e+02   -6.0669198036e+00
    1.3709815979e+02   -6.0902299881e+00
    1.3719894409e+02   -6.1140098572e+00
    1.3729797363e+02   -6.1374602318e+00
    1.3739852905e+02   -6.1613597870e+00
    1.3749896240e+02   -6.1853299141e+00
    1.3759906006e+02   -6.2093200684e+00
    1.3769827271e+02   -6.2332000732e+00
    1.3779899597e+02   -6.2575597763e+00
    1.3789823914e+02   -6.2816500664e+00
    1.3799818420e+02   -6.3060297966e+00
    1.3809872437e+02   -6.3306698799e+00
    1.3819766235e+02   -6.3550100327e+00
    1.3829826355e+02   -6.3798799515e+00
    1.3839894104e+02   -6.4048500061e+00
    1.3849832153e+02   -6.4295997620e+00
    1.3859922791e+02   -6.4548101425e+00
    1.3869865417e+02   -6.4797401428e+00
    1.3879818726e+02   -6.5047698021e+00
    1.3889869690e+02   -6.5301399231e+00
    1.3899798584e+02   -6.5552802086e+00
    1.3909805298e+02   -6.5807099342e+00
    1.3919790649e+02   -6.6061701775e+00
    1.3929922485e+02   -6.6321101189e+00
    1.3939889526e+02   -6.6577000618e+00
    1.3949848938e+02   -6.6833600998e+00
    1.3959921265e+02   -6.7094001770e+00
    1.3969900513e+02   -6.7352800369e+00
    1.3979888916e+02   -6.7612700462e+00
    1.3989784241e+02   -6.7871098518e+00
    1.3999880981e+02   -6.8135700226e+00
    1.4009895325e+02   -6.8399300575e+00
    1.4019770813e+02   -6.8660302162e+00
    1.4029931641e+02   -6.8930101395e+00
    1.4039883423e+02   -6.9195699692e+00
    1.4049908447e+02   -6.9464597702e+00
    1.4059910583e+02   -6.9734401703e+00
    1.4069906616e+02   -7.0005497932e+00
    1.4079896545e+02   -7.0277900696e+00
    1.4089801025e+02   -7.0549502373e+00
    1.4099829102e+02   -7.0826001167e+00
    1.4109863281e+02   -7.1104202271e+00
    1.4119902039e+02   -7.1384000778e+00
    1.4129789734e+02   -7.1661100388e+00
    1.4139840698e+02   -7.1944098473e+00
    1.4149897766e+02   -7.2228798866e+00
    1.4159809875e+02   -7.2510700226e+00
    1.4169807434e+02   -7.2796301842e+00
    1.4179895020e+02   -7.3085598946e+00
    1.4189811707e+02   -7.3371000290e+00
    1.4199890137e+02   -7.3661899567e+00
    1.4209819031e+02   -7.3949298859e+00
    1.4219903564e+02   -7.4242000580e+00
    1.4229911804e+02   -7.4533200264e+00
    1.4239929199e+02   -7.4825301170e+00
    1.4249798584e+02   -7.5113801956e+00
    1.4259878540e+02   -7.5409097672e+00
    1.4269871521e+02   -7.5702400208e+00
    1.4279849243e+02   -7.5995898247e+00
    1.4289849854e+02   -7.6290397644e+00
    1.4299856567e+02   -7.6585597992e+00
    1.4309939575e+02   -7.6883502007e+00
    1.4319888306e+02   -7.7177901268e+00
    1.4329837036e+02   -7.7472901344e+00
    1.4339881897e+02   -7.7771601677e+00
    1.4349829102e+02   -7.8068199158e+00
    1.4359901428e+02   -7.8369798660e+00
    1.4369804382e+02   -7.8667402267e+00
    1.4379948425e+02   -7.8973498344e+00
    1.4389863586e+02   -7.9274201393e+00
    1.4399841309e+02   -7.9578099251e+00
    1.4409846497e+02   -7.9884400368e+00
    1.4419880676e+02   -8.0193004608e+00
    1.4429913330e+02   -8.0503196716e+00
    1.4439941406e+02   -8.0814800262e+00
    1.4449818420e+02   -8.1123399734e+00
    1.4459843445e+02   -8.1438198090e+00
    1.4469845581e+02   -8.1754102707e+00
    1.4479898071e+02   -8.2073202133e+00
    1.4489952087e+02   -8.2394104004e+00
    1.4499850464e+02   -8.2711601257e+00
    1.4509913635e+02   -8.3036003113e+00
    1.4519943237e+02   -8.3360795975e+00
    1.4529823303e+02   -8.3682098389e+00
    1.4539884949e+02   -8.4010696411e+00
    1.4549905396e+02   -8.4339199066e+00
    1.4559866333e+02   -8.4666900635e+00
    1.4569827271e+02   -8.4995803833e+00
    1.4579949951e+02   -8.5331201553e+00
    1.4589967346e+02   -8.5664300919e+00
    1.4599902344e+02   -8.5995702744e+00
    1.4609843445e+02   -8.6328401566e+00
    1.4619949341e+02   -8.6667604446e+00
    1.4629890442e+02   -8.7002296448e+00
    1.4639828491e+02   -8.7337799072e+00
    1.4649859619e+02   -8.7677402496e+00
    1.4659832764e+02   -8.8016004562e+00
    1.4669960022e+02   -8.8360700607e+00
    1.4679930115e+02   -8.8701095581e+00
    1.4689895630e+02   -8.9042396545e+00
    1.4699862671e+02   -8.9384899139e+00
    1.4709931946e+02   -8.9731998444e+00
    1.4719830322e+02   -9.0074300766e+00
    1.4729884338e+02   -9.0423202515e+00
    1.4739921570e+02   -9.0772695541e+00
    1.4749946594e+02   -9.1122999191e+00
    1.4759971619e+02   -9.1474599838e+00
    1.4769874573e+02   -9.1823196411e+00
    1.4779931641e+02   -9.2178497314e+00
    1.4789837646e+02   -9.2530002594e+00
    1.4799914551e+02   -9.2888898849e+00
    1.4809881592e+02   -9.3245296478e+00
    1.4819937134e+02   -9.3606100082e+00
    1.4829978943e+02   -9.3967895508e+00
    1.4839930725e+02   -9.4327602386e+00
    1.4849859619e+02   -9.4687595367e+00
    1.4859945679e+02   -9.5054302216e+00
    1.4869882202e+02   -9.5416603088e+00
    1.4879832458e+02   -9.5780401230e+00
    1.4889836121e+02   -9.6147098541e+00
    1.4899934387e+02   -9.6518201828e+00
    1.4909965515e+02   -9.6887998581e+00
    1.4919953918e+02   -9.7257204056e+00
    1.4929936218e+02   -9.7627201080e+00
    1.4939907837e+02   -9.7997798920e+00
    1.4949867249e+02   -9.8368902206e+00
    1.4959951782e+02   -9.8745498657e+00
    1.4969857788e+02   -9.9116497040e+00
    1.4979928589e+02   -9.9494600296e+00
    1.4989831543e+02   -9.9867401123e+00
    1.4999844360e+02   -1.0024499893e+01
    1.5009982300e+02   -1.0062899590e+01
    1.5019857788e+02   -1.0100500107e+01
    1.5029881287e+02   -1.0138699532e+01
    1.5039935303e+02   -1.0177300453e+01
    1.5049972534e+02   -1.0215900421e+01
    1.5059971619e+02   -1.0254500389e+01
    1.5069960022e+02   -1.0293299675e+01
    1.5079942322e+02   -1.0332300186e+01
    1.5089970398e+02   -1.0371600151e+01
    1.5099987793e+02   -1.0411000252e+01
    1.5109855652e+02   -1.0450099945e+01
    1.5119882202e+02   -1.0489899635e+01
    1.5129908752e+02   -1.0529999733e+01
    1.5139938354e+02   -1.0570199966e+01
    1.5149975586e+02   -1.0610699654e+01
    1.5159864807e+02   -1.0650699615e+01
    1.5169856262e+02   -1.0691300392e+01
    1.5179890442e+02   -1.0732199669e+01
    1.5189938354e+02   -1.0773300171e+01
    1.5200001526e+02   -1.0814599991e+01
    1.5209915161e+02   -1.0855400085e+01
    1.5219969177e+02   -1.0896800041e+01
    1.5229971313e+02   -1.0938099861e+01
    1.5239985657e+02   -1.0979599953e+01
    1.5249853516e+02   -1.1020500183e+01
    1.5259881592e+02   -1.1062199593e+01
    1.5269865417e+02   -1.1103699684e+01
    1.5280007935e+02   -1.1145999908e+01
    1.5289971924e+02   -1.1187600136e+01
    1.5299972534e+02   -1.1229299545e+01
    1.5309895325e+02   -1.1270799637e+01
    1.5320008850e+02   -1.1313199997e+01
    1.5329959106e+02   -1.1354900360e+01
    1.5339892578e+02   -1.1396599770e+01
    1.5349899292e+02   -1.1438799858e+01
    1.5359980774e+02   -1.1481300354e+01
    1.5369886780e+02   -1.1523300171e+01
    1.5379875183e+02   -1.1565699577e+01
    1.5389941406e+02   -1.1608599663e+01
    1.5399943542e+02   -1.1651399612e+01
    1.5409939575e+02   -1.1694299698e+01
    1.5419932556e+02   -1.1737400055e+01
    1.5429899597e+02   -1.1780500412e+01
    1.5439924622e+02   -1.1824099541e+01
    1.5449951172e+02   -1.1867899895e+01
    1.5459892273e+02   -1.1911399841e+01
    1.5469885254e+02   -1.1955400467e+01
    1.5479905701e+02   -1.1999799728e+01
    1.5489941406e+02   -1.2044300079e+01
    1.5499975586e+02   -1.2089099884e+01
    1.5510020447e+02   -1.2134099960e+01
    1.5519865417e+02   -1.2178299904e+01
    1.5529893494e+02   -1.2223600388e+01
    1.5539941406e+02   -1.2269000053e+01
    1.5549934387e+02   -1.2314399719e+01
    1.5559884644e+02   -1.2359700203e+01
    1.5569993591e+02   -1.2405799866e+01
    1.5579946899e+02   -1.2451399803e+01
    1.5589881897e+02   -1.2497099876e+01
    1.5599964905e+02   -1.2543499947e+01
    1.5609889221e+02   -1.2589300156e+01
    1.5619984436e+02   -1.2635999680e+01
    1.5629914856e+02   -1.2682100296e+01
    1.5640005493e+02   -1.2729000092e+01
    1.5649925232e+02   -1.2775199890e+01
    1.5659895325e+02   -1.2821700096e+01
    1.5670010376e+02   -1.2869000435e+01
    1.5679968262e+02   -1.2915699959e+01
    1.5689921570e+02   -1.2962499619e+01
    1.5700018311e+02   -1.3010199547e+01
    1.5710003662e+02   -1.3057399750e+01
    1.5719883728e+02   -1.3104200363e+01
    1.5729916382e+02   -1.3151900291e+01
    1.5739930725e+02   -1.3199700356e+01
    1.5749929810e+02   -1.3247500420e+01
    1.5760023499e+02   -1.3295999527e+01
    1.5769902039e+02   -1.3343500137e+01
    1.5779937744e+02   -1.3392000198e+01
    1.5789981079e+02   -1.3440699577e+01
    1.5800036621e+02   -1.3489600182e+01
    1.5809999084e+02   -1.3538299561e+01
    1.5820010376e+02   -1.3587300301e+01
    1.5830035400e+02   -1.3636599541e+01
    1.5839970398e+02   -1.3685500145e+01
    1.5850039673e+02   -1.3735199928e+01
    1.5859959412e+02   -1.3784399986e+01
    1.5869894409e+02   -1.3833700180e+01
    1.5880001831e+02   -1.3883899689e+01
    1.5889973450e+02   -1.3933600426e+01
    1.5900045776e+02   -1.3983900070e+01
    1.5910038757e+02   -1.4033900261e+01
    1.5920033264e+02   -1.4083999634e+01
    1.5930026245e+02   -1.4134200096e+01
    1.5940013123e+02   -1.4184399605e+01
    1.5949986267e+02   -1.4234700203e+01
    1.5959992981e+02   -1.4285200119e+01
    1.5970042419e+02   -1.4336000443e+01
    1.5979937744e+02   -1.4386099815e+01
    1.5989991760e+02   -1.4437100410e+01
    1.5999955750e+02   -1.4487799644e+01
    1.6009945679e+02   -1.4538700104e+01
    1.6019999695e+02   -1.4590000153e+01
    1.6029956055e+02   -1.4640999794e+01
    1.6040017700e+02   -1.4692700386e+01
    1.6049943542e+02   -1.4743800163e+01
    1.6059945679e+02   -1.4795499802e+01
    1.6069937134e+02   -1.4847399712e+01
    1.6079919434e+02   -1.4899399757e+01
    1.6090058899e+02   -1.4952400208e+01
    1.6100035095e+02   -1.5004699707e+01
    1.6110008240e+02   -1.5057299614e+01
    1.6120022583e+02   -1.5110300064e+01
    1.6130033875e+02   -1.5163399696e+01
    1.6140045166e+02   -1.5216799736e+01
    1.6150056458e+02   -1.5270400047e+01
    1.6159919739e+02   -1.5323399544e+01
    1.6170042419e+02   -1.5378000259e+01
    1.6180044556e+02   -1.5432100296e+01
    1.6189970398e+02   -1.5485899925e+01
    1.6200039673e+02   -1.5540599823e+01
    1.6210055542e+02   -1.5595199585e+01
    1.6219932556e+02   -1.5649100304e+01
    1.6229995728e+02   -1.5704199791e+01
    1.6239994812e+02   -1.5758999825e+01
    1.6250006104e+02   -1.5814000130e+01
    1.6260025024e+02   -1.5869000435e+01
    1.6269911194e+02   -1.5923500061e+01
    1.6280029297e+02   -1.5979299545e+01
    1.6289912415e+02   -1.6033800125e+01
    1.6299943542e+02   -1.6089199066e+01
    1.6309927368e+02   -1.6144300461e+01
    1.6319975281e+02   -1.6199899673e+01
    1.6329919434e+02   -1.6254899979e+01
    1.6339987183e+02   -1.6310699463e+01
    1.6349919128e+02   -1.6365800858e+01
    1.6359997559e+02   -1.6421899796e+01
    1.6370071411e+02   -1.6478000641e+01
    1.6379924011e+02   -1.6533100128e+01
    1.6389988708e+02   -1.6589399338e+01
    1.6400065613e+02   -1.6645999908e+01
    1.6410057068e+02   -1.6702299118e+01
    1.6420045471e+02   -1.6758699417e+01
    1.6430012512e+02   -1.6815200806e+01
    1.6440036011e+02   -1.6872100830e+01
    1.6450061035e+02   -1.6929300308e+01
    1.6459930420e+02   -1.6985799789e+01
    1.6469955444e+02   -1.7043399811e+01
    1.6479981995e+02   -1.7101100922e+01
    1.6490008545e+02   -1.7159099579e+01
    1.6500030518e+02   -1.7217199326e+01
    1.6510040283e+02   -1.7275499344e+01
    1.6520027161e+02   -1.7333700180e+01
    1.6529980469e+02   -1.7391899109e+01
    1.6540028381e+02   -1.7450899124e+01
    1.6550033569e+02   -1.7509700775e+01
    1.6559982300e+02   -1.7568300247e+01
    1.6569937134e+02   -1.7627099991e+01
    1.6580049133e+02   -1.7686899185e+01
    1.6589985657e+02   -1.7745800018e+01
    1.6600065613e+02   -1.7805700302e+01
    1.6609982300e+02   -1.7864700317e+01
    1.6620069885e+02   -1.7924800873e+01
    1.6629995728e+02   -1.7984100342e+01
    1.6640005493e+02   -1.8043899536e+01
    1.6649963379e+02   -1.8103500366e+01
    1.6660075378e+02   -1.8164100647e+01
    1.6670031738e+02   -1.8223899841e+01
    1.6679986572e+02   -1.8283800125e+01
    1.6690097046e+02   -1.8344699860e+01
    1.6699986267e+02   -1.8404499054e+01
    1.6710029602e+02   -1.8465299606e+01
    1.6720060730e+02   -1.8526199341e+01
    1.6730075073e+02   -1.8587099075e+01
    1.6740069580e+02   -1.8648099899e+01
    1.6749989319e+02   -1.8708799362e+01
    1.6760052490e+02   -1.8770500183e+01
    1.6769973755e+02   -1.8831499100e+01
    1.6779985046e+02   -1.8893199921e+01
    1.6790008545e+02   -1.8955299377e+01
    1.6800047302e+02   -1.9017599106e+01
    1.6810089111e+02   -1.9080099106e+01
    1.6819972229e+02   -1.9141799927e+01
    1.6829995728e+02   -1.9204599380e+01
    1.6840101624e+02   -1.9267999649e+01
    1.6849998474e+02   -1.9330299377e+01
    1.6859976196e+02   -1.9393199921e+01
    1.6870039368e+02   -1.9456699371e+01
    1.6879978943e+02   -1.9519599915e+01
    1.6890104675e+02   -1.9583799362e+01
    1.6900088501e+02   -1.9647199631e+01
    1.6909999084e+02   -1.9710199356e+01
    1.6919999695e+02   -1.9773799896e+01
    1.6930000305e+02   -1.9837499619e+01
    1.6939999390e+02   -1.9901300430e+01
    1.6949992371e+02   -1.9965099335e+01
    1.6960099792e+02   -2.0029699326e+01
    1.6970071411e+02   -2.0093399048e+01
    1.6979986572e+02   -2.0156799316e+01
    1.6990084839e+02   -2.0221500397e+01
    1.7000071716e+02   -2.0285499573e+01
    1.7010044861e+02   -2.0349500656e+01
    1.7020010376e+02   -2.0413499832e+01
    1.7030073547e+02   -2.0478300095e+01
    1.7039956665e+02   -2.0541999817e+01
    1.7050013733e+02   -2.0607000351e+01
    1.7060087585e+02   -2.0672199249e+01
    1.7070094299e+02   -2.0737199783e+01
    1.7080087280e+02   -2.0802200317e+01
    1.7089993286e+02   -2.0866899490e+01
    1.7100007629e+02   -2.0932399750e+01
    1.7110064697e+02   -2.0998399734e+01
    1.7120075989e+02   -2.1064399719e+01
    1.7130079651e+02   -2.1130399704e+01
    1.7140077209e+02   -2.1196699142e+01
    1.7150073242e+02   -2.1263200760e+01
    1.7160072327e+02   -2.1329900742e+01
    1.7170072937e+02   -2.1396799088e+01
    1.7179974365e+02   -2.1463199615e+01
    1.7190087891e+02   -2.1531200409e+01
    1.7200126648e+02   -2.1598800659e+01
    1.7210127258e+02   -2.1666299820e+01
    1.7220051575e+02   -2.1733400345e+01
    1.7230043030e+02   -2.1801099777e+01
    1.7240051270e+02   -2.1868999481e+01
    1.7250039673e+02   -2.1936899185e+01
    1.7260040283e+02   -2.2004999161e+01
    1.7270040894e+02   -2.2073099136e+01
    1.7280029297e+02   -2.2141199112e+01
    1.7290115356e+02   -2.2210100174e+01
    1.7300033569e+02   -2.2277799606e+01
    1.7310124207e+02   -2.2346700668e+01
    1.7320054626e+02   -2.2414600372e+01
    1.7329991150e+02   -2.2482500076e+01
    1.7340031433e+02   -2.2551200867e+01
    1.7350056458e+02   -2.2619899750e+01
    1.7360006714e+02   -2.2688199997e+01
    1.7370083618e+02   -2.2757400513e+01
    1.7380108643e+02   -2.2826499939e+01
    1.7390025330e+02   -2.2894899368e+01
    1.7399981689e+02   -2.2963699341e+01
    1.7410046387e+02   -2.3033399582e+01
    1.7420014954e+02   -2.3102600098e+01
    1.7430003357e+02   -2.3172100067e+01
    1.7440055847e+02   -2.3242200851e+01
    1.7450079346e+02   -2.3312299728e+01
    1.7460101318e+02   -2.3382600784e+01
    1.7470118713e+02   -2.3453100204e+01
    1.7480143738e+02   -2.3523799896e+01
    1.7490014648e+02   -2.3593500137e+01
    1.7500128174e+02   -2.3665199280e+01
    1.7510144043e+02   -2.3736400604e+01
    1.7520146179e+02   -2.3807600021e+01
    1.7530003357e+02   -2.3877899170e+01
    1.7540045166e+02   -2.3949600220e+01
    1.7550082397e+02   -2.4021400452e+01
    1.7560038757e+02   -2.4092800140e+01
    1.7570002747e+02   -2.4164300919e+01
    1.7580131531e+02   -2.4237100601e+01
    1.7590124512e+02   -2.4309000015e+01
    1.7600093079e+02   -2.4380800247e+01
    1.7610028076e+02   -2.4452499390e+01
    1.7620121765e+02   -2.4525299072e+01
    1.7630105591e+02   -2.4597400665e+01
    1.7640083313e+02   -2.4669500351e+01
    1.7650123596e+02   -2.4742000580e+01
    1.7660098267e+02   -2.4814199448e+01
    1.7670072937e+02   -2.4886400223e+01
    1.7680047607e+02   -2.4958700180e+01
    1.7690136719e+02   -2.5031799316e+01
    1.7700044250e+02   -2.5103799820e+01
    1.7710104370e+02   -2.5177000046e+01
    1.7720143127e+02   -2.5250200272e+01
    1.7729997253e+02   -2.5322099686e+01
    1.7740155029e+02   -2.5396400452e+01
    1.7750085449e+02   -2.5469200134e+01
    1.7760137939e+02   -2.5543100357e+01
    1.7770123291e+02   -2.5616600037e+01
    1.7780120850e+02   -2.5690399170e+01
    1.7790127563e+02   -2.5764499664e+01
    1.7800146484e+02   -2.5838800430e+01
    1.7810014343e+02   -2.5912300110e+01
    1.7820027161e+02   -2.5986999512e+01
    1.7830030823e+02   -2.6061800003e+01
    1.7840060425e+02   -2.6136999130e+01
    1.7850158691e+02   -2.6212900162e+01
    1.7860157776e+02   -2.6288200378e+01
    1.7870152283e+02   -2.6363599777e+01
    1.7880137634e+02   -2.6438999176e+01
    1.7890087891e+02   -2.6514299393e+01
    1.7900053406e+02   -2.6589799881e+01
    1.7910031128e+02   -2.6665500641e+01
    1.7920170593e+02   -2.6742500305e+01
    1.7930166626e+02   -2.6818399429e+01
    1.7940020752e+02   -2.6893299103e+01
    1.7950073242e+02   -2.6969800949e+01
    1.7960025024e+02   -2.7045499802e+01
    1.7970062256e+02   -2.7121900558e+01
    1.7980009460e+02   -2.7197599411e+01
    1.7990124512e+02   -2.7274599075e+01
    1.8000090027e+02   -2.7350500107e+01
    1.8010049438e+02   -2.7426399231e+01
    1.8020022583e+02   -2.7502399445e+01
    1.8030046082e+02   -2.7578800201e+01
    1.8040121460e+02   -2.7655700684e+01
    1.8050132751e+02   -2.7732200623e+01
    1.8060163879e+02   -2.7809000015e+01
    1.8070072937e+02   -2.7884899139e+01
    1.8080090332e+02   -2.7961799622e+01
    1.8090046692e+02   -2.8038299561e+01
    1.8100085449e+02   -2.8115699768e+01
    1.8110119629e+02   -2.8193099976e+01
    1.8120146179e+02   -2.8270700455e+01
    1.8130160522e+02   -2.8348400116e+01
    1.8140095520e+02   -2.8425600052e+01
    1.8150068665e+02   -2.8503400803e+01
    1.8160107422e+02   -2.8581800461e+01
    1.8170111084e+02   -2.8660100937e+01
    1.8180114746e+02   -2.8738599777e+01
    1.8190126038e+02   -2.8817300797e+01
    1.8200148010e+02   -2.8896200180e+01
    1.8210174561e+02   -2.8975299835e+01
    1.8220167542e+02   -2.9054199219e+01
    1.8230134583e+02   -2.9132999420e+01
    1.8240049744e+02   -2.9211500168e+01
    1.8250172424e+02   -2.9291799545e+01
    1.8260151672e+02   -2.9371000290e+01
    1.8270152283e+02   -2.9450399399e+01
    1.8280136108e+02   -2.9529800415e+01
    1.8290182495e+02   -2.9609699249e+01
    1.8300149536e+02   -2.9688899994e+01
    1.8310113525e+02   -2.9768199921e+01
    1.8320121765e+02   -2.9847799301e+01
    1.8330157471e+02   -2.9927700043e+01
    1.8340196228e+02   -3.0007600784e+01
    1.8350128174e+02   -3.0086700439e+01
    1.8360116577e+02   -3.0166299820e+01
    1.8370196533e+02   -3.0246700287e+01
    1.8380137634e+02   -3.0326099396e+01
    1.8390177917e+02   -3.0406400681e+01
    1.8400068665e+02   -3.0485599518e+01
    1.8410122681e+02   -3.0566299438e+01
    1.8420080566e+02   -3.0646299362e+01
    1.8430105591e+02   -3.0726999283e+01
    1.8440133667e+02   -3.0807899475e+01
    1.8450158691e+02   -3.0888999939e+01
    1.8460154724e+02   -3.0969900131e+01
    1.8470158386e+02   -3.1051200867e+01
    1.8480166626e+02   -3.1132600784e+01
    1.8490174866e+02   -3.1214199066e+01
    1.8500056458e+02   -3.1294900894e+01
    1.8510107422e+02   -3.1377199173e+01
    1.8520097351e+02   -3.1459100723e+01
    1.8530169678e+02   -3.1541799545e+01
    1.8540072632e+02   -3.1623199463e+01
    1.8550105286e+02   -3.1705900192e+01
    1.8560186768e+02   -3.1788999557e+01
    1.8570100403e+02   -3.1870800018e+01
    1.8580166626e+02   -3.1953899384e+01
    1.8590101624e+02   -3.2035999298e+01
    1.8600061035e+02   -3.2118400574e+01
    1.8610078430e+02   -3.2201301575e+01
    1.8620199585e+02   -3.2284999847e+01
    1.8630151367e+02   -3.2367401123e+01
    1.8640130615e+02   -3.2449901581e+01
    1.8650088501e+02   -3.2532299042e+01
    1.8660171509e+02   -3.2615699768e+01
    1.8670063782e+02   -3.2697498322e+01
    1.8680200195e+02   -3.2781299591e+01
    1.8690107727e+02   -3.2863201141e+01
    1.8700065613e+02   -3.2945598602e+01
    1.8710116577e+02   -3.3028900146e+01
    1.8720164490e+02   -3.3112098694e+01
    1.8730192566e+02   -3.3195301056e+01
    1.8740109253e+02   -3.3277599335e+01
    1.8750213623e+02   -3.3361598969e+01
    1.8760104370e+02   -3.3443901062e+01
    1.8770075989e+02   -3.3527000427e+01
    1.8780149841e+02   -3.3611099243e+01
    1.8790112305e+02   -3.3694499969e+01
    1.8800134277e+02   -3.3778499603e+01
    1.8810165405e+02   -3.3862800598e+01
    1.8820181274e+02   -3.3947101593e+01
    1.8830122375e+02   -3.4030899048e+01
    1.8840159607e+02   -3.4115798950e+01
    1.8850177002e+02   -3.4200599670e+01
    1.8860136414e+02   -3.4285099030e+01
    1.8870098877e+02   -3.4369701385e+01
    1.8880158997e+02   -3.4455299377e+01
    1.8890190125e+02   -3.4540798187e+01
    1.8900201416e+02   -3.4626300812e+01
    1.8910128784e+02   -3.4710998535e+01
    1.8920199585e+02   -3.4797100067e+01
    1.8930108643e+02   -3.4881900787e+01
    1.8940197754e+02   -3.4968299866e+01
    1.8950148010e+02   -3.5053501129e+01
    1.8960076904e+02   -3.5138500214e+01
    1.8970230103e+02   -3.5225498199e+01
    1.8980081177e+02   -3.5309799194e+01
    1.8990170288e+02   -3.5396198273e+01
    1.9000173950e+02   -3.5481899261e+01
    1.9010183716e+02   -3.5567600250e+01
    1.9020219421e+02   -3.5653499603e+01
    1.9030174255e+02   -3.5738800049e+01
    1.9040229797e+02   -3.5824901581e+01
    1.9050181580e+02   -3.5910198212e+01
    1.9060142517e+02   -3.5995601654e+01
    1.9070120239e+02   -3.6081199646e+01
    1.9080209351e+02   -3.6167800903e+01
    1.9090237427e+02   -3.6253898621e+01
    1.9100091553e+02   -3.6338699341e+01
    1.9110215759e+02   -3.6425899506e+01
    1.9120104980e+02   -3.6511199951e+01
    1.9130145264e+02   -3.6597900391e+01
    1.9140209961e+02   -3.6685001373e+01
    1.9150111389e+02   -3.6770801544e+01
    1.9160235596e+02   -3.6858699799e+01
    1.9170106506e+02   -3.6944499969e+01
    1.9180126953e+02   -3.7031700134e+01
    1.9190124512e+02   -3.7118900299e+01
    1.9200216675e+02   -3.7207000732e+01
    1.9210148621e+02   -3.7293800354e+01
    1.9220179749e+02   -3.7381500244e+01
    1.9230168152e+02   -3.7469001770e+01
    1.9240103149e+02   -3.7555999756e+01
    1.9250248718e+02   -3.7645000458e+01
    1.9260156250e+02   -3.7731998444e+01
    1.9270173645e+02   -3.7819900513e+01
    1.9280242920e+02   -3.7908298492e+01
    1.9290164185e+02   -3.7995399475e+01
    1.9300245667e+02   -3.8083900452e+01
    1.9310197449e+02   -3.8171199799e+01
    1.9320184326e+02   -3.8258800507e+01
    1.9330233765e+02   -3.8346900940e+01
    1.9340104675e+02   -3.8433399200e+01
    1.9350172424e+02   -3.8521598816e+01
    1.9360148621e+02   -3.8609001160e+01
    1.9370193481e+02   -3.8696998596e+01
    1.9380155945e+02   -3.8784301758e+01
    1.9390161133e+02   -3.8872001648e+01
    1.9400172424e+02   -3.8959899902e+01
    1.9410163879e+02   -3.9047599792e+01
    1.9420256042e+02   -3.9136199951e+01
    1.9430139160e+02   -3.9223098755e+01
    1.9440206909e+02   -3.9311698914e+01
[...]
    2.5130491638e+02   -7.9634696960e+01
    2.5140538025e+02   -7.9688903809e+01
    2.5150572205e+02   -7.9742897034e+01
    2.5160601807e+02   -7.9796997070e+01
    2.5170582581e+02   -7.9850700378e+01
    2.5180516052e+02   -7.9904197693e+01
    2.5190498352e+02   -7.9958000183e+01
    2.5200596619e+02   -8.0012397766e+01
    2.5210566711e+02   -8.0066101074e+01
    2.5220509338e+02   -8.0119697571e+01
    2.5230494690e+02   -8.0173400879e+01
    2.5240481567e+02   -8.0227203369e+01
    2.5250604248e+02   -8.0281700134e+01
    2.5260557556e+02   -8.0335296631e+01
    2.5270521545e+02   -8.0388900757e+01
    2.5280621338e+02   -8.0443298340e+01
    2.5290567017e+02   -8.0496696472e+01
    2.5300587463e+02   -8.0550598145e+01
    2.5310554504e+02   -8.0603996277e+01
    2.5320610046e+02   -8.0657897949e+01
    2.5330502319e+02   -8.0710899353e+01
    2.5340547180e+02   -8.0764602661e+01
    2.5350616455e+02   -8.0818397522e+01
    2.5360499573e+02   -8.0871101379e+01
    2.5370527649e+02   -8.0924499512e+01
    2.5380572510e+02   -8.0977996826e+01
    2.5390626526e+02   -8.1031303406e+01
    2.5400550842e+02   -8.1083900452e+01
    2.5410627747e+02   -8.1137298584e+01
    2.5420605469e+02   -8.1190002441e+01
    2.5430586243e+02   -8.1242599487e+01
    2.5440570068e+02   -8.1295196533e+01
    2.5450552368e+02   -8.1347702026e+01
    2.5460604858e+02   -8.1400497437e+01
    2.5470532227e+02   -8.1452499390e+01
    2.5480589294e+02   -8.1505203247e+01
    2.5490513611e+02   -8.1557098389e+01
    2.5500570679e+02   -8.1609497070e+01
    2.5510539246e+02   -8.1661499023e+01
    2.5520503235e+02   -8.1713302612e+01
    2.5530590820e+02   -8.1765800476e+01
    2.5540518188e+02   -8.1817298889e+01
    2.5550561523e+02   -8.1869400024e+01
    2.5560559082e+02   -8.1921203613e+01
    2.5570628357e+02   -8.1973297119e+01
    2.5580549622e+02   -8.2024497986e+01
    2.5590586853e+02   -8.2076301575e+01
    2.5600622559e+02   -8.2127998352e+01
    2.5610522461e+02   -8.2179000854e+01
    2.5620507812e+02   -8.2230300903e+01
    2.5630508423e+02   -8.2281600952e+01
    2.5640521240e+02   -8.2332901001e+01
    2.5650537109e+02   -8.2384201050e+01
    2.5660549927e+02   -8.2435203552e+01
    2.5670632935e+02   -8.2486602783e+01
    2.5680584717e+02   -8.2537200928e+01
    2.5690545654e+02   -8.2587699890e+01
    2.5700643921e+02   -8.2638801575e+01
    2.5710620117e+02   -8.2689102173e+01
    2.5720635986e+02   -8.2739501953e+01
    2.5730532837e+02   -8.2789100647e+01
    2.5740625000e+02   -8.2839599609e+01
    2.5750619507e+02   -8.2889503479e+01
    2.5760534668e+02   -8.2938903809e+01
    2.5770587158e+02   -8.2988800049e+01
    2.5780606079e+02   -8.3038398743e+01
    2.5790609741e+02   -8.3087799072e+01
    2.5800650024e+02   -8.3137199402e+01
    2.5810531616e+02   -8.3185699463e+01
    2.5820581055e+02   -8.3234901428e+01
    2.5830630493e+02   -8.3283897400e+01
    2.5840594482e+02   -8.3332397461e+01
    2.5850567627e+02   -8.3380699158e+01
    2.5860638428e+02   -8.3429397583e+01
    2.5870550537e+02   -8.3477302551e+01
    2.5880569458e+02   -8.3525497437e+01
    2.5890557861e+02   -8.3573402405e+01
    2.5900656128e+02   -8.3621803284e+01
    2.5910580444e+02   -8.3669296265e+01
    2.5920590210e+02   -8.3717002869e+01
    2.5930596924e+02   -8.3764602661e+01
    2.5940612793e+02   -8.3812202454e+01
    2.5950640869e+02   -8.3859596252e+01
    2.5960549927e+02   -8.3906303406e+01
    2.5970645142e+02   -8.3953796387e+01
    2.5980569458e+02   -8.4000297546e+01
    2.5990631104e+02   -8.4047302246e+01
    2.6000549316e+02   -8.4093597412e+01
    2.6010577393e+02   -8.4140197754e+01
    2.6020565796e+02   -8.4186500549e+01
    2.6030560303e+02   -8.4232696533e+01
    2.6040560913e+02   -8.4278701782e+01
    2.6050573730e+02   -8.4324600220e+01
    2.6060604858e+02   -8.4370498657e+01
    2.6070571899e+02   -8.4415901184e+01
    2.6080548096e+02   -8.4461097717e+01
    2.6090591431e+02   -8.4506500244e+01
    2.6100650024e+02   -8.4551696777e+01
    2.6110546875e+02   -8.4596099854e+01
    2.6120556641e+02   -8.4640701294e+01
    2.6130599976e+02   -8.4685302734e+01
    2.6140661621e+02   -8.4729698181e+01
    2.6150588989e+02   -8.4773200989e+01
    2.6160656738e+02   -8.4817199707e+01
    2.6170593262e+02   -8.4860397339e+01
    2.6180664062e+02   -8.4903800964e+01
    2.6190664673e+02   -8.4946800232e+01
    2.6200640869e+02   -8.4989501953e+01
    2.6210598755e+02   -8.5031898499e+01
    2.6220660400e+02   -8.5074501038e+01
    2.6230636597e+02   -8.5116600037e+01
    2.6240597534e+02   -8.5158500671e+01
    2.6250555420e+02   -8.5200103760e+01
    2.6260559082e+02   -8.5241699219e+01
    2.6270596313e+02   -8.5283203125e+01
    2.6280630493e+02   -8.5324501038e+01
    2.6290655518e+02   -8.5365600586e+01
    2.6300552368e+02   -8.5405998230e+01
    2.6310604858e+02   -8.5446800232e+01
    2.6320635986e+02   -8.5487297058e+01
    2.6330575562e+02   -8.5527198792e+01
    2.6340628052e+02   -8.5567398071e+01
    2.6350680542e+02   -8.5607498169e+01
    2.6360659790e+02   -8.5647003174e+01
    2.6370632935e+02   -8.5686302185e+01
    2.6380612183e+02   -8.5725502014e+01
    2.6390664673e+02   -8.5764701843e+01
    2.6400604248e+02   -8.5803298950e+01
    2.6410690308e+02   -8.5842201233e+01
    2.6420657349e+02   -8.5880401611e+01
    2.6430630493e+02   -8.5918502808e+01
    2.6440612793e+02   -8.5956298828e+01
    2.6450595093e+02   -8.5994003296e+01
    2.6460580444e+02   -8.6031402588e+01
    2.6470568848e+02   -8.6068603516e+01
    2.6480630493e+02   -8.6105796814e+01
    2.6490582275e+02   -8.6142402649e+01
    2.6500558472e+02   -8.6178802490e+01
    2.6510690308e+02   -8.6215499878e+01
    2.6520559692e+02   -8.6250999451e+01
    2.6530569458e+02   -8.6286796570e+01
    2.6540573120e+02   -8.6322303772e+01
    2.6550564575e+02   -8.6357597351e+01
    2.6560595703e+02   -8.6392700195e+01
    2.6570623779e+02   -8.6427597046e+01
    2.6580630493e+02   -8.6462196350e+01
    2.6590655518e+02   -8.6496498108e+01
    2.6600570679e+02   -8.6530296326e+01
    2.6610629272e+02   -8.6564201355e+01
    2.6620693970e+02   -8.6597999573e+01
    2.6630627441e+02   -8.6630996704e+01
    2.6640698242e+02   -8.6664299011e+01
    2.6650686646e+02   -8.6697097778e+01
    2.6660702515e+02   -8.6729598999e+01
    2.6670596313e+02   -8.6761596680e+01
    2.6680661011e+02   -8.6793800354e+01
    2.6690701294e+02   -8.6825798035e+01
    2.6700604248e+02   -8.6857002258e+01
    2.6710653687e+02   -8.6888496399e+01
    2.6720578003e+02   -8.6919296265e+01
    2.6730648804e+02   -8.6950302124e+01
    2.6740594482e+02   -8.6980697632e+01
    2.6750701904e+02   -8.7011398315e+01
    2.6760595703e+02   -8.7041099548e+01
    2.6770626831e+02   -8.7070999146e+01
    2.6780670166e+02   -8.7100700378e+01
    2.6790597534e+02   -8.7129699707e+01
    2.6800665283e+02   -8.7158897400e+01
    2.6810607910e+02   -8.7187400818e+01
    2.6820657349e+02   -8.7216003418e+01
    2.6830688477e+02   -8.7244201660e+01
    2.6840591431e+02   -8.7271697998e+01
    2.6850643921e+02   -8.7299301147e+01
    2.6860644531e+02   -8.7326499939e+01
    2.6870623779e+02   -8.7353401184e+01
    2.6880590820e+02   -8.7379898071e+01
    2.6890667725e+02   -8.7406402588e+01
    2.6900592041e+02   -8.7432197571e+01
    2.6910632324e+02   -8.7458099365e+01
    2.6920666504e+02   -8.7483596802e+01
    2.6930612183e+02   -8.7508697510e+01
    2.6940686035e+02   -8.7533798218e+01
    2.6950619507e+02   -8.7558197021e+01
    2.6960681152e+02   -8.7582702637e+01
    2.6970632935e+02   -8.7606697083e+01
    2.6980630493e+02   -8.7630500793e+01
    2.6990628052e+02   -8.7654098511e+01
    2.7000616455e+02   -8.7677299500e+01
    2.7010714722e+02   -8.7700599670e+01
    2.7020666504e+02   -8.7723297119e+01
    2.7030599976e+02   -8.7745796204e+01
    2.7040698242e+02   -8.7768302917e+01
    2.7050671387e+02   -8.7790397644e+01
    2.7060635376e+02   -8.7812202454e+01
    2.7070608521e+02   -8.7833801270e+01
    2.7080624390e+02   -8.7855201721e+01
    2.7090701294e+02   -8.7876602173e+01
    2.7100671387e+02   -8.7897499084e+01
    2.7110662842e+02   -8.7918197632e+01
    2.7120651245e+02   -8.7938598633e+01
    2.7130603027e+02   -8.7958702087e+01
    2.7140704346e+02   -8.7978797913e+01
    2.7150665283e+02   -8.7998397827e+01
    2.7160647583e+02   -8.8017601013e+01
    2.7170623779e+02   -8.8036598206e+01
    2.7180731201e+02   -8.8055496216e+01
    2.7190704346e+02   -8.8073898315e+01
    2.7200714111e+02   -8.8092002869e+01
    2.7210729980e+02   -8.8109802246e+01
    2.7220611572e+02   -8.8127098083e+01
    2.7230627441e+02   -8.8144302368e+01
    2.7240628052e+02   -8.8161102295e+01
    2.7250717163e+02   -8.8177803040e+01
    2.7260675049e+02   -8.8193901062e+01
    2.7270642090e+02   -8.8209602356e+01
    2.7280615234e+02   -8.8225097656e+01
    2.7290725708e+02   -8.8240501404e+01
    2.7300692749e+02   -8.8255302429e+01
    2.7310714722e+02   -8.8269897461e+01
    2.7320666504e+02   -8.8283996582e+01
    2.7330679321e+02   -8.8297996521e+01
    2.7340670776e+02   -8.8311599731e+01
    2.7350643921e+02   -8.8324897766e+01
    2.7360723877e+02   -8.8338096619e+01
    2.7370727539e+02   -8.8350898743e+01
    2.7380685425e+02   -8.8363403320e+01
    2.7390628052e+02   -8.8375701904e+01
    2.7400698853e+02   -8.8387802124e+01
    2.7410638428e+02   -8.8399597168e+01
    2.7420721436e+02   -8.8411300659e+01
    2.7430673218e+02   -8.8422599792e+01
    2.7440747070e+02   -8.8433799744e+01
    2.7450720215e+02   -8.8444602966e+01
    2.7460751343e+02   -8.8455299377e+01
    2.7470645142e+02   -8.8465499878e+01
    2.7480670166e+02   -8.8475700378e+01
    2.7490722656e+02   -8.8485603333e+01
    2.7500695801e+02   -8.8495201111e+01
    2.7510693359e+02   -8.8504501343e+01
    2.7520718384e+02   -8.8513702393e+01
    2.7530630493e+02   -8.8522399902e+01
    2.7540704346e+02   -8.8531097412e+01
    2.7550708008e+02   -8.8539398193e+01
    2.7560751343e+02   -8.8547500610e+01
    2.7570672607e+02   -8.8555198669e+01
    2.7580737305e+02   -8.8562698364e+01
    2.7590707397e+02   -8.8569900513e+01
    2.7600701904e+02   -8.8576797485e+01
    2.7610702515e+02   -8.8583297729e+01
    2.7620721436e+02   -8.8589599609e+01
    2.7630746460e+02   -8.8595596313e+01
    2.7640637207e+02   -8.8601097107e+01
    2.7650668335e+02   -8.8606498718e+01
    2.7660638428e+02   -8.8611503601e+01
    2.7670700073e+02   -8.8616203308e+01
    2.7680648804e+02   -8.8620697021e+01
    2.7690704346e+02   -8.8624801636e+01
    2.7700653076e+02   -8.8628700256e+01
    2.7710687256e+02   -8.8632301331e+01
    2.7720654297e+02   -8.8635597229e+01
    2.7730758667e+02   -8.8638702393e+01
    2.7740689087e+02   -8.8641403198e+01
    2.7750747681e+02   -8.8643997192e+01
    2.7760723877e+02   -8.8646202087e+01
    2.7770755005e+02   -8.8648300171e+01
    2.7780648804e+02   -8.8650001526e+01
    2.7790692139e+02   -8.8651603699e+01
    2.7800711060e+02   -8.8652900696e+01
    2.7810729980e+02   -8.8653999329e+01
    2.7820745850e+02   -8.8654800415e+01
    2.7830670166e+02   -8.8655403137e+01
    2.7840750122e+02   -8.8655700684e+01
    2.7850695801e+02   -8.8655899048e+01
    2.7860662842e+02   -8.8655700684e+01
    2.7870651245e+02   -8.8655403137e+01
    2.7880682373e+02   -8.8654800415e+01
    2.7890661621e+02   -8.8653999329e+01
    2.7900653076e+02   -8.8652999878e+01
    2.7910775757e+02   -8.8651603699e+01
    2.7920761108e+02   -8.8650100708e+01
    2.7930749512e+02   -8.8648300171e+01
    2.7940740967e+02   -8.8646301270e+01
    2.7950656128e+02   -8.8643997192e+01
    2.7960723877e+02   -8.8641403198e+01
    2.7970666504e+02   -8.8638496399e+01
    2.7980761719e+02   -8.8635398865e+01
    2.7990731812e+02   -8.8632003784e+01
    2.8000711060e+02   -8.8628402710e+01
    2.8010696411e+02   -8.8624397278e+01
    2.8020764160e+02   -8.8620201111e+01
    2.8030752563e+02   -8.8615798950e+01
    2.8040661621e+02   -8.8611099243e+01
    2.8050732422e+02   -8.8606101990e+01
    2.8060650635e+02   -8.8600898743e+01
    2.8070706177e+02   -8.8595497131e+01
    2.8080761719e+02   -8.8589797974e+01
    2.8090701294e+02   -8.8583900452e+01
    2.8100701904e+02   -8.8577796936e+01
    2.8110699463e+02   -8.8571502686e+01
    2.8120690918e+02   -8.8565002441e+01
    2.8130700684e+02   -8.8558296204e+01
    2.8140731812e+02   -8.8551399231e+01
    2.8150765991e+02   -8.8544197083e+01
    2.8160668945e+02   -8.8536903381e+01
    2.8170724487e+02   -8.8529296875e+01
    2.8180789185e+02   -8.8521400452e+01
    2.8190722656e+02   -8.8513496399e+01
    2.8200720215e+02   -8.8505302429e+01
    2.8210757446e+02   -8.8496902466e+01
    2.8220794678e+02   -8.8488296509e+01
    2.8230706787e+02   -8.8479698181e+01
    2.8240762329e+02   -8.8470703125e+01
    2.8250662231e+02   -8.8461700439e+01
    2.8260668945e+02   -8.8452301025e+01
    2.8270700073e+02   -8.8442802429e+01
    2.8280752563e+02   -8.8432998657e+01
    2.8290722656e+02   -8.8423103333e+01
    2.8300772095e+02   -8.8412803650e+01
    2.8310702515e+02   -8.8402496338e+01
    2.8320779419e+02   -8.8391700745e+01
    2.8330731201e+02   -8.8380897522e+01
    2.8340728760e+02   -8.8369796753e+01
    2.8350726318e+02   -8.8358497620e+01
    2.8360717773e+02   -8.8347000122e+01
    2.8370700073e+02   -8.8335296631e+01
    2.8380792236e+02   -8.8323196411e+01
    2.8390704346e+02   -8.8311203003e+01
    2.8400790405e+02   -8.8298698425e+01
    2.8410726929e+02   -8.8286201477e+01
    2.8420809937e+02   -8.8273300171e+01
    2.8430749512e+02   -8.8260398865e+01
    2.8440679932e+02   -8.8247398376e+01
    2.8450671387e+02   -8.8234100342e+01
    2.8460794067e+02   -8.8220397949e+01
    2.8470806885e+02   -8.8206703186e+01
    2.8480810547e+02   -8.8192802429e+01
    2.8490795898e+02   -8.8178802490e+01
    2.8500698853e+02   -8.8164703369e+01
    2.8510702515e+02   -8.8150398254e+01
    2.8520706177e+02   -8.8135902405e+01
    2.8530725098e+02   -8.8121299744e+01
    2.8540722656e+02   -8.8106597900e+01
    2.8550732422e+02   -8.8091697693e+01
    2.8560772705e+02   -8.8076698303e+01
    2.8570681763e+02   -8.8061798096e+01
    2.8580786133e+02   -8.8046401978e+01
    2.8590811157e+02   -8.8031097412e+01
    2.8600750732e+02   -8.8015701294e+01
    2.8610705566e+02   -8.8000198364e+01
    2.8620822144e+02   -8.7984298706e+01
    2.8630807495e+02   -8.7968498230e+01
    2.8640786743e+02   -8.7952499390e+01
    2.8650787354e+02   -8.7936401367e+01
    2.8660800171e+02   -8.7920097351e+01
    2.8670819092e+02   -8.7903602600e+01
    2.8680700684e+02   -8.7887298584e+01
    2.8690686035e+02   -8.7870697021e+01
    2.8700732422e+02   -8.7853797913e+01
    2.8710778809e+02   -8.7836700439e+01
    2.8720684814e+02   -8.7819801331e+01
    2.8730749512e+02   -8.7802398682e+01
    2.8740829468e+02   -8.7784896851e+01
    2.8750711060e+02   -8.7767601013e+01
    2.8760806274e+02   -8.7749702454e+01
    2.8770733643e+02   -8.7732002258e+01
    2.8780804443e+02   -8.7713897705e+01
    2.8790753174e+02   -8.7695899963e+01
    2.8800708008e+02   -8.7677696228e+01
    2.8810797119e+02   -8.7659202576e+01
    2.8820724487e+02   -8.7640899658e+01
    2.8830783081e+02   -8.7622200012e+01
    2.8840808105e+02   -8.7603500366e+01
    2.8850714111e+02   -8.7584999084e+01
    2.8860787964e+02   -8.7566001892e+01
    2.8870806885e+02   -8.7547096252e+01
    2.8880715942e+02   -8.7528297424e+01
    2.8890719604e+02   -8.7509300232e+01
    2.8900744629e+02   -8.7490097046e+01
    2.8910827637e+02   -8.7470802307e+01
    2.8920764160e+02   -8.7451797485e+01
    2.8930828857e+02   -8.7432403564e+01
    2.8940737915e+02   -8.7413299561e+01
    2.8950833130e+02   -8.7393798828e+01
    2.8960781860e+02   -8.7374397278e+01
    2.8970736694e+02   -8.7355003357e+01
    2.8980706787e+02   -8.7335502625e+01
    2.8990798950e+02   -8.7315696716e+01
    2.9000762939e+02   -8.7296096802e+01
    2.9010708618e+02   -8.7276397705e+01
    2.9020785522e+02   -8.7256401062e+01
    2.9030831909e+02   -8.7236297607e+01
    2.9040740967e+02   -8.7216400146e+01
    2.9050790405e+02   -8.7196197510e+01
    2.9060839844e+02   -8.7175796509e+01
    2.9070751953e+02   -8.7155601501e+01
    2.9080801392e+02   -8.7135101318e+01
    2.9090765381e+02   -8.7114601135e+01
    2.9100808716e+02   -8.7093902588e+01
    2.9110852051e+02   -8.7073097229e+01
    2.9120846558e+02   -8.7052299500e+01
    2.9130850220e+02   -8.7031501770e+01
    2.9140744019e+02   -8.7010803223e+01
    2.9150772095e+02   -8.6989700317e+01
    2.9160797119e+02   -8.6968597412e+01
    2.9170819092e+02   -8.6947502136e+01
    2.9180831909e+02   -8.6926399231e+01
    2.9190835571e+02   -8.6905197144e+01
    2.9200790405e+02   -8.6884101868e+01
    2.9210742188e+02   -8.6862998962e+01
    2.9220819092e+02   -8.6841697693e+01
    2.9230749512e+02   -8.6820701599e+01
    2.9240820312e+02   -8.6799301147e+01
    2.9250738525e+02   -8.6778396606e+01
    2.9260848999e+02   -8.6757003784e+01
    2.9270831299e+02   -8.6735900879e+01
    2.9280816650e+02   -8.6714797974e+01
    2.9290805054e+02   -8.6693801880e+01
    2.9300796509e+02   -8.6672698975e+01
    2.9310803223e+02   -8.6651702881e+01
    2.9320812988e+02   -8.6630699158e+01
    2.9330831909e+02   -8.6609596252e+01
    2.9340740967e+02   -8.6588798523e+01
    2.9350817871e+02   -8.6567596436e+01
    2.9360812378e+02   -8.6546600342e+01
    2.9370825195e+02   -8.6525497437e+01
    2.9380868530e+02   -8.6504402161e+01
    2.9390759277e+02   -8.6483596802e+01
    2.9400750732e+02   -8.6462501526e+01
    2.9410824585e+02   -8.6441200256e+01
    2.9420776367e+02   -8.6420097351e+01
    2.9430825806e+02   -8.6398803711e+01
    2.9440835571e+02   -8.6377601624e+01
    2.9450781250e+02   -8.6356399536e+01
    2.9460736084e+02   -8.6335197449e+01
    2.9470846558e+02   -8.6313499451e+01
    2.9480813599e+02   -8.6292098999e+01
    2.9490777588e+02   -8.6270599365e+01
    2.9500732422e+02   -8.6249198914e+01
    2.9510818481e+02   -8.6227401733e+01
    2.9520770264e+02   -8.6205902100e+01
    2.9530792236e+02   -8.6184303284e+01
    2.9540795898e+02   -8.6162696838e+01
    2.9550781250e+02   -8.6141197205e+01
    2.9560760498e+02   -8.6119697571e+01
    2.9570816040e+02   -8.6097999573e+01
    2.9580761719e+02   -8.6076599121e+01
    2.9590866089e+02   -8.6054901123e+01
    2.9600823975e+02   -8.6033500671e+01
    2.9610812378e+02   -8.6012199402e+01
    2.9620748901e+02   -8.5990898132e+01
    2.9630834961e+02   -8.5969497681e+01
    2.9640786743e+02   -8.5948303223e+01
    2.9650765991e+02   -8.5927200317e+01
    2.9660858154e+02   -8.5905998230e+01
    2.9670809937e+02   -8.5885101318e+01
    2.9680755615e+02   -8.5864303589e+01
    2.9690887451e+02   -8.5843101501e+01
    2.9700866699e+02   -8.5822402954e+01
    2.9710867310e+02   -8.5801696777e+01
    2.9720742798e+02   -8.5781196594e+01
    2.9730792236e+02   -8.5760498047e+01
    2.9740856934e+02   -8.5739799500e+01
    2.9750891113e+02   -8.5719299316e+01
    2.9760815430e+02   -8.5698898315e+01
    2.9770892334e+02   -8.5678298950e+01
    2.9780838013e+02   -8.5657997131e+01
    2.9790798950e+02   -8.5637702942e+01
    2.9800778198e+02   -8.5617301941e+01
    2.9810864258e+02   -8.5596801758e+01
    2.9820883179e+02   -8.5576301575e+01
    2.9830749512e+02   -8.5556198120e+01
    2.9840872192e+02   -8.5535598755e+01
    2.9850759888e+02   -8.5515403748e+01
    2.9860845947e+02   -8.5494903564e+01
    2.9870816040e+02   -8.5474601746e+01
    2.9880776978e+02   -8.5454399109e+01
    2.9890890503e+02   -8.5433898926e+01
    2.9900860596e+02   -8.5413696289e+01
    2.9910836792e+02   -8.5393501282e+01
    2.9920819092e+02   -8.5373497009e+01
    2.9930847168e+02   -8.5353302002e+01
    2.9940805054e+02   -8.5333297729e+01
    2.9950888062e+02   -8.5313102722e+01
    2.9960809326e+02   -8.5293296814e+01
    2.9970849609e+02   -8.5273399353e+01
    2.9980874634e+02   -8.5253501892e+01
    2.9990905762e+02   -8.5233703613e+01
endcurve
