Curveplot
LS-DYNA keyword deck by LS-PrePost
Time
Yrot-displ
Rigid Body Ids
300001 #pts=1800
* Minval=    -1.3552978516e+02 at time=       131.4985046387
* Maxval=     1.0439278412e-04 at time=         6.3990669250
    0.0000000000e+00   -4.5728931752e-08
    9.8665706813e-02   -5.6302727813e-08
    1.9887310266e-01   -6.7122151393e-08
    2.9908040166e-01   -7.7696697076e-08
    3.9928779006e-01   -8.7400998439e-08
    4.9949520826e-01   -9.5466823780e-08
    5.9970247746e-01   -1.0098018066e-07
    6.9990992546e-01   -1.0288509600e-07
    7.9913002253e-01   -9.9995993708e-08
    8.9911198616e-01   -9.1020353921e-08
    9.9869561195e-01   -7.4592513499e-08
    1.0994570255e+00   -4.9318590101e-08
    1.1992479563e+00   -1.3836336521e-08
    1.2995159626e+00    3.3101393626e-08
    1.3998789787e+00    9.2514142125e-08
    1.4984140396e+00    1.6505445899e-07
    1.5987759829e+00    2.5084742106e-07
    1.6983770132e+00    3.4931576920e-07
    1.7989480495e+00    4.5899807333e-07
    1.8988339901e+00    5.7736747294e-07
    1.9989110231e+00    7.0065618729e-07
    2.0999579430e+00    8.2369354004e-07
    2.1997489929e+00    9.3976444759e-07
    2.2998249531e+00    1.0405009334e-06
    2.3984560966e+00    1.1158172128e-06
    2.4995989799e+00    1.1539037814e-06
    2.5993900299e+00    1.1412934100e-06
    2.6996750832e+00    1.0630265024e-06
    2.7991790771e+00    9.0295350219e-07
    2.8985879421e+00    6.4422948753e-07
    2.9998068810e+00    2.7005057746e-07
    3.0995969772e+00   -2.3532918192e-07
    3.1991789341e+00   -8.8530009634e-07
    3.2988560200e+00   -1.6893513930e-06
    3.3993120193e+00   -2.6513514513e-06
    3.4990849495e+00   -3.7677564251e-06
    3.5990478992e+00   -5.0258690862e-06
    3.6990120411e+00   -6.4022719926e-06
    3.7991859913e+00   -7.8615576058e-06
    3.8997430801e+00   -9.3554554041e-06
    3.9986670017e+00   -1.0822463082e-05
    4.0987548828e+00   -1.2188040273e-05
    4.1999130249e+00   -1.3365441191e-05
    4.2996292114e+00   -1.4257231669e-05
    4.3988738060e+00   -1.4757536519e-05
    4.4989838600e+00   -1.4754998119e-05
    4.5994992256e+00   -1.4136448954e-05
    4.6996221542e+00   -1.2791263543e-05
    4.7996749878e+00   -1.0616304280e-05
    4.8995270729e+00   -7.5213602031e-06
    4.9988131523e+00   -3.4349341149e-06
    5.0984869003e+00    1.6897506612e-06
    5.1987581253e+00    7.8686834968e-06
    5.2999081612e+00    1.5081086531e-05
    5.3984551430e+00    2.3263659386e-05
    5.4986438751e+00    3.2305102650e-05
    5.5998082161e+00    4.2040988774e-05
    5.6994309425e+00    5.2249066357e-05
    5.7989611626e+00    6.2645056460e-05
    5.8997488022e+00    7.2878880019e-05
    5.9985179901e+00    8.2531405496e-05
    6.0992097855e+00    9.1111731308e-05
    6.1984539032e+00    9.8055010312e-05
    6.2987618446e+00    1.0272094369e-04
    6.3990669250e+00    1.0439278412e-04
    6.4993681908e+00    1.0227700841e-04
    6.5996651649e+00    9.5503506600e-05
    6.6999549866e+00    8.3126113168e-05
    6.7986969948e+00    6.4123742050e-05
    6.8989739418e+00    3.7401841837e-05
    6.9992442131e+00    1.7943223156e-06
    7.0995049477e+00   -4.3934469431e-05
    7.1997580528e+00   -1.0108794959e-04
    7.2984571457e+00   -1.7103536811e-04
    7.3986878395e+00   -2.5520939380e-04
    7.4989070892e+00   -3.5510340240e-04
    7.5991139412e+00   -4.7226905008e-04
    7.6993098259e+00   -6.0831464361e-04
    7.7994928360e+00   -7.6490401989e-04
    7.8996620178e+00   -9.4375584740e-04
    7.9998178482e+00   -1.1466435390e-03
    8.0999593735e+00   -1.3753956882e-03
    8.1985464096e+00   -1.6318971757e-03
    8.2986574173e+00   -1.9180877134e-03
    8.3987531662e+00   -2.2359613795e-03
    8.4988327026e+00   -2.5875647552e-03
    8.5988941193e+00   -2.9749996029e-03
    8.6989383698e+00   -3.4004228655e-03
    8.7989625931e+00   -3.8660485297e-03
    8.8989667892e+00   -4.3741473928e-03
    8.9989490509e+00   -4.9270479940e-03
    9.0989093781e+00   -5.5271321908e-03
    9.1988439560e+00   -6.1768363230e-03
    9.2987546921e+00   -6.8786446936e-03
    9.3986368179e+00   -7.6350863092e-03
    9.4984912872e+00   -8.4487274289e-03
    9.5998525620e+00   -9.3221655115e-03
    9.6996488571e+00   -1.0258027352e-02
    9.7994136810e+00   -1.1258968152e-02
    9.8991489410e+00   -1.2327667326e-02
    9.9988527298e+00   -1.3466817327e-02
    1.0098529816e+01   -1.4679105021e-02
    1.0199700356e+01   -1.5967199579e-02
    1.0299309731e+01   -1.7333747819e-02
    1.0398900032e+01   -1.8781360239e-02
    1.0499979973e+01   -2.0312622190e-02
    1.0599510193e+01   -2.1930070594e-02
    1.0699009895e+01   -2.3636205122e-02
    1.0798480034e+01   -2.5433469564e-02
    1.0899459839e+01   -2.7324246243e-02
    1.0998889923e+01   -2.9310833663e-02
    1.1099820137e+01   -3.1395457685e-02
    1.1199210167e+01   -3.3580277115e-02
    1.1298569679e+01   -3.5867374390e-02
    1.1399450302e+01   -3.8258768618e-02
    1.1498780251e+01   -4.0756400675e-02
    1.1599619865e+01   -4.3362125754e-02
    1.1698920250e+01   -4.6077750623e-02
    1.1799730301e+01   -4.8905007541e-02
    1.1899009705e+01   -5.1845587790e-02
    1.1999799728e+01   -5.4901134223e-02
    1.2099049568e+01   -5.8073263615e-02
    1.2199810028e+01   -6.1363551766e-02
    1.2299039841e+01   -6.4773567021e-02
    1.2399780273e+01   -6.8304844201e-02
    1.2498990059e+01   -7.1958914399e-02
    1.2599710464e+01   -7.5737297535e-02
    1.2698889732e+01   -7.9641491175e-02
    1.2799579620e+01   -8.3673000336e-02
    1.2898739815e+01   -8.7833300233e-02
    1.2999409676e+01   -9.2123851180e-02
    1.3098549843e+01   -9.6546076238e-02
    1.3199190140e+01   -1.0110139102e-01
    1.3299830437e+01   -1.0579116642e-01
    1.3398929596e+01   -1.1061676592e-01
    1.3499549866e+01   -1.1557953060e-01
    1.3598629951e+01   -1.2068082392e-01
    1.3699219704e+01   -1.2592196465e-01
    1.3799799919e+01   -1.3130427897e-01
    1.3898850441e+01   -1.3682903349e-01
    1.3999409676e+01   -1.4249752462e-01
    1.4099960327e+01   -1.4831101894e-01
    1.4198980331e+01   -1.5427084267e-01
    1.4299510002e+01   -1.6037833691e-01
    1.4398509979e+01   -1.6663482785e-01
    1.4499019623e+01   -1.7304165661e-01
    1.4599530220e+01   -1.7960013449e-01
    1.4698499680e+01   -1.8631157279e-01
    1.4798990250e+01   -1.9317723811e-01
    1.4899459839e+01   -2.0019842684e-01
    1.4999919891e+01   -2.0737642050e-01
    1.5098859787e+01   -2.1471256018e-01
    1.5199299812e+01   -2.2220827639e-01
    1.5299719810e+01   -2.2986507416e-01
    1.5398610115e+01   -2.3768450320e-01
    1.5499010086e+01   -2.4566821754e-01
    1.5599390030e+01   -2.5381791592e-01
    1.5699760437e+01   -2.6213535666e-01
    1.5798580170e+01   -2.7062237263e-01
    1.5898900032e+01   -2.7928096056e-01
    1.5999190331e+01   -2.8811311722e-01
    1.6099460602e+01   -2.9712101817e-01
    1.6199699402e+01   -3.0630677938e-01
    1.6299900055e+01   -3.1567275524e-01
    1.6398559570e+01   -3.2522147894e-01
    1.6498689651e+01   -3.3495560288e-01
    1.6598789215e+01   -3.4487789869e-01
    1.6698850632e+01   -3.5499101877e-01
    1.6798860550e+01   -3.6529776454e-01
    1.6898830414e+01   -3.7580078840e-01
    1.6998760223e+01   -3.8650286198e-01
    1.7098640442e+01   -3.9740663767e-01
    1.7199979782e+01   -4.0851479769e-01
    1.7299760818e+01   -4.1983002424e-01
    1.7399490356e+01   -4.3135508895e-01
    1.7499179840e+01   -4.4309291244e-01
    1.7598810196e+01   -4.5504653454e-01
    1.7699899673e+01   -4.6721890569e-01
    1.7799430847e+01   -4.7961312532e-01
    1.7898899078e+01   -4.9223229289e-01
    1.7999839783e+01   -5.0507950783e-01
    1.8099210739e+01   -5.1815789938e-01
    1.8198530197e+01   -5.3147065639e-01
    1.8299299240e+01   -5.4502087831e-01
    1.8400020599e+01   -5.5881166458e-01
    1.8499170303e+01   -5.7284599543e-01
    1.8599779129e+01   -5.8712708950e-01
    1.8698829651e+01   -6.0165798664e-01
    1.8799320221e+01   -6.1644190550e-01
    1.8899749756e+01   -6.3148200512e-01
    1.8998630524e+01   -6.4678150415e-01
    1.9098939896e+01   -6.6234356165e-01
    1.9199190140e+01   -6.7817121744e-01
    1.9299379349e+01   -6.9426763058e-01
    1.9399509430e+01   -7.1063566208e-01
    1.9499570847e+01   -7.2727829218e-01
    1.9599569321e+01   -7.4419856071e-01
    1.9699510574e+01   -7.6139950752e-01
    1.9799379349e+01   -7.7888435125e-01
    1.9899179459e+01   -7.9665637016e-01
    1.9998929977e+01   -8.1471884251e-01
    2.0098600388e+01   -8.3307492733e-01
    2.0199699402e+01   -8.5172766447e-01
    2.0299249649e+01   -8.7067997456e-01
    2.0398740768e+01   -8.8993459940e-01
    2.0499649048e+01   -9.0949428082e-01
    2.0599020004e+01   -9.2936158180e-01
    2.0699810028e+01   -9.4953912497e-01
    2.0799060822e+01   -9.7002929449e-01
    2.0899740219e+01   -9.9083471298e-01
    2.0998889923e+01   -1.0119576454e+00
    2.1099460602e+01   -1.0334004164e+00
    2.1199979782e+01   -1.0551654100e+00
    2.1298969269e+01   -1.0772547722e+00
    2.1399400711e+01   -1.0996706486e+00
    2.1499780655e+01   -1.1224153042e+00
    2.1598640442e+01   -1.1454907656e+00
    2.1698930740e+01   -1.1688989401e+00
    2.1799179077e+01   -1.1926414967e+00
    2.1899389267e+01   -1.2167198658e+00
    2.1999559402e+01   -1.2411352396e+00
    2.2099689484e+01   -1.2658884525e+00
    2.2199779510e+01   -1.2909809351e+00
    2.2299829483e+01   -1.3164135218e+00
    2.2399839401e+01   -1.3421876431e+00
    2.2499809265e+01   -1.3683047295e+00
    2.2599739075e+01   -1.3947663307e+00
    2.2699630737e+01   -1.4215743542e+00
    2.2799470901e+01   -1.4487305880e+00
    2.2899269104e+01   -1.4762370586e+00
    2.2999029160e+01   -1.5040957928e+00
    2.3098749161e+01   -1.5323083401e+00
    2.3199869156e+01   -1.5608762503e+00
    2.3299489975e+01   -1.5898010731e+00
    2.3399059296e+01   -1.6190842390e+00
    2.3500040054e+01   -1.6487268209e+00
    2.3599510193e+01   -1.6787306070e+00
    2.3698919296e+01   -1.7090972662e+00
    2.3799739838e+01   -1.7398284674e+00
    2.3899040222e+01   -1.7709258795e+00
    2.3999750137e+01   -1.8023916483e+00
    2.4098939896e+01   -1.8342278004e+00
    2.4199539185e+01   -1.8664362431e+00
    2.4298610687e+01   -1.8990191221e+00
    2.4399080276e+01   -1.9319782257e+00
    2.4499500275e+01   -1.9653155804e+00
    2.4599849701e+01   -1.9990328550e+00
    2.4698680878e+01   -2.0331318378e+00
    2.4798910141e+01   -2.0676150322e+00
    2.4899070740e+01   -2.1024839878e+00
    2.4999160767e+01   -2.1377406120e+00
    2.5099189758e+01   -2.1733868122e+00
    2.5199150085e+01   -2.2094244957e+00
    2.5299030304e+01   -2.2458550930e+00
    2.5398849487e+01   -2.2826805115e+00
    2.5500030518e+01   -2.3199026585e+00
    2.5599689484e+01   -2.3575229645e+00
    2.5699270248e+01   -2.3955433369e+00
    2.5798770905e+01   -2.4339663982e+00
    2.5899629593e+01   -2.4727940559e+00
    2.5998949051e+01   -2.5120289326e+00
    2.6099620819e+01   -2.5516729355e+00
    2.6198759079e+01   -2.5917286873e+00
    2.6299240112e+01   -2.6321980953e+00
    2.6399610519e+01   -2.6730830669e+00
    2.6499889374e+01   -2.7143862247e+00
    2.6600049973e+01   -2.7561094761e+00
    2.6698669434e+01   -2.7982556820e+00
    2.6800039291e+01   -2.8408281803e+00
    2.6899869919e+01   -2.8838295937e+00
    2.6999580383e+01   -2.9272634983e+00
    2.7099170685e+01   -2.9711339474e+00
    2.7198650360e+01   -3.0154445171e+00
    2.7299430847e+01   -3.0601987839e+00
    2.7398660660e+01   -3.1054000854e+00
    2.7499200821e+01   -3.1510517597e+00
    2.7599620819e+01   -3.1971559525e+00
    2.7699909210e+01   -3.2437155247e+00
    2.7798669815e+01   -3.2907328606e+00
    2.7898719788e+01   -3.3382103443e+00
    2.8000059128e+01   -3.3861498833e+00
    2.8099870682e+01   -3.4345533848e+00
    2.8199560165e+01   -3.4834229946e+00
    2.8299140930e+01   -3.5327606201e+00
    2.8399990082e+01   -3.5825681686e+00
    2.8499330521e+01   -3.6328480244e+00
    2.8599950790e+01   -3.6836023331e+00
    2.8699050903e+01   -3.7348334789e+00
    2.8799419403e+01   -3.7865431309e+00
    2.8899679184e+01   -3.8387343884e+00
    2.8999820709e+01   -3.8914086819e+00
    2.9099840164e+01   -3.9445683956e+00
    2.9199750900e+01   -3.9982163906e+00
    2.9299539566e+01   -4.0523557663e+00
    2.9399209976e+01   -4.1069889069e+00
    2.9498760223e+01   -4.1621198654e+00
    2.9599580765e+01   -4.2177515030e+00
    2.9698900223e+01   -4.2738862038e+00
    2.9799480438e+01   -4.3305258751e+00
    2.9899940491e+01   -4.3876733780e+00
    2.9998920441e+01   -4.4453296661e+00
    3.0099149704e+01   -4.5034976006e+00
    3.0199270248e+01   -4.5621790886e+00
    3.0299280167e+01   -4.6213760376e+00
    3.0399169922e+01   -4.6810903549e+00
    3.0498960495e+01   -4.7413229942e+00
    3.0600000381e+01   -4.8020753860e+00
    3.0699560165e+01   -4.8633484840e+00
    3.0799030304e+01   -4.9251437187e+00
    3.0899749756e+01   -4.9874620438e+00
    3.0999000549e+01   -5.0503063202e+00
    3.1099519730e+01   -5.1136770248e+00
    3.1199939728e+01   -5.1775765419e+00
    3.1298900604e+01   -5.2420058250e+00
    3.1399129868e+01   -5.3069672585e+00
    3.1499269485e+01   -5.3724617958e+00
    3.1599309921e+01   -5.4384903908e+00
    3.1699270248e+01   -5.5050544739e+00
    3.1799140930e+01   -5.5721545219e+00
    3.1898920059e+01   -5.6397910118e+00
    3.1999969482e+01   -5.7079639435e+00
    3.2099578857e+01   -5.7766733170e+00
    3.2199119568e+01   -5.8459181786e+00
    3.2299911499e+01   -5.9156985283e+00
    3.2399280548e+01   -5.9860148430e+00
    3.2499900818e+01   -6.0568671227e+00
    3.2599109650e+01   -6.1282558441e+00
    3.2699558258e+01   -6.2001814842e+00
    3.2799930573e+01   -6.2726459503e+00
    3.2898880005e+01   -6.3456511497e+00
    3.2999080658e+01   -6.4191994667e+00
    3.3099189758e+01   -6.4932923317e+00
    3.3199211121e+01   -6.5679316521e+00
    3.3299140930e+01   -6.6431188583e+00
    3.3398990631e+01   -6.7188549042e+00
    3.3500061035e+01   -6.7951402664e+00
    3.3599708557e+01   -6.8719754219e+00
    3.3699260712e+01   -6.9493598938e+00
    3.3800048828e+01   -7.0272951126e+00
    3.3899398804e+01   -7.1057801247e+00
    3.3999980927e+01   -7.1848163605e+00
    3.4099128723e+01   -7.2644023895e+00
    3.4199501038e+01   -7.3445401192e+00
    3.4299758911e+01   -7.4252285957e+00
    3.4399921417e+01   -7.5064678192e+00
    3.4499969482e+01   -7.5882587433e+00
    3.4599910736e+01   -7.6706027985e+00
    3.4699748993e+01   -7.7535009384e+00
    3.4799468994e+01   -7.8369550705e+00
    3.4899089813e+01   -7.9209680557e+00
    3.4999900818e+01   -8.0055418015e+00
    3.5099288940e+01   -8.0906763077e+00
    3.5199871063e+01   -8.1763763428e+00
    3.5299041748e+01   -8.2626399994e+00
    3.5399398804e+01   -8.3494701385e+00
    3.5499649048e+01   -8.4368667603e+00
    3.5599769592e+01   -8.5248327255e+00
    3.5699779510e+01   -8.6133661270e+00
    3.5799671173e+01   -8.7024679184e+00
    3.5899440765e+01   -8.7921400070e+00
    3.5999088287e+01   -8.8823833466e+00
    3.6099910736e+01   -8.9732007980e+00
    3.6199321747e+01   -9.0645914078e+00
    3.6299900055e+01   -9.1565570831e+00
    3.6399059296e+01   -9.2491025925e+00
    3.6499378204e+01   -9.3422269821e+00
    3.6599571228e+01   -9.4359331131e+00
    3.6699638367e+01   -9.5302228928e+00
    3.6799579620e+01   -9.6250953674e+00
    3.6899391174e+01   -9.7205524445e+00
    3.6999080658e+01   -9.8165960312e+00
    3.7099918365e+01   -9.9132270813e+00
    3.7199359894e+01   -1.0010443687e+01
    3.7299938202e+01   -1.0108247757e+01
    3.7399131775e+01   -1.0206640244e+01
    3.7499469757e+01   -1.0305619240e+01
    3.7599689484e+01   -1.0405187607e+01
    3.7699790955e+01   -1.0505344391e+01
    3.7799770355e+01   -1.0606092453e+01
    3.7899631500e+01   -1.0707430840e+01
    3.7999378204e+01   -1.0809363365e+01
    3.8099018097e+01   -1.0911889076e+01
    3.8199810028e+01   -1.1015010834e+01
    3.8299228668e+01   -1.1118728638e+01
    3.8399810791e+01   -1.1223043442e+01
    3.8499031067e+01   -1.1327955246e+01
    3.8599399567e+01   -1.1433464050e+01
    3.8699680328e+01   -1.1539569855e+01
    3.8799850464e+01   -1.1646269798e+01
    3.8899940491e+01   -1.1753562927e+01
    3.8999938965e+01   -1.1861449242e+01
    3.9099838257e+01   -1.1969927788e+01
    3.9199661255e+01   -1.2078998566e+01
    3.9299388885e+01   -1.2188663483e+01
    3.9399040222e+01   -1.2298922539e+01
    3.9499858856e+01   -1.2409777641e+01
    3.9599349976e+01   -1.2521230698e+01
    3.9698768616e+01   -1.2633281708e+01
    3.9799350739e+01   -1.2745931625e+01
    3.9899860382e+01   -1.2859181404e+01
    3.9999061584e+01   -1.2973030090e+01
    4.0099418640e+01   -1.3087476730e+01
    4.0199718475e+01   -1.3202521324e+01
    4.0299949646e+01   -1.3318163872e+01
    4.0398891449e+01   -1.3434405327e+01
    4.0498989105e+01   -1.3551246643e+01
    4.0599040985e+01   -1.3668690681e+01
    4.0699039459e+01   -1.3786737442e+01
    4.0798969269e+01   -1.3905385971e+01
    4.0898860931e+01   -1.4024637222e+01
    4.0999938965e+01   -1.4144487381e+01
    4.1099731445e+01   -1.4264935493e+01
    4.1199478149e+01   -1.4385980606e+01
    4.1298721313e+01   -1.4507618904e+01
    4.1399528503e+01   -1.4629851341e+01
    4.1499401093e+01   -1.4752676010e+01
    4.1599689484e+01   -1.4876091957e+01
    4.1698791504e+01   -1.5000098228e+01
    4.1799240112e+01   -1.5124694824e+01
    4.1899040222e+01   -1.5249880791e+01
    4.1999279022e+01   -1.5375654221e+01
    4.2099430084e+01   -1.5502013206e+01
    4.2199550629e+01   -1.5628956795e+01
    4.2298889160e+01   -1.5756483078e+01
    4.2399600983e+01   -1.5884588242e+01
    4.2499519348e+01   -1.6013273239e+01
    4.2599658966e+01   -1.6142534256e+01
    4.2699630737e+01   -1.6272375107e+01
    4.2799209595e+01   -1.6402791977e+01
    4.2898780823e+01   -1.6533784866e+01
    4.2999099731e+01   -1.6665357590e+01
    4.3099269867e+01   -1.6797504425e+01
    4.3199279785e+01   -1.6930225372e+01
    4.3299129486e+01   -1.7063522339e+01
    4.3399280548e+01   -1.7197389603e+01
    4.3498889923e+01   -1.7331827164e+01
    4.3599189758e+01   -1.7466831207e+01
    4.3699298859e+01   -1.7602397919e+01
    4.3799579620e+01   -1.7738527298e+01
    4.3899860382e+01   -1.7875215530e+01
    4.3999828339e+01   -1.8012462616e+01
    4.4098800659e+01   -1.8150268555e+01
    4.4198760986e+01   -1.8288635254e+01
    4.4299018860e+01   -1.8427560806e+01
    4.4399269104e+01   -1.8567049026e+01
    4.4499488831e+01   -1.8707092285e+01
    4.4598739624e+01   -1.8847690582e+01
    4.4699821472e+01   -1.8988842010e+01
    4.4799510956e+01   -1.9130540848e+01
    4.4899410248e+01   -1.9272787094e+01
    4.4999141693e+01   -1.9415578842e+01
    4.5098968506e+01   -1.9558914185e+01
    4.5198989868e+01   -1.9702795029e+01
    4.5298641205e+01   -1.9847219467e+01
    4.5399799347e+01   -1.9992185593e+01
    4.5499389648e+01   -2.0137695312e+01
    4.5599250793e+01   -2.0283744812e+01
    4.5698829651e+01   -2.0430332184e+01
    4.5799449921e+01   -2.0577455521e+01
    4.5899211884e+01   -2.0725118637e+01
    4.5998798370e+01   -2.0873313904e+01
    4.6099849701e+01   -2.1022043228e+01
    4.6199371338e+01   -2.1171304703e+01
    4.6298870087e+01   -2.1321092606e+01
    4.6399528503e+01   -2.1471408844e+01
    4.6499469757e+01   -2.1622251511e+01
    4.6599159241e+01   -2.1773618698e+01
    4.6699119568e+01   -2.1925510406e+01
    4.6798721313e+01   -2.2077926636e+01
    4.6899478912e+01   -2.2230865479e+01
    4.6999290466e+01   -2.2384325027e+01
    4.7098819733e+01   -2.2538307190e+01
    4.7198638916e+01   -2.2692806244e+01
    4.7299701691e+01   -2.2847826004e+01
    4.7399349213e+01   -2.3003358841e+01
    4.7498779297e+01   -2.3159404755e+01
    4.7599578857e+01   -2.3315963745e+01
    4.7698928833e+01   -2.3473028183e+01
    4.7799499512e+01   -2.3630598068e+01
    4.7899501801e+01   -2.3788671494e+01
    4.7999431610e+01   -2.3947248459e+01
    4.8098949432e+01   -2.4106327057e+01
    4.8199459076e+01   -2.4265907288e+01
    4.8299758911e+01   -2.4425987244e+01
    4.8399230957e+01   -2.4586568832e+01
    4.8498661041e+01   -2.4747648239e+01
    4.8598949432e+01   -2.4909231186e+01
    4.8698650360e+01   -2.5071311951e+01
    4.8799331665e+01   -2.5233888626e+01
    4.8899440765e+01   -2.5396961212e+01
    4.8999698639e+01   -2.5560522079e+01
    4.9098640442e+01   -2.5724571228e+01
    4.9199588776e+01   -2.5889102936e+01
    4.9298809052e+01   -2.6054115295e+01
    4.9399791718e+01   -2.6219606400e+01
    4.9499561310e+01   -2.6385572433e+01
    4.9598918915e+01   -2.6552009583e+01
    4.9699649811e+01   -2.6718919754e+01
    4.9799198151e+01   -2.6886301041e+01
    4.9899021149e+01   -2.7054149628e+01
    4.9999198914e+01   -2.7222465515e+01
    5.0099208832e+01   -2.7391248703e+01
    5.0199619293e+01   -2.7560495377e+01
    5.0299198151e+01   -2.7730203629e+01
    5.0399620056e+01   -2.7900373459e+01
    5.0499248505e+01   -2.8071002960e+01
    5.0598548889e+01   -2.8242092133e+01
    5.0699699402e+01   -2.8413640976e+01
    5.0798789978e+01   -2.8585649490e+01
    5.0898601532e+01   -2.8758115768e+01
    5.0998828888e+01   -2.8931037903e+01
    5.1099231720e+01   -2.9104413986e+01
    5.1199268341e+01   -2.9278238297e+01
    5.1299461365e+01   -2.9452507019e+01
    5.1399570465e+01   -2.9627216339e+01
    5.1499698639e+01   -2.9802362442e+01
    5.1598628998e+01   -2.9977943420e+01
    5.1699150085e+01   -3.0153957367e+01
    5.1798671722e+01   -3.0330406189e+01
    5.1899089813e+01   -3.0507284164e+01
    5.1999420166e+01   -3.0684591293e+01
    5.2098541260e+01   -3.0862323761e+01
    5.2198959351e+01   -3.1040477753e+01
    5.2299690247e+01   -3.1219047546e+01
    5.2399139404e+01   -3.1398031235e+01
    5.2499691010e+01   -3.1577421188e+01
    5.2599040985e+01   -3.1757213593e+01
    5.2699668884e+01   -3.1937408447e+01
    5.2799060822e+01   -3.2117996216e+01
    5.2899719238e+01   -3.2298984528e+01
    5.2999130249e+01   -3.2480361938e+01
    5.3098529816e+01   -3.2662132263e+01
    5.3199378967e+01   -3.2844295502e+01
    5.3299331665e+01   -3.3026844025e+01
    5.3398899078e+01   -3.3209781647e+01
    5.3499069214e+01   -3.3393104553e+01
    5.3598728180e+01   -3.3576812744e+01
    5.3699649811e+01   -3.3760894775e+01
    5.3799068451e+01   -3.3945358276e+01
    5.3898719788e+01   -3.4130191803e+01
    5.3999458313e+01   -3.4315391541e+01
    5.4099349976e+01   -3.4500961304e+01
    5.4199359894e+01   -3.4686889648e+01
    5.4299129486e+01   -3.4873180389e+01
    5.4399120331e+01   -3.5059822083e+01
    5.4498809814e+01   -3.5246822357e+01
    5.4598861694e+01   -3.5434177399e+01
    5.4698860168e+01   -3.5621887207e+01
    5.4798889160e+01   -3.5809955597e+01
    5.4898929596e+01   -3.5998371124e+01
    5.4999130249e+01   -3.6187137604e+01
    5.5099208832e+01   -3.6376251221e+01
    5.5198989868e+01   -3.6565711975e+01
    5.5298721313e+01   -3.6755516052e+01
    5.5398818970e+01   -3.6945667267e+01
    5.5498729706e+01   -3.7136157990e+01
    5.5598670959e+01   -3.7326992035e+01
    5.5699031830e+01   -3.7518157959e+01
    5.5798839569e+01   -3.7709659576e+01
    5.5899040222e+01   -3.7901485443e+01
    5.5999111176e+01   -3.8093635559e+01
    5.6098579407e+01   -3.8286102295e+01
    5.6199058533e+01   -3.8478881836e+01
    5.6299381256e+01   -3.8671970367e+01
    5.6398910522e+01   -3.8865360260e+01
    5.6499130249e+01   -3.9059040070e+01
    5.6599689484e+01   -3.9253013611e+01
    5.6699039459e+01   -3.9447273254e+01
    5.6799339294e+01   -3.9641807556e+01
    5.6899570465e+01   -3.9836624146e+01
    5.6999649048e+01   -4.0031711578e+01
    5.7099300385e+01   -4.0227069855e+01
    5.7198818207e+01   -4.0422702789e+01
    5.7299121857e+01   -4.0618610382e+01
    5.7399131775e+01   -4.0814792633e+01
    5.7499500275e+01   -4.1011245728e+01
    5.7598548889e+01   -4.1207973480e+01
    5.7698509216e+01   -4.1404975891e+01
    5.7799369812e+01   -4.1602252960e+01
    5.7899021149e+01   -4.1799804688e+01
    5.7998970032e+01   -4.1997627258e+01
    5.8098880768e+01   -4.2195716858e+01
    5.8198650360e+01   -4.2394073486e+01
    5.8298480988e+01   -4.2592697144e+01
    5.8398471832e+01   -4.2791584015e+01
    5.8499221802e+01   -4.2990730286e+01
    5.8599349976e+01   -4.3190132141e+01
    5.8698440552e+01   -4.3389785767e+01
    5.8799030304e+01   -4.3589683533e+01
    5.8899101257e+01   -4.3789825439e+01
    5.8998569489e+01   -4.3990207672e+01
    5.9098651886e+01   -4.4190830231e+01
    5.9199459076e+01   -4.4391677856e+01
    5.9299499512e+01   -4.4592758179e+01
    5.9398929596e+01   -4.4794055939e+01
    5.9498889923e+01   -4.4995574951e+01
    5.9598690033e+01   -4.5197307587e+01
    5.9699401855e+01   -4.5399250031e+01
    5.9798400879e+01   -4.5601402283e+01
    5.9899181366e+01   -4.5803760529e+01
    5.9999309540e+01   -4.6006317139e+01
    6.0099609375e+01   -4.6209068298e+01
    6.0199569702e+01   -4.6412010193e+01
    6.0299301147e+01   -4.6615146637e+01
    6.0398548126e+01   -4.6818473816e+01
    6.0498409271e+01   -4.7021995544e+01
    6.0598480225e+01   -4.7225715637e+01
    6.0699020386e+01   -4.7429626465e+01
    6.0798851013e+01   -4.7633735657e+01
    6.0898891449e+01   -4.7838035583e+01
    6.0998771667e+01   -4.8042518616e+01
    6.1099411011e+01   -4.8247180939e+01
    6.1199039459e+01   -4.8452026367e+01
    6.1299179077e+01   -4.8657039642e+01
    6.1398860931e+01   -4.8862232208e+01
    6.1498531342e+01   -4.9067596436e+01
    6.1598419189e+01   -4.9273136139e+01
    6.1698970795e+01   -4.9478847504e+01
    6.1798908234e+01   -4.9684722900e+01
    6.1898609161e+01   -4.9890766144e+01
    6.1999298096e+01   -5.0096969604e+01
    6.2098659515e+01   -5.0303337097e+01
    6.2198539734e+01   -5.0509860992e+01
    6.2298881531e+01   -5.0716537476e+01
    6.2399211884e+01   -5.0923362732e+01
    6.2498519897e+01   -5.1130336761e+01
    6.2598800659e+01   -5.1337444305e+01
    6.2699401855e+01   -5.1544689178e+01
    6.2799579620e+01   -5.1752059937e+01
    6.2898750305e+01   -5.1959552765e+01
    6.2998981476e+01   -5.2167163849e+01
    6.3098949432e+01   -5.2374885559e+01
    6.3199520111e+01   -5.2582717896e+01
    6.3299140930e+01   -5.2790657043e+01
    6.3399429321e+01   -5.2998695374e+01
    6.3499469757e+01   -5.3206829071e+01
    6.3599411011e+01   -5.3415061951e+01
    6.3698791504e+01   -5.3623390198e+01
    6.3799221039e+01   -5.3831809998e+01
    6.3898780823e+01   -5.4040328979e+01
    6.3998550415e+01   -5.4248947144e+01
    6.4099052429e+01   -5.4457664490e+01
    6.4198760986e+01   -5.4666477203e+01
    6.4298828125e+01   -5.4875385284e+01
    6.4399162292e+01   -5.5084384918e+01
    6.4499092102e+01   -5.5293472290e+01
    6.4598999023e+01   -5.5502639771e+01
    6.4698791504e+01   -5.5711887360e+01
    6.4798622131e+01   -5.5921211243e+01
    6.4899436951e+01   -5.6130611420e+01
    6.4999458313e+01   -5.6340084076e+01
    6.5099082947e+01   -5.6549629211e+01
    6.5198722839e+01   -5.6759239197e+01
    6.5299270630e+01   -5.6968921661e+01
    6.5398338318e+01   -5.7178676605e+01
    6.5498863220e+01   -5.7388496399e+01
    6.5598571777e+01   -5.7598377228e+01
    6.5698646545e+01   -5.7808322906e+01
    6.5799476624e+01   -5.8018318176e+01
    6.5899040222e+01   -5.8228366852e+01
    6.5998992920e+01   -5.8438446045e+01
    6.6098907471e+01   -5.8648551941e+01
    6.6199043274e+01   -5.8858680725e+01
    6.6299003601e+01   -5.9068824768e+01
    6.6399391174e+01   -5.9278972626e+01
    6.6499183655e+01   -5.9489120483e+01
    6.6599006653e+01   -5.9699260712e+01
    6.6698837280e+01   -5.9909397125e+01
    6.6798973083e+01   -6.0119518280e+01
    6.6898292542e+01   -6.0329624176e+01
    6.6998451233e+01   -6.0539726257e+01
    6.7098373413e+01   -6.0749828339e+01
    6.7198516846e+01   -6.0959926605e+01
    6.7298713684e+01   -6.1170028687e+01
    6.7398666382e+01   -6.1380126953e+01
    6.7499382019e+01   -6.1590229034e+01
    6.7599166870e+01   -6.1800331116e+01
    6.7699111938e+01   -6.2010425568e+01
    6.7798576355e+01   -6.2220512390e+01
    6.7898956299e+01   -6.2430583954e+01
    6.7999336243e+01   -6.2640644073e+01
    6.8099479675e+01   -6.2850681305e+01
    6.8198852539e+01   -6.3060703278e+01
    6.8298309326e+01   -6.3270698547e+01
    6.8399200439e+01   -6.3480678558e+01
    6.8498252869e+01   -6.3690635681e+01
    6.8598747253e+01   -6.3900569916e+01
    6.8699401855e+01   -6.4110488892e+01
    6.8798988342e+01   -6.4320373535e+01
    6.8898422241e+01   -6.4530235291e+01
    6.8998321533e+01   -6.4740074158e+01
    6.9098831177e+01   -6.4949874878e+01
    6.9199501038e+01   -6.5159637451e+01
    6.9298431396e+01   -6.5369354248e+01
    6.9399040222e+01   -6.5579017639e+01
    6.9499282837e+01   -6.5788619995e+01
    6.9599082947e+01   -6.5998161316e+01
    6.9699119568e+01   -6.6207633972e+01
    6.9798927307e+01   -6.6417022705e+01
    6.9899139404e+01   -6.6626327515e+01
    6.9998901367e+01   -6.6835525513e+01
    7.0099372864e+01   -6.7044616699e+01
    7.0198623657e+01   -6.7253608704e+01
    7.0298423767e+01   -6.7462493896e+01
    7.0398612976e+01   -6.7671279907e+01
    7.0498588562e+01   -6.7879974365e+01
    7.0598876953e+01   -6.8088577271e+01
    7.0698287964e+01   -6.8297088623e+01
    7.0798477173e+01   -6.8505516052e+01
    7.0898979187e+01   -6.8713859558e+01
    7.0998733521e+01   -6.8922119141e+01
    7.1098876953e+01   -6.9130287170e+01
    7.1198280334e+01   -6.9338363647e+01
    7.1298683167e+01   -6.9546348572e+01
    7.1399177551e+01   -6.9754241943e+01
    7.1498703003e+01   -6.9962043762e+01
    7.1599288940e+01   -7.0169738770e+01
    7.1699058533e+01   -7.0377326965e+01
    7.1798217773e+01   -7.0584800720e+01
    7.1898849487e+01   -7.0792160034e+01
    7.1998252869e+01   -7.0999412537e+01
    7.2098831177e+01   -7.1206542969e+01
    7.2198402405e+01   -7.1413566589e+01
    7.2298980713e+01   -7.1620460510e+01
    7.2398353577e+01   -7.1827217102e+01
    7.2498786926e+01   -7.2033828735e+01
    7.2598632812e+01   -7.2240280151e+01
    7.2698722839e+01   -7.2446563721e+01
    7.2799423218e+01   -7.2652671814e+01
    7.2899276733e+01   -7.2858604431e+01
    7.2998458862e+01   -7.3064361572e+01
    7.3099403381e+01   -7.3269958496e+01
    7.3198448181e+01   -7.3475402832e+01
    7.3299156189e+01   -7.3680694580e+01
    7.3399223328e+01   -7.3885833740e+01
    7.3498268127e+01   -7.4090827942e+01
    7.3598182678e+01   -7.4295677185e+01
    7.3699127197e+01   -7.4500396729e+01
    7.3798278809e+01   -7.4704963684e+01
    7.3898567200e+01   -7.4909393311e+01
    7.3999313354e+01   -7.5113677979e+01
    7.4098617554e+01   -7.5317794800e+01
    7.4198982239e+01   -7.5521743774e+01
    7.4298576355e+01   -7.5725509644e+01
    7.4398262024e+01   -7.5929077148e+01
    7.4499382019e+01   -7.6132438660e+01
    7.4598449707e+01   -7.6335586548e+01
    7.4699256897e+01   -7.6538513184e+01
    7.4798393250e+01   -7.6741210938e+01
    7.4898818970e+01   -7.6943695068e+01
    7.4998252869e+01   -7.7145965576e+01
    7.5098358154e+01   -7.7348022461e+01
    7.5198463440e+01   -7.7549888611e+01
    7.5299392700e+01   -7.7751541138e+01
    7.5398269653e+01   -7.7952987671e+01
    7.5499397278e+01   -7.8154235840e+01
    7.5598258972e+01   -7.8355278015e+01
    7.5698707581e+01   -7.8556137085e+01
    7.5798233032e+01   -7.8756797791e+01
    7.5898361206e+01   -7.8957275391e+01
    7.5998321533e+01   -7.9157562256e+01
    7.6098983765e+01   -7.9357658386e+01
    7.6198547363e+01   -7.9557548523e+01
    7.6298858643e+01   -7.9757232666e+01
    7.6398582458e+01   -7.9956687927e+01
    7.6498443604e+01   -8.0155906677e+01
    7.6598579407e+01   -8.0354888916e+01
    7.6698883057e+01   -8.0553627014e+01
    7.6799156189e+01   -8.0752113342e+01
    7.6898323059e+01   -8.0950355530e+01
    7.6998596191e+01   -8.1148345947e+01
    7.7098876953e+01   -8.1346092224e+01
    7.7198631287e+01   -8.1543594360e+01
    7.7299217224e+01   -8.1740859985e+01
    7.7398277283e+01   -8.1937881470e+01
    7.7498352051e+01   -8.2134658813e+01
    7.7598800659e+01   -8.2331184387e+01
    7.7698631287e+01   -8.2527450562e+01
    7.7799156189e+01   -8.2723449707e+01
    7.7899322510e+01   -8.2919189453e+01
    7.7998947144e+01   -8.3114654541e+01
    7.8099128723e+01   -8.3309844971e+01
    7.8198867798e+01   -8.3504760742e+01
    7.8298843384e+01   -8.3699401855e+01
    7.8399353027e+01   -8.3893760681e+01
    7.8498786926e+01   -8.4087844849e+01
    7.8598091125e+01   -8.4281639099e+01
    7.8698181152e+01   -8.4475151062e+01
    7.8798812866e+01   -8.4668380737e+01
    7.8899147034e+01   -8.4861328125e+01
    7.8999130249e+01   -8.5053993225e+01
    7.9099113464e+01   -8.5246383667e+01
    7.9199043274e+01   -8.5438491821e+01
    7.9298736572e+01   -8.5630310059e+01
    7.9398612976e+01   -8.5821846008e+01
    7.9498809814e+01   -8.6013092041e+01
    7.9598716736e+01   -8.6204048157e+01
    7.9698097229e+01   -8.6394729614e+01
    7.9798278809e+01   -8.6585121155e+01
    7.9899147034e+01   -8.6775230408e+01
    7.9998901367e+01   -8.6965042114e+01
    8.0098983765e+01   -8.7154548645e+01
    8.0198776245e+01   -8.7343757629e+01
    8.0299293518e+01   -8.7532646179e+01
    8.0398841858e+01   -8.7721214294e+01
    8.0498168945e+01   -8.7909461975e+01
    8.0599067688e+01   -8.8097373962e+01
    8.0698387146e+01   -8.8284965515e+01
    8.0799133301e+01   -8.8472229004e+01
    8.0898590088e+01   -8.8659164429e+01
    8.0998092651e+01   -8.8845771790e+01
    8.1098991394e+01   -8.9032051086e+01
    8.1198318481e+01   -8.9218002319e+01
    8.1298973083e+01   -8.9403625488e+01
    8.1398307800e+01   -8.9588920593e+01
    8.1498497009e+01   -8.9773887634e+01
    8.1599288940e+01   -8.9958518982e+01
    8.1699012756e+01   -9.0142829895e+01
    8.1799102783e+01   -9.0326812744e+01
    8.1898590088e+01   -9.0510467529e+01
    8.1999122620e+01   -9.0693786621e+01
    8.2098381042e+01   -9.0876777649e+01
    8.2198059082e+01   -9.1059440613e+01
    8.2298698425e+01   -9.1241760254e+01
    8.2399291992e+01   -9.1423744202e+01
    8.2498382568e+01   -9.1605400085e+01
    8.2599273682e+01   -9.1786712646e+01
    8.2698722839e+01   -9.1967689514e+01
    8.2798820496e+01   -9.2148315430e+01
    8.2898628235e+01   -9.2328598022e+01
    8.2999092102e+01   -9.2508529663e+01
    8.3098892212e+01   -9.2688110352e+01
    8.3198173523e+01   -9.2867340088e+01
    8.3298469543e+01   -9.3046218872e+01
    8.3398246765e+01   -9.3224739075e+01
    8.3498680115e+01   -9.3402900696e+01
    8.3599128723e+01   -9.3580696106e+01
    8.3699050903e+01   -9.3758117676e+01
    8.3798393250e+01   -9.3935165405e+01
    8.3898277283e+01   -9.4111846924e+01
    8.3998039246e+01   -9.4288146973e+01
    8.4098823547e+01   -9.4464080811e+01
    8.4199089050e+01   -9.4639640808e+01
    8.4298500061e+01   -9.4814834595e+01
    8.4398582458e+01   -9.4989662170e+01
    8.4498283386e+01   -9.5164115906e+01
    8.4598159790e+01   -9.5338211060e+01
    8.4698196411e+01   -9.5511940002e+01
    8.4798271179e+01   -9.5685295105e+01
    8.4898826599e+01   -9.5858276367e+01
    8.4999168396e+01   -9.6030876160e+01
    8.5099136353e+01   -9.6203086853e+01
    8.5199050903e+01   -9.6374916077e+01
    8.5298141479e+01   -9.6546371460e+01
    8.5398872375e+01   -9.6717437744e+01
    8.5497993469e+01   -9.6888122559e+01
    8.5598533630e+01   -9.7058418274e+01
    8.5698219299e+01   -9.7228340149e+01
    8.5798332214e+01   -9.7397872925e+01
    8.5898231506e+01   -9.7567016602e+01
    8.5998443604e+01   -9.7735771179e+01
    8.6098663330e+01   -9.7904144287e+01
    8.6198593140e+01   -9.8072120667e+01
    8.6298530579e+01   -9.8239707947e+01
    8.6398017883e+01   -9.8406898499e+01
    8.6498229980e+01   -9.8573692322e+01
    8.6599227905e+01   -9.8740097046e+01
    8.6698600769e+01   -9.8906097412e+01
    8.6799217224e+01   -9.9071708679e+01
    8.6898452759e+01   -9.9236915588e+01
    8.6999183655e+01   -9.9401725769e+01
    8.7098342896e+01   -9.9566146851e+01
    8.7198516846e+01   -9.9730163574e+01
    8.7299026489e+01   -9.9893775940e+01
    8.7399093628e+01   -1.0005697632e+02
    8.7499076843e+01   -1.0021975708e+02
    8.7598777771e+01   -1.0038212585e+02
    8.7698791504e+01   -1.0054407501e+02
    8.7798362732e+01   -1.0070560455e+02
    8.7898391724e+01   -1.0086670685e+02
    8.7999061584e+01   -1.0102738953e+02
    8.8099212646e+01   -1.0118765259e+02
    8.8199073792e+01   -1.0134750366e+02
    8.8298019409e+01   -1.0150694275e+02
    8.8398620605e+01   -1.0166598511e+02
    8.8498008728e+01   -1.0182463074e+02
    8.8598037720e+01   -1.0198287201e+02
    8.8698722839e+01   -1.0214070892e+02
    8.8798652649e+01   -1.0229813385e+02
    8.8898918152e+01   -1.0245513916e+02
    8.8998832703e+01   -1.0261170959e+02
    8.9099159241e+01   -1.0276784515e+02
    8.9198829651e+01   -1.0292353821e+02
    8.9299072266e+01   -1.0307878113e+02
    8.9399192810e+01   -1.0323358154e+02
    8.9499031067e+01   -1.0338793945e+02
    8.9598129272e+01   -1.0354186249e+02
    8.9698356628e+01   -1.0369535828e+02
    8.9798927307e+01   -1.0384843445e+02
    8.9898841858e+01   -1.0400109100e+02
    8.9998092651e+01   -1.0415333557e+02
    9.0098701477e+01   -1.0430516052e+02
    9.0198486328e+01   -1.0445658875e+02
    9.0298156738e+01   -1.0460761261e+02
    9.0398666382e+01   -1.0475823212e+02
    9.0498107910e+01   -1.0490845490e+02
    9.0598533630e+01   -1.0505828094e+02
    9.0698677063e+01   -1.0520770264e+02
    9.0798606873e+01   -1.0535672760e+02
    9.0898139954e+01   -1.0550534058e+02
    9.0997947693e+01   -1.0565354919e+02
    9.1098983765e+01   -1.0580134583e+02
    9.1198013306e+01   -1.0594871521e+02
    9.1298271179e+01   -1.0609567261e+02
    9.1398193359e+01   -1.0624218750e+02
    9.1498550415e+01   -1.0638828278e+02
    9.1598648071e+01   -1.0653393555e+02
    9.1697906494e+01   -1.0667916870e+02
    9.1798271179e+01   -1.0682396698e+02
    9.1898826599e+01   -1.0696833801e+02
    9.1998191833e+01   -1.0711228943e+02
    9.2097991943e+01   -1.0725582886e+02
    9.2198860168e+01   -1.0739894104e+02
    9.2298767090e+01   -1.0754163361e+02
    9.2398017883e+01   -1.0768390656e+02
    9.2498832703e+01   -1.0782574463e+02
    9.2598503113e+01   -1.0796715546e+02
    9.2698471069e+01   -1.0810813141e+02
    9.2798240662e+01   -1.0824868011e+02
    9.2898643494e+01   -1.0838880157e+02
    9.2997962952e+01   -1.0852851105e+02
    9.3098213196e+01   -1.0866780090e+02
    9.3198356628e+01   -1.0880667877e+02
    9.3298782349e+01   -1.0894515228e+02
    9.3398300171e+01   -1.0908322144e+02
    9.3498092651e+01   -1.0922088623e+02
    9.3598007202e+01   -1.0935814667e+02
    9.3698448181e+01   -1.0949500275e+02
    9.3799102783e+01   -1.0963144684e+02
    9.3899063110e+01   -1.0976747894e+02
    9.3998191833e+01   -1.0990309143e+02
    9.4098007202e+01   -1.1003828430e+02
    9.4198799133e+01   -1.1017304993e+02
    9.4298606873e+01   -1.1030739594e+02
    9.4398612976e+01   -1.1044131470e+02
    9.4498970032e+01   -1.1057479858e+02
    9.4598487854e+01   -1.1070785522e+02
    9.4698356628e+01   -1.1084048462e+02
    9.4798591614e+01   -1.1097267914e+02
    9.4898780823e+01   -1.1110443878e+02
    9.4998619080e+01   -1.1123576355e+02
    9.5098503113e+01   -1.1136667633e+02
    9.5198486328e+01   -1.1149716949e+02
    9.5298057556e+01   -1.1162725830e+02
    9.5398696899e+01   -1.1175693512e+02
    9.5497848511e+01   -1.1188619995e+02
    9.5598579407e+01   -1.1201506042e+02
    9.5698936462e+01   -1.1214352417e+02
    9.5797973633e+01   -1.1227158356e+02
    9.5898811340e+01   -1.1239924622e+02
    9.5998802185e+01   -1.1252651978e+02
    9.6098823547e+01   -1.1265339661e+02
    9.6198860168e+01   -1.1277989197e+02
    9.6297981262e+01   -1.1290599060e+02
    9.6398193359e+01   -1.1303170776e+02
    9.6498580933e+01   -1.1315704346e+02
    9.6598793030e+01   -1.1328199005e+02
    9.6698127747e+01   -1.1340654755e+02
    9.6798057556e+01   -1.1353073120e+02
    9.6898666382e+01   -1.1365453339e+02
    9.6998580933e+01   -1.1377793884e+02
    9.7098442078e+01   -1.1390095520e+02
    9.7198249817e+01   -1.1402359009e+02
    9.7299049377e+01   -1.1414582825e+02
    9.7398841858e+01   -1.1426767731e+02
    9.7498420715e+01   -1.1438914490e+02
    9.7598999023e+01   -1.1451021576e+02
    9.7698402405e+01   -1.1463089752e+02
    9.7798576355e+01   -1.1475119019e+02
    9.7898712158e+01   -1.1487109375e+02
    9.7998893738e+01   -1.1499061584e+02
    9.8098930359e+01   -1.1510974884e+02
    9.8198722839e+01   -1.1522850800e+02
    9.8298141479e+01   -1.1534689331e+02
    9.8399002075e+01   -1.1546491241e+02
    9.8498443604e+01   -1.1558257294e+02
    9.8597839355e+01   -1.1569987488e+02
    9.8699012756e+01   -1.1581684113e+02
    9.8797889709e+01   -1.1593346405e+02
    9.8898757935e+01   -1.1604974365e+02
    9.8998802185e+01   -1.1616570282e+02
    9.9098167419e+01   -1.1628132629e+02
    9.9198570251e+01   -1.1639662170e+02
    9.9299026489e+01   -1.1651160431e+02
    9.9398826599e+01   -1.1662625885e+02
    9.9497863770e+01   -1.1674058533e+02
    9.9597938538e+01   -1.1685458374e+02
    9.9698547363e+01   -1.1696825409e+02
    9.9798347473e+01   -1.1708158875e+02
    9.9898612976e+01   -1.1719457245e+02
    9.9998672485e+01   -1.1730722046e+02
    1.0009850311e+02   -1.1741952515e+02
    1.0019869995e+02   -1.1753147125e+02
    1.0029900360e+02   -1.1764308167e+02
    1.0039779663e+02   -1.1775434875e+02
    1.0049800110e+02   -1.1786527252e+02
    1.0059839630e+02   -1.1797585297e+02
    1.0069840240e+02   -1.1808610535e+02
    1.0079840088e+02   -1.1819602966e+02
    1.0089849854e+02   -1.1830564117e+02
    1.0099859619e+02   -1.1841493988e+02
    1.0109809875e+02   -1.1852394104e+02
    1.0119869995e+02   -1.1863263702e+02
    1.0129869843e+02   -1.1874102783e+02
    1.0139810181e+02   -1.1884912872e+02
    1.0149790192e+02   -1.1895690918e+02
    1.0159799957e+02   -1.1906436920e+02
    1.0169879913e+02   -1.1917152405e+02
    1.0179799652e+02   -1.1927834320e+02
    1.0189779663e+02   -1.1938485718e+02
    1.0199890137e+02   -1.1949105072e+02
    1.0209819794e+02   -1.1959691620e+02
    1.0219789886e+02   -1.1970245361e+02
    1.0229810333e+02   -1.1980767059e+02
    1.0239830017e+02   -1.1991255188e+02
    1.0249819946e+02   -1.2001712036e+02
    1.0259850311e+02   -1.2012137604e+02
    1.0269879913e+02   -1.2022532654e+02
    1.0279879761e+02   -1.2032899475e+02
    1.0289800262e+02   -1.2043238831e+02
    1.0299849701e+02   -1.2053550720e+02
    1.0309770203e+02   -1.2063835144e+02
    1.0319799805e+02   -1.2074094391e+02
    1.0329859924e+02   -1.2084326935e+02
    1.0339900208e+02   -1.2094533539e+02
    1.0349829865e+02   -1.2104712677e+02
    1.0359889984e+02   -1.2114866638e+02
    1.0369809723e+02   -1.2124993896e+02
    1.0379889679e+02   -1.2135095215e+02
    1.0389779663e+02   -1.2145170593e+02
    1.0399810028e+02   -1.2155221558e+02
    1.0409770203e+02   -1.2165249634e+02
    1.0419860077e+02   -1.2175255585e+02
    1.0429810333e+02   -1.2185240936e+02
    1.0439790344e+02   -1.2195207214e+02
    1.0449800110e+02   -1.2205153656e+02
    1.0459839630e+02   -1.2215083313e+02
    1.0469879913e+02   -1.2224994659e+02
    1.0479789734e+02   -1.2234889984e+02
    1.0489800262e+02   -1.2244770050e+02
    1.0499890137e+02   -1.2254634857e+02
    1.0509839630e+02   -1.2264486694e+02
    1.0519879913e+02   -1.2274325562e+02
    1.0529889679e+02   -1.2284153748e+02
    1.0539800262e+02   -1.2293972015e+02
    1.0549810028e+02   -1.2303782654e+02
    1.0559829712e+02   -1.2313587952e+02
    1.0569889832e+02   -1.2323388672e+02
    1.0579769897e+02   -1.2333186340e+02
    1.0589810181e+02   -1.2342981720e+02
    1.0599770355e+02   -1.2352775574e+02
    1.0609880066e+02   -1.2362567139e+02
    1.0619830322e+02   -1.2372355652e+02
    1.0629779816e+02   -1.2382140350e+02
    1.0639849854e+02   -1.2391918945e+02
    1.0649819946e+02   -1.2401692200e+02
    1.0659790039e+02   -1.2411460876e+02
    1.0669879913e+02   -1.2421221924e+02
    1.0679799652e+02   -1.2430976105e+02
    1.0689869690e+02   -1.2440723419e+02
    1.0699810028e+02   -1.2450464630e+02
    1.0709770203e+02   -1.2460196686e+02
    1.0719850159e+02   -1.2469921112e+02
    1.0729799652e+02   -1.2479637146e+02
    1.0739759827e+02   -1.2489344788e+02
    1.0749859619e+02   -1.2499043274e+02
    1.0759770203e+02   -1.2508733368e+02
    1.0769879913e+02   -1.2518414307e+02
    1.0779859924e+02   -1.2528086090e+02
    1.0789759827e+02   -1.2537749481e+02
    1.0799759674e+02   -1.2547402191e+02
    1.0809790039e+02   -1.2557045746e+02
    1.0819799805e+02   -1.2566678619e+02
    1.0829810333e+02   -1.2576300812e+02
    1.0839849854e+02   -1.2585910034e+02
    1.0849880219e+02   -1.2595504761e+02
    1.0859770203e+02   -1.2605082703e+02
    1.0869809723e+02   -1.2614640045e+02
    1.0879869843e+02   -1.2624174500e+02
    1.0889779663e+02   -1.2633681488e+02
    1.0899839783e+02   -1.2643157196e+02
    1.0909760284e+02   -1.2652595520e+02
    1.0919830322e+02   -1.2661991882e+02
    1.0929779816e+02   -1.2671338654e+02
    1.0939859772e+02   -1.2680628967e+02
    1.0949810028e+02   -1.2689852905e+02
    1.0959760284e+02   -1.2699004364e+02
    1.0969869995e+02   -1.2708074188e+02
    1.0979840088e+02   -1.2717051697e+02
    1.0989820099e+02   -1.2725930023e+02
    1.0999800110e+02   -1.2734700775e+02
    1.1009790039e+02   -1.2743354797e+02
    1.1019789886e+02   -1.2751885986e+02
    1.1029789734e+02   -1.2760288239e+02
    1.1039800262e+02   -1.2768556976e+02
    1.1049810028e+02   -1.2776689148e+02
    1.1059860229e+02   -1.2784680176e+02
    1.1069850159e+02   -1.2792528534e+02
    1.1079879761e+02   -1.2800227356e+02
    1.1089800262e+02   -1.2807772827e+02
    1.1099829865e+02   -1.2815156555e+02
    1.1109870148e+02   -1.2822372437e+02
    1.1119779968e+02   -1.2829405212e+02
    1.1129830170e+02   -1.2836244202e+02
    1.1139810181e+02   -1.2842872620e+02
    1.1149759674e+02   -1.2849275208e+02
    1.1159770203e+02   -1.2855432129e+02
    1.1169770050e+02   -1.2861325073e+02
    1.1179830170e+02   -1.2866937256e+02
    1.1189810181e+02   -1.2872250366e+02
    1.1199849701e+02   -1.2877253723e+02
    1.1209780121e+02   -1.2881933594e+02
    1.1219770050e+02   -1.2886282349e+02
    1.1229879761e+02   -1.2890298462e+02
    1.1239839935e+02   -1.2893984985e+02
    1.1249859619e+02   -1.2897349548e+02
    1.1259809875e+02   -1.2900407410e+02
    1.1269770050e+02   -1.2903176880e+02
    1.1279869843e+02   -1.2905685425e+02
    1.1289880371e+02   -1.2907958984e+02
    1.1299870300e+02   -1.2910034180e+02
    1.1309860229e+02   -1.2911944580e+02
    1.1319750214e+02   -1.2913728333e+02
    1.1329820251e+02   -1.2915423584e+02
    1.1339810181e+02   -1.2917068481e+02
    1.1349780273e+02   -1.2918704224e+02
    1.1359880066e+02   -1.2920364380e+02
    1.1369819641e+02   -1.2922085571e+02
    1.1379750061e+02   -1.2923901367e+02
    1.1389869690e+02   -1.2925839233e+02
    1.1399839783e+02   -1.2927925110e+02
    1.1409739685e+02   -1.2930180359e+02
    1.1419789886e+02   -1.2932620239e+02
    1.1429859924e+02   -1.2935260010e+02
    1.1439820099e+02   -1.2938107300e+02
    1.1449800110e+02   -1.2941165161e+02
    1.1459809875e+02   -1.2944436646e+02
    1.1469760132e+02   -1.2947915649e+02
    1.1479750061e+02   -1.2951599121e+02
    1.1489800262e+02   -1.2955476379e+02
    1.1499810028e+02   -1.2959536743e+02
    1.1509829712e+02   -1.2963768005e+02
    1.1519819641e+02   -1.2968153381e+02
    1.1529840088e+02   -1.2972679138e+02
    1.1539849854e+02   -1.2977333069e+02
    1.1549870300e+02   -1.2982099915e+02
    1.1559780121e+02   -1.2986964417e+02
    1.1569830322e+02   -1.2991917419e+02
    1.1579859924e+02   -1.2996946716e+02
    1.1589880371e+02   -1.3002038574e+02
    1.1599880219e+02   -1.3007185364e+02
    1.1609860229e+02   -1.3012377930e+02
    1.1619830322e+02   -1.3017607117e+02
    1.1629799652e+02   -1.3022866821e+02
    1.1639749908e+02   -1.3028147888e+02
    1.1649829865e+02   -1.3033450317e+02
    1.1659819794e+02   -1.3038766479e+02
    1.1669770050e+02   -1.3044094849e+02
    1.1679850006e+02   -1.3049432373e+02
    1.1689800262e+02   -1.3054774475e+02
    1.1699749756e+02   -1.3060121155e+02
    1.1709839630e+02   -1.3065467834e+02
    1.1719779968e+02   -1.3070814514e+02
    1.1729869843e+02   -1.3076159668e+02
    1.1739820099e+02   -1.3081501770e+02
    1.1749770355e+02   -1.3086840820e+02
    1.1759799957e+02   -1.3092173767e+02
    1.1769830322e+02   -1.3097499084e+02
    1.1779859924e+02   -1.3102816772e+02
    1.1789749908e+02   -1.3108126831e+02
    1.1799770355e+02   -1.3113427734e+02
    1.1809799957e+02   -1.3118722534e+02
    1.1819830322e+02   -1.3124005127e+02
    1.1829859924e+02   -1.3129281616e+02
    1.1839759827e+02   -1.3134548950e+02
    1.1849790192e+02   -1.3139807129e+02
    1.1859829712e+02   -1.3145059204e+02
    1.1869869995e+02   -1.3150302124e+02
    1.1879779816e+02   -1.3155534363e+02
    1.1889769745e+02   -1.3160758972e+02
    1.1899829865e+02   -1.3165972900e+02
    1.1909809875e+02   -1.3171177673e+02
    1.1919819641e+02   -1.3176371765e+02
    1.1929840088e+02   -1.3181555176e+02
    1.1939810181e+02   -1.3186729431e+02
    1.1949829865e+02   -1.3191889954e+02
    1.1959860229e+02   -1.3197036743e+02
    1.1969779968e+02   -1.3202168274e+02
    1.1979820251e+02   -1.3207279968e+02
    1.1989810181e+02   -1.3212373352e+02
    1.1999819946e+02   -1.3217443848e+02
    1.2009850311e+02   -1.3222491455e+02
    1.2019750214e+02   -1.3227511597e+02
    1.2029799652e+02   -1.3232505798e+02
    1.2039859772e+02   -1.3237471008e+02
    1.2049770355e+02   -1.3242408752e+02
    1.2059739685e+02   -1.3247314453e+02
    1.2069770050e+02   -1.3252191162e+02
    1.2079799652e+02   -1.3257037354e+02
    1.2089810181e+02   -1.3261853027e+02
    1.2099810028e+02   -1.3266638184e+02
    1.2109750366e+02   -1.3271391296e+02
    1.2119779968e+02   -1.3276113892e+02
    1.2129850006e+02   -1.3280804443e+02
    1.2139800262e+02   -1.3285462952e+02
    1.2149800110e+02   -1.3290090942e+02
    1.2159860229e+02   -1.3294686890e+02
    1.2169770050e+02   -1.3299252319e+02
    1.2179810333e+02   -1.3303784180e+02
    1.2189849854e+02   -1.3308282471e+02
    1.2199870300e+02   -1.3312745667e+02
    1.2209780121e+02   -1.3317173767e+02
    1.2219809723e+02   -1.3321566772e+02
    1.2229820251e+02   -1.3325923157e+02
    1.2239730072e+02   -1.3330244446e+02
    1.2249729919e+02   -1.3334527588e+02
    1.2259850311e+02   -1.3338775635e+02
    1.2269850159e+02   -1.3342987061e+02
    1.2279850006e+02   -1.3347163391e+02
    1.2289849854e+02   -1.3351306152e+02
    1.2299849701e+02   -1.3355416870e+02
    1.2309780121e+02   -1.3359494019e+02
    1.2319730377e+02   -1.3363539124e+02
    1.2329810333e+02   -1.3367552185e+02
    1.2339739990e+02   -1.3371536255e+02
    1.2349800110e+02   -1.3375486755e+02
    1.2359839630e+02   -1.3379405212e+02
    1.2369770050e+02   -1.3383290100e+02
    1.2379840088e+02   -1.3387142944e+02
    1.2389749908e+02   -1.3390957642e+02
    1.2399839783e+02   -1.3394738770e+02
    1.2409809875e+02   -1.3398483276e+02
    1.2419730377e+02   -1.3402192688e+02
    1.2429850006e+02   -1.3405867004e+02
    1.2439820099e+02   -1.3409504700e+02
    1.2449780273e+02   -1.3413107300e+02
    1.2459750366e+02   -1.3416674805e+02
    1.2469809723e+02   -1.3420205688e+02
    1.2479759979e+02   -1.3423703003e+02
    1.2489849854e+02   -1.3427163696e+02
    1.2499800110e+02   -1.3430592346e+02
    1.2509750366e+02   -1.3433984375e+02
    1.2519860077e+02   -1.3437341309e+02
    1.2529820251e+02   -1.3440661621e+02
    1.2539800262e+02   -1.3443946838e+02
    1.2549780273e+02   -1.3447193909e+02
    1.2559770203e+02   -1.3450402832e+02
    1.2569860077e+02   -1.3453573608e+02
    1.2579799652e+02   -1.3456706238e+02
    1.2589730072e+02   -1.3459799194e+02
    1.2599800110e+02   -1.3462852478e+02
    1.2609729767e+02   -1.3465866089e+02
    1.2619830322e+02   -1.3468838501e+02
    1.2629789734e+02   -1.3471769714e+02
    1.2639820099e+02   -1.3474659729e+02
    1.2649800110e+02   -1.3477507019e+02
    1.2659750366e+02   -1.3480310059e+02
    1.2669819641e+02   -1.3483068848e+02
    1.2679759979e+02   -1.3485784912e+02
    1.2689830017e+02   -1.3488455200e+02
    1.2699770355e+02   -1.3491081238e+02
    1.2709839630e+02   -1.3493661499e+02
    1.2719779968e+02   -1.3496195984e+02
    1.2729730225e+02   -1.3498684692e+02
    1.2739820099e+02   -1.3501127625e+02
    1.2749790192e+02   -1.3503524780e+02
    1.2759760284e+02   -1.3505877686e+02
    1.2769809723e+02   -1.3508183289e+02
    1.2779820251e+02   -1.3510441589e+02
    1.2789800262e+02   -1.3512652588e+02
    1.2799720001e+02   -1.3514814758e+02
    1.2809770203e+02   -1.3516926575e+02
    1.2819810486e+02   -1.3518986511e+02
    1.2829730225e+02   -1.3520991516e+02
    1.2839729309e+02   -1.3522941589e+02
    1.2849740601e+02   -1.3524836731e+02
    1.2859770203e+02   -1.3526673889e+02
    1.2869830322e+02   -1.3528451538e+02
    1.2879750061e+02   -1.3530171204e+02
    1.2889830017e+02   -1.3531829834e+02
    1.2899809265e+02   -1.3533430481e+02
    1.2909739685e+02   -1.3534971619e+02
    1.2919799805e+02   -1.3536453247e+02
    1.2929739380e+02   -1.3537875366e+02
    1.2939830017e+02   -1.3539234924e+02
    1.2949760437e+02   -1.3540531921e+02
    1.2959860229e+02   -1.3541764832e+02
    1.2969819641e+02   -1.3542933655e+02
    1.2979800415e+02   -1.3544036865e+02
    1.2989840698e+02   -1.3545075989e+02
    1.2999740601e+02   -1.3546051025e+02
    1.3009750366e+02   -1.3546960449e+02
    1.3019749451e+02   -1.3547807312e+02
    1.3029739380e+02   -1.3548588562e+02
    1.3039849854e+02   -1.3549304199e+02
    1.3049819946e+02   -1.3549955750e+02
    1.3059770203e+02   -1.3550541687e+02
    1.3069850159e+02   -1.3551063538e+02
    1.3079800415e+02   -1.3551521301e+02
    1.3089759827e+02   -1.3551916504e+02
    1.3099819946e+02   -1.3552249146e+02
    1.3109770203e+02   -1.3552517700e+02
    1.3119810486e+02   -1.3552723694e+02
    1.3129859924e+02   -1.3552868652e+02
    1.3139759827e+02   -1.3552954102e+02
    1.3149850464e+02   -1.3552978516e+02
    1.3159750366e+02   -1.3552944946e+02
    1.3169810486e+02   -1.3552851868e+02
    1.3179879761e+02   -1.3552699280e+02
    1.3189880371e+02   -1.3552488708e+02
    1.3199760437e+02   -1.3552215576e+02
    1.3209770203e+02   -1.3551884460e+02
    1.3219779968e+02   -1.3551492310e+02
    1.3229780579e+02   -1.3551039124e+02
    1.3239770508e+02   -1.3550526428e+02
    1.3249879456e+02   -1.3549954224e+02
    1.3259840393e+02   -1.3549320984e+02
    1.3269790649e+02   -1.3548629761e+02
    1.3279840088e+02   -1.3547877502e+02
    1.3289880371e+02   -1.3547065735e+02
    1.3299850464e+02   -1.3546195984e+02
    1.3309770203e+02   -1.3545265198e+02
    1.3319830322e+02   -1.3544273376e+02
    1.3329870605e+02   -1.3543223572e+02
    1.3339759827e+02   -1.3542111206e+02
    1.3349879456e+02   -1.3540940857e+02
    1.3359770203e+02   -1.3539709473e+02
    1.3369880676e+02   -1.3538415527e+02
    1.3379879761e+02   -1.3537062073e+02
    1.3389889526e+02   -1.3535644531e+02
    1.3399890137e+02   -1.3534162903e+02
    1.3409759521e+02   -1.3532617188e+02
    1.3419779968e+02   -1.3531005859e+02
    1.3429809570e+02   -1.3529327393e+02
    1.3439799500e+02   -1.3527581787e+02
    1.3449800110e+02   -1.3525769043e+02
    1.3459809875e+02   -1.3523890686e+02
    1.3469859314e+02   -1.3521943665e+02
    1.3479760742e+02   -1.3519926453e+02
    1.3489860535e+02   -1.3517843628e+02
    1.3499819946e+02   -1.3515693665e+02
    1.3509880066e+02   -1.3513478088e+02
    1.3519830322e+02   -1.3511198425e+02
    1.3529780579e+02   -1.3508854675e+02
    1.3539869690e+02   -1.3506446838e+02
    1.3549830627e+02   -1.3503974915e+02
    1.3559790039e+02   -1.3501437378e+02
    1.3569900513e+02   -1.3498835754e+02
    1.3579870605e+02   -1.3496166992e+02
    1.3589849854e+02   -1.3493434143e+02
    1.3599830627e+02   -1.3490634155e+02
    1.3609809875e+02   -1.3487767029e+02
    1.3619799805e+02   -1.3484832764e+02
    1.3629780579e+02   -1.3481829834e+02
    1.3639900208e+02   -1.3478756714e+02
    1.3649890137e+02   -1.3475614929e+02
    1.3659880066e+02   -1.3472401428e+02
    1.3669889832e+02   -1.3469116211e+02
    1.3679800415e+02   -1.3465757751e+02
    1.3689830017e+02   -1.3462327576e+02
    1.3699809265e+02   -1.3458822632e+02
    1.3709790039e+02   -1.3455245972e+02
    1.3719799805e+02   -1.3451597595e+02
    1.3729789734e+02   -1.3447875977e+02
    1.3739909363e+02   -1.3444081116e+02
    1.3749879456e+02   -1.3440214539e+02
    1.3759829712e+02   -1.3436277771e+02
    1.3769920349e+02   -1.3432269287e+02
    1.3779849243e+02   -1.3428187561e+02
    1.3789900208e+02   -1.3424034119e+02
    1.3799789429e+02   -1.3419808960e+02
    1.3809809875e+02   -1.3415509033e+02
    1.3819810486e+02   -1.3411134338e+02
    1.3829800415e+02   -1.3406681824e+02
    1.3839790344e+02   -1.3402154541e+02
    1.3849890137e+02   -1.3397547913e+02
    1.3859899902e+02   -1.3392864990e+02
    1.3869819641e+02   -1.3388102722e+02
    1.3879879761e+02   -1.3383264160e+02
    1.3889799500e+02   -1.3378344727e+02
    1.3899859619e+02   -1.3373345947e+02
    1.3909910583e+02   -1.3368269348e+02
    1.3919819641e+02   -1.3363111877e+02
    1.3929829407e+02   -1.3357875061e+02
    1.3939909363e+02   -1.3352558899e+02
    1.3949800110e+02   -1.3347163391e+02
    1.3959829712e+02   -1.3341687012e+02
    1.3969839478e+02   -1.3336132812e+02
    1.3979800415e+02   -1.3330499268e+02
    1.3989889526e+02   -1.3324786377e+02
    1.3999859619e+02   -1.3318995667e+02
    1.4009840393e+02   -1.3313127136e+02
    1.4019819641e+02   -1.3307180786e+02
    1.4029809570e+02   -1.3301156616e+02
    1.4039810181e+02   -1.3295059204e+02
    1.4049830627e+02   -1.3288885498e+02
    1.4059869385e+02   -1.3282637024e+02
    1.4069920349e+02   -1.3276313782e+02
    1.4079849243e+02   -1.3269917297e+02
    1.4089930725e+02   -1.3263447571e+02
    1.4099890137e+02   -1.3256903076e+02
    1.4109869385e+02   -1.3250285339e+02
    1.4119869995e+02   -1.3243595886e+02
    1.4129879761e+02   -1.3236831665e+02
    1.4139900208e+02   -1.3229994202e+02
    1.4149890137e+02   -1.3223083496e+02
    1.4159880066e+02   -1.3216101074e+02
    1.4169869995e+02   -1.3209046936e+02
    1.4179840088e+02   -1.3201922607e+02
    1.4189810181e+02   -1.3194726562e+02
    1.4199909973e+02   -1.3187460327e+02
    1.4209820557e+02   -1.3180122375e+02
    1.4219889832e+02   -1.3172712708e+02
    1.4229899597e+02   -1.3165232849e+02
    1.4239920044e+02   -1.3157681274e+02
    1.4249819946e+02   -1.3150061035e+02
    1.4259849548e+02   -1.3142369080e+02
    1.4269889832e+02   -1.3134605408e+02
    1.4279829407e+02   -1.3126771545e+02
    1.4289880371e+02   -1.3118865967e+02
    1.4299909973e+02   -1.3110890198e+02
    1.4309820557e+02   -1.3102841187e+02
    1.4319869995e+02   -1.3094720459e+02
    1.4329930115e+02   -1.3086526489e+02
    1.4339849854e+02   -1.3078262329e+02
    1.4349920654e+02   -1.3069926453e+02
    1.4359860229e+02   -1.3061520386e+02
    1.4369940186e+02   -1.3053042603e+02
    1.4379829407e+02   -1.3044493103e+02
    1.4389840698e+02   -1.3035871887e+02
    1.4399890137e+02   -1.3027178955e+02
    1.4409829712e+02   -1.3018411255e+02
    1.4419869995e+02   -1.3009571838e+02
    1.4429849243e+02   -1.3000657654e+02
    1.4439909363e+02   -1.2991671753e+02
    1.4449879456e+02   -1.2982612610e+02
    1.4459890747e+02   -1.2973481750e+02
    1.4469960022e+02   -1.2964279175e+02
    1.4479910278e+02   -1.2955004883e+02
    1.4489880371e+02   -1.2945658875e+02
    1.4499850464e+02   -1.2936241150e+02
    1.4509849548e+02   -1.2926750183e+02
    1.4519859314e+02   -1.2917187500e+02
    1.4529879761e+02   -1.2907553101e+02
    1.4539909363e+02   -1.2897848511e+02
    1.4549949646e+02   -1.2888072205e+02
    1.4559869385e+02   -1.2878225708e+02
    1.4569940186e+02   -1.2868305969e+02
    1.4579870605e+02   -1.2858312988e+02
    1.4589950562e+02   -1.2848246765e+02
    1.4599920654e+02   -1.2838107300e+02
    1.4609880066e+02   -1.2827894592e+02
    1.4619830322e+02   -1.2817605591e+02
    1.4629890442e+02   -1.2807241821e+02
    1.4639909363e+02   -1.2796800995e+02
    1.4649870300e+02   -1.2786282349e+02
    1.4659840393e+02   -1.2775685883e+02
    1.4669889832e+02   -1.2765010834e+02
    1.4679930115e+02   -1.2754254150e+02
    1.4689959717e+02   -1.2743417358e+02
    1.4699839783e+02   -1.2732500458e+02
    1.4709860229e+02   -1.2721501923e+02
    1.4719909668e+02   -1.2710421753e+02
    1.4729859924e+02   -1.2699261475e+02
    1.4739869690e+02   -1.2688019562e+02
    1.4749870300e+02   -1.2676699066e+02
    1.4759869385e+02   -1.2665300751e+02
    1.4769880676e+02   -1.2653824615e+02
    1.4779890442e+02   -1.2642269897e+02
    1.4789970398e+02   -1.2630637360e+02
    1.4799940491e+02   -1.2618929291e+02
    1.4809919739e+02   -1.2607141876e+02
    1.4819900513e+02   -1.2595277405e+02
    1.4829890442e+02   -1.2583335114e+02
    1.4839889526e+02   -1.2571315002e+02
    1.4849890137e+02   -1.2559216309e+02
    1.4859910583e+02   -1.2547041321e+02
    1.4869940186e+02   -1.2534791565e+02
    1.4879980469e+02   -1.2522466278e+02
    1.4889909363e+02   -1.2510067749e+02
    1.4899989319e+02   -1.2497595978e+02
    1.4909950256e+02   -1.2485052490e+02
    1.4919929504e+02   -1.2472437286e+02
    1.4929930115e+02   -1.2459751129e+02
    1.4939959717e+02   -1.2446995544e+02
    1.4949870300e+02   -1.2434170532e+02
    1.4959950256e+02   -1.2421275330e+02
    1.4969909668e+02   -1.2408309937e+02
    1.4979899597e+02   -1.2395275879e+02
    1.4989920044e+02   -1.2382171631e+02
    1.4999960327e+02   -1.2368997955e+02
    1.5009890747e+02   -1.2355754089e+02
    1.5019960022e+02   -1.2342440796e+02
    1.5029870605e+02   -1.2329058838e+02
    1.5039900208e+02   -1.2315608978e+02
    1.5049870300e+02   -1.2302090454e+02
    1.5059910583e+02   -1.2288504028e+02
    1.5069900513e+02   -1.2274850464e+02
    1.5079939270e+02   -1.2261129761e+02
    1.5089880371e+02   -1.2247341919e+02
    1.5100000000e+02   -1.2233489227e+02
    1.5109919739e+02   -1.2219571686e+02
    1.5119940186e+02   -1.2205591583e+02
    1.5129980469e+02   -1.2191548157e+02
    1.5139869690e+02   -1.2177443695e+02
    1.5149899292e+02   -1.2163277435e+02
    1.5159939575e+02   -1.2149049377e+02
    1.5169990540e+02   -1.2134761810e+02
    1.5179919434e+02   -1.2120413971e+02
    1.5189950562e+02   -1.2106005859e+02
    1.5200000000e+02   -1.2091537476e+02
    1.5209930420e+02   -1.2077008057e+02
    1.5219869995e+02   -1.2062416840e+02
    1.5229960632e+02   -1.2047763824e+02
    1.5239959717e+02   -1.2033048248e+02
    1.5249960327e+02   -1.2018270111e+02
    1.5259979248e+02   -1.2003427124e+02
    1.5269880676e+02   -1.1988520050e+02
    1.5279939270e+02   -1.1973547363e+02
    1.5290010071e+02   -1.1958509827e+02
    1.5299909973e+02   -1.1943404388e+02
    1.5309919739e+02   -1.1928232574e+02
    1.5319909668e+02   -1.1912993622e+02
    1.5329910278e+02   -1.1897686005e+02
    1.5339950562e+02   -1.1882310486e+02
    1.5349870300e+02   -1.1866866302e+02
    1.5359950256e+02   -1.1851353455e+02
    1.5370010376e+02   -1.1835774231e+02
    1.5379930115e+02   -1.1820129395e+02
    1.5390010071e+02   -1.1804418945e+02
    1.5400000000e+02   -1.1788644409e+02
    1.5409989929e+02   -1.1772805023e+02
    1.5419999695e+02   -1.1756901550e+02
    1.5429969788e+02   -1.1740935516e+02
    1.5439950562e+02   -1.1724905396e+02
    1.5449890137e+02   -1.1708810425e+02
    1.5459930420e+02   -1.1692652130e+02
    1.5469979858e+02   -1.1676427460e+02
    1.5479899597e+02   -1.1660137177e+02
    1.5489970398e+02   -1.1643781281e+02
    1.5499899292e+02   -1.1627360535e+02
    1.5509899902e+02   -1.1610873413e+02
    1.5520019531e+02   -1.1594322205e+02
    1.5529899597e+02   -1.1577708435e+02
    1.5540010071e+02   -1.1561032867e+02
    1.5549989319e+02   -1.1544296265e+02
    1.5559970093e+02   -1.1527498627e+02
    1.5570019531e+02   -1.1510641479e+02
    1.5579910278e+02   -1.1493724060e+02
    1.5589979553e+02   -1.1476746368e+02
    1.5600010681e+02   -1.1459707642e+02
    1.5609880066e+02   -1.1442606354e+02
    1.5619920349e+02   -1.1425442505e+02
    1.5629960632e+02   -1.1408215332e+02
    1.5640010071e+02   -1.1390924835e+02
    1.5649909973e+02   -1.1373570251e+02
    1.5659979248e+02   -1.1356151581e+02
    1.5669920349e+02   -1.1338670349e+02
    1.5679960632e+02   -1.1321127319e+02
    1.5689909363e+02   -1.1303522491e+02
    1.5700030518e+02   -1.1285857391e+02
    1.5710000610e+02   -1.1268132782e+02
    1.5719979858e+02   -1.1250349426e+02
    1.5729980469e+02   -1.1232508850e+02
    1.5739999390e+02   -1.1214611816e+02
    1.5750039673e+02   -1.1196658325e+02
    1.5759959412e+02   -1.1178649902e+02
    1.5769900513e+02   -1.1160586548e+02
    1.5780009460e+02   -1.1142469025e+02
    1.5790010071e+02   -1.1124298096e+02
    1.5800010681e+02   -1.1106075287e+02
    1.5810009766e+02   -1.1087801361e+02
    1.5820010376e+02   -1.1069476318e+02
    1.5830009460e+02   -1.1051100922e+02
    1.5839990234e+02   -1.1032675171e+02
    1.5849980164e+02   -1.1014199829e+02
    1.5859950256e+02   -1.0995674896e+02
    1.5869909668e+02   -1.0977101135e+02
    1.5880000305e+02   -1.0958479309e+02
    1.5889950562e+02   -1.0939810944e+02
    1.5900019836e+02   -1.0921094513e+02
    1.5909939575e+02   -1.0902331543e+02
    1.5920050049e+02   -1.0883521271e+02
    1.5929910278e+02   -1.0864663696e+02
    1.5939959717e+02   -1.0845758820e+02
    1.5950010681e+02   -1.0826808167e+02
    1.5959899902e+02   -1.0807810974e+02
    1.5969960022e+02   -1.0788768768e+02
    1.5980009460e+02   -1.0769680786e+02
    1.5989930725e+02   -1.0750549316e+02
    1.6000010681e+02   -1.0731374359e+02
    1.6010009766e+02   -1.0712157440e+02
    1.6019999695e+02   -1.0692898560e+02
    1.6030020142e+02   -1.0673597717e+02
    1.6040040588e+02   -1.0654254150e+02
    1.6050050354e+02   -1.0634868622e+02
    1.6060049438e+02   -1.0615440369e+02
    1.6069960022e+02   -1.0595969391e+02
    1.6079930115e+02   -1.0576454926e+02
    1.6090040588e+02   -1.0556896973e+02
    1.6100010681e+02   -1.0537295532e+02
    1.6109959412e+02   -1.0517649841e+02
    1.6119999695e+02   -1.0497959137e+02
    1.6130020142e+02   -1.0478224945e+02
    1.6140060425e+02   -1.0458446503e+02
    1.6149980164e+02   -1.0438624573e+02
    1.6160060120e+02   -1.0418757629e+02
    1.6170010376e+02   -1.0398846436e+02
    1.6179969788e+02   -1.0378890228e+02
    1.6189939880e+02   -1.0358888245e+02
    1.6199929810e+02   -1.0338839722e+02
    1.6209939575e+02   -1.0318746185e+02
    1.6219960022e+02   -1.0298607635e+02
    1.6229989624e+02   -1.0278424072e+02
    1.6240029907e+02   -1.0258197784e+02
    1.6249929810e+02   -1.0237928009e+02
    1.6259979248e+02   -1.0217617035e+02
    1.6270039368e+02   -1.0197265625e+02
    1.6279939270e+02   -1.0176875305e+02
    1.6289999390e+02   -1.0156445312e+02
    1.6300070190e+02   -1.0135977173e+02
    1.6309979248e+02   -1.0115470886e+02
    1.6320050049e+02   -1.0094929504e+02
    1.6329980469e+02   -1.0074351501e+02
    1.6340060425e+02   -1.0053739166e+02
    1.6349989319e+02   -1.0033092499e+02
    1.6360069275e+02   -1.0012412262e+02
    1.6369999695e+02   -9.9916976929e+01
    1.6380059814e+02   -9.9709480286e+01
    1.6389990234e+02   -9.9501647949e+01
    1.6399929810e+02   -9.9293472290e+01
    1.6410020447e+02   -9.9084938049e+01
    1.6419960022e+02   -9.8876068115e+01
    1.6430050659e+02   -9.8666839600e+01
    1.6439990234e+02   -9.8457260132e+01
    1.6450070190e+02   -9.8247337341e+01
    1.6460000610e+02   -9.8037071228e+01
    1.6469990540e+02   -9.7826454163e+01
    1.6480020142e+02   -9.7615509033e+01
    1.6489970398e+02   -9.7404235840e+01
    1.6500079346e+02   -9.7192665100e+01
    1.6510000610e+02   -9.6980789185e+01
    1.6519999695e+02   -9.6768630981e+01
    1.6529989624e+02   -9.6556198120e+01
    1.6539970398e+02   -9.6343482971e+01
    1.6550079346e+02   -9.6130500793e+01
    1.6560040283e+02   -9.5917251587e+01
    1.6570050049e+02   -9.5703735352e+01
    1.6580070496e+02   -9.5489952087e+01
    1.6589939880e+02   -9.5275924683e+01
    1.6599969482e+02   -9.5061645508e+01
    1.6610020447e+02   -9.4847137451e+01
    1.6620069885e+02   -9.4632408142e+01
    1.6629980469e+02   -9.4417465210e+01
    1.6640049744e+02   -9.4202339172e+01
    1.6649980164e+02   -9.3987030029e+01
    1.6660069275e+02   -9.3771560669e+01
    1.6669999695e+02   -9.3555931091e+01
    1.6680000305e+02   -9.3340148926e+01
    1.6689990234e+02   -9.3124229431e+01
    1.6699980164e+02   -9.2908157349e+01
    1.6709970093e+02   -9.2691955566e+01
    1.6720100403e+02   -9.2475624084e+01
    1.6730070496e+02   -9.2259162903e+01
    1.6740040588e+02   -9.2042572021e+01
    1.6750010681e+02   -9.1825866699e+01
    1.6760029602e+02   -9.1609039307e+01
    1.6770069885e+02   -9.1392097473e+01
    1.6780020142e+02   -9.1175033569e+01
    1.6789979553e+02   -9.0957847595e+01
    1.6800079346e+02   -9.0740539551e+01
    1.6810029602e+02   -9.0523101807e+01
    1.6820060730e+02   -9.0305549622e+01
    1.6829969788e+02   -9.0087875366e+01
    1.6840100098e+02   -8.9870086670e+01
    1.6850059509e+02   -8.9652183533e+01
    1.6860020447e+02   -8.9434165955e+01
    1.6869970703e+02   -8.9216018677e+01
    1.6880070496e+02   -8.8997749329e+01
    1.6890010071e+02   -8.8779357910e+01
    1.6900100708e+02   -8.8560829163e+01
    1.6910060120e+02   -8.8342170715e+01
    1.6920100403e+02   -8.8123382568e+01
    1.6930039978e+02   -8.7904479980e+01
    1.6939970398e+02   -8.7685447693e+01
    1.6950050354e+02   -8.7466285706e+01
    1.6959970093e+02   -8.7247009277e+01
    1.6970030212e+02   -8.7027618408e+01
    1.6980079651e+02   -8.6808113098e+01
    1.6989979553e+02   -8.6588500977e+01
    1.7000010681e+02   -8.6368782043e+01
    1.7010040283e+02   -8.6148979187e+01
    1.7020060730e+02   -8.5929092407e+01
    1.7030070496e+02   -8.5709136963e+01
    1.7040069580e+02   -8.5489128113e+01
    1.7050050354e+02   -8.5269081116e+01
    1.7060020447e+02   -8.5049011230e+01
    1.7069979858e+02   -8.4828933716e+01
    1.7080070496e+02   -8.4608856201e+01
    1.7089999390e+02   -8.4388793945e+01
    1.7100090027e+02   -8.4168746948e+01
    1.7110119629e+02   -8.3948730469e+01
    1.7119990540e+02   -8.3728752136e+01
    1.7130000305e+02   -8.3508804321e+01
    1.7139999390e+02   -8.3288887024e+01
    1.7150000000e+02   -8.3069007874e+01
    1.7159989929e+02   -8.2849166870e+01
    1.7170030212e+02   -8.2629364014e+01
    1.7180020142e+02   -8.2409599304e+01
    1.7189999390e+02   -8.2189872742e+01
    1.7199989319e+02   -8.1970191956e+01
    1.7210119629e+02   -8.1750556946e+01
    1.7220109558e+02   -8.1530990601e+01
    1.7230119324e+02   -8.1311485291e+01
    1.7240040588e+02   -8.1092063904e+01
    1.7250030518e+02   -8.0872734070e+01
    1.7260020447e+02   -8.0653511047e+01
    1.7270010376e+02   -8.0434394836e+01
    1.7280000305e+02   -8.0215400696e+01
    1.7289990234e+02   -7.9996528625e+01
    1.7300120544e+02   -7.9777801514e+01
    1.7310079956e+02   -7.9559219360e+01
    1.7320030212e+02   -7.9340797424e+01
    1.7330110168e+02   -7.9122535706e+01
    1.7340029907e+02   -7.8904441833e+01
    1.7350079346e+02   -7.8686531067e+01
    1.7360110474e+02   -7.8468803406e+01
    1.7370129395e+02   -7.8251251221e+01
    1.7380130005e+02   -7.8033889771e+01
    1.7390130615e+02   -7.7816741943e+01
    1.7400109863e+02   -7.7599800110e+01
    1.7410079956e+02   -7.7383079529e+01
    1.7419999695e+02   -7.7166580200e+01
    1.7430110168e+02   -7.6950317383e+01
    1.7440069580e+02   -7.6734291077e+01
    1.7450030518e+02   -7.6518501282e+01
    1.7460139465e+02   -7.6302963257e+01
    1.7470109558e+02   -7.6087677002e+01
    1.7480099487e+02   -7.5872642517e+01
    1.7490089417e+02   -7.5657867432e+01
    1.7500090027e+02   -7.5443367004e+01
    1.7510099792e+02   -7.5229148865e+01
    1.7520109558e+02   -7.5015235901e+01
    1.7530130005e+02   -7.4801635742e+01
    1.7540010071e+02   -7.4588363647e+01
    1.7550030518e+02   -7.4375434875e+01
    1.7560049438e+02   -7.4162864685e+01
    1.7570069885e+02   -7.3950668335e+01
    1.7580070496e+02   -7.3738853455e+01
    1.7590060425e+02   -7.3527420044e+01
    1.7600030518e+02   -7.3316352844e+01
    1.7610119629e+02   -7.3105636597e+01
    1.7620039368e+02   -7.2895233154e+01
    1.7630070496e+02   -7.2685066223e+01
    1.7640069580e+02   -7.2475074768e+01
    1.7650039673e+02   -7.2265151978e+01
    1.7660119629e+02   -7.2055183411e+01
    1.7670019531e+02   -7.1845031738e+01
    1.7680039978e+02   -7.1634529114e+01
    1.7690020752e+02   -7.1423530579e+01
    1.7700109863e+02   -7.1211853027e+01
    1.7710040283e+02   -7.0999320984e+01
    1.7720080566e+02   -7.0785781860e+01
    1.7730090332e+02   -7.0571060181e+01
    1.7740080261e+02   -7.0355041504e+01
    1.7750050354e+02   -7.0137641907e+01
    1.7760130310e+02   -6.9918846130e+01
    1.7770060730e+02   -6.9698730469e+01
    1.7780110168e+02   -6.9477462769e+01
    1.7790159607e+02   -6.9255355835e+01
    1.7800050354e+02   -6.9032867432e+01
    1.7810069275e+02   -6.8810623169e+01
    1.7820089722e+02   -6.8589454651e+01
    1.7830099487e+02   -6.8370407104e+01
    1.7840109253e+02   -6.8154754639e+01
    1.7850109863e+02   -6.7943992615e+01
    1.7860169983e+02   -6.7739830017e+01
    1.7870089722e+02   -6.7544166565e+01
    1.7880160522e+02   -6.7359054565e+01
    1.7890089417e+02   -6.7186645508e+01
    1.7900030518e+02   -6.7029075623e+01
    1.7910130310e+02   -6.6888389587e+01
    1.7920080566e+02   -6.6766403198e+01
    1.7930050659e+02   -6.6664527893e+01
    1.7940159607e+02   -6.6583564758e+01
    1.7950129700e+02   -6.6523513794e+01
    1.7960099792e+02   -6.6483276367e+01
    1.7970060730e+02   -6.6460433960e+01
    1.7980160522e+02   -6.6450973511e+01
    1.7990109253e+02   -6.6448966980e+01
endcurve
