Curveplot
LS-DYNA keyword deck by LS-PrePost
Abscissa
Ordinate
XY data
NBDLHeadzCoo-1 #pts=2000
* Minval=    -6.6597000122e+01 at time=       199.9024963379
* Maxval=     1.5358110046e+02 at time=         0.0000000000
    0.0000000000e+00    1.5358110046e+02
    9.8665714264e-02    1.5358110046e+02
    1.9887307286e-01    1.5358110046e+02
    2.9908046126e-01    1.5358110046e+02
    3.9928781986e-01    1.5358110046e+02
    4.9949517846e-01    1.5358110046e+02
    5.9970253706e-01    1.5358110046e+02
    6.9990992546e-01    1.5358110046e+02
    7.9857563972e-01    1.5358110046e+02
    8.9878296852e-01    1.5358110046e+02
    9.9899035692e-01    1.5358110046e+02
    1.0991977453e+00    1.5358110046e+02
    1.1994050741e+00    1.5358110046e+02
    1.2996125221e+00    1.5358110046e+02
    1.3998198509e+00    1.5358110046e+02
    1.4984854460e+00    1.5358110046e+02
    1.5986928940e+00    1.5358110046e+02
    1.6989003420e+00    1.5358110046e+02
    1.7991075516e+00    1.5358110046e+02
    1.8993149996e+00    1.5358110046e+02
    1.9995224476e+00    1.5358110046e+02
    2.0997297764e+00    1.5358110046e+02
    2.1988718510e+00    1.5358110046e+02
    2.2988712788e+00    1.5358110046e+02
    2.3984723091e+00    1.5358110046e+02
    2.4986445904e+00    1.5358110046e+02
    2.5998818874e+00    1.5358110046e+02
    2.6987984180e+00    1.5358110046e+02
    2.7989702225e+00    1.5358110046e+02
    2.8992376328e+00    1.5358110046e+02
    2.9985520840e+00    1.5358110046e+02
    3.0997893810e+00    1.5358110046e+02
    3.1996753216e+00    1.5358110046e+02
    3.2991802692e+00    1.5358110046e+02
    3.3993523121e+00    1.5358110046e+02
    3.4992382526e+00    1.5358110046e+02
    3.5988385677e+00    1.5358110046e+02
    3.6992011070e+00    1.5358110046e+02
    3.7990875244e+00    1.5358110046e+02
    3.8996403217e+00    1.5358110046e+02
    3.9992403984e+00    1.5358110046e+02
    4.0989356041e+00    1.5358110046e+02
    4.1984410286e+00    1.5358110046e+02
    4.2988033295e+00    1.5358110046e+02
    4.3986892700e+00    1.5358110046e+02
    4.4988613129e+00    1.5358110046e+02
    4.5999078751e+00    1.5358110046e+02
    4.6996979713e+00    1.5358110046e+02
    4.7998700142e+00    1.5358110046e+02
    4.8998508453e+00    1.5358110046e+02
    4.9996414185e+00    1.5358110046e+02
    5.0991458893e+00    1.5358110046e+02
    5.1991271973e+00    1.5358110046e+02
    5.2985196114e+00    1.5358110046e+02
    5.3997554779e+00    1.5358110046e+02
    5.4993553162e+00    1.5358110046e+02
    5.5994138718e+00    1.5358110046e+02
    5.6985373497e+00    1.5358110046e+02
    5.7992801666e+00    1.5358110046e+02
    5.8996419907e+00    1.5358110046e+02
    5.9992418289e+00    1.5358110046e+02
    6.0984601974e+00    1.5358110046e+02
    6.1998877525e+00    1.5358110046e+02
    6.2998690605e+00    1.5358110046e+02
    6.3993563652e+00    1.5358110046e+02
    6.4984636307e+00    1.5358110046e+02
    6.5987305641e+00    1.5358110046e+02
    6.6990933418e+00    1.5358110046e+02
    6.7999496460e+00    1.5358110046e+02
    6.8999309540e+00    1.5358110046e+02
    6.9997220039e+00    1.5358110046e+02
    7.0999894142e+00    1.5358110046e+02
    7.1998758316e+00    1.5358110046e+02
    7.2990779877e+00    1.5358110046e+02
    7.3984708786e+00    1.5358110046e+02
    7.4994225502e+00    1.5358110046e+02
    7.5994997025e+00    1.5358110046e+02
    7.6994819641e+00    1.5358110046e+02
    7.7989873886e+00    1.5358110046e+02
    7.8987789154e+00    1.5358110046e+02
    7.9998264313e+00    1.5358110046e+02
    8.0983619690e+00    1.5358110046e+02
    8.1996946335e+00    1.5358110046e+02
    8.2989139557e+00    1.5358110046e+02
    8.3985929489e+00    1.5358110046e+02
    8.4986877441e+00    1.5358110046e+02
    8.5996398926e+00    1.5358110046e+02
    8.6998128891e+00    1.5358110046e+02
    8.7999858856e+00    1.5358110046e+02
    8.8992843628e+00    1.5358110046e+02
    8.9990758896e+00    1.5358110046e+02
    9.0995340347e+00    1.5358110046e+02
    9.1998023987e+00    1.5358110046e+02
    9.2987365723e+00    1.5358110046e+02
    9.3990049362e+00    1.5358110046e+02
    9.4993686676e+00    1.5358110046e+02
    9.5992555618e+00    1.5358110046e+02
    9.6999044418e+00    1.5358110046e+02
    9.7989168167e+00    1.5358110046e+02
    9.8988037109e+00    1.5358110046e+02
    9.9993572235e+00    1.5358110046e+02
    1.0099148750e+01    1.5358110046e+02
    1.0199892998e+01    1.5358110046e+02
    1.0299876213e+01    1.5358110046e+02
    1.0398887634e+01    1.5358110046e+02
    1.0499745369e+01    1.5358110046e+02
    1.0598567009e+01    1.5358110046e+02
    1.0699043274e+01    1.5358110046e+02
    1.0799215317e+01    1.5358110046e+02
    1.0898418427e+01    1.5358110046e+02
    1.0999464989e+01    1.5358110046e+02
    1.1099923134e+01    1.5358110046e+02
    1.1199143410e+01    1.5358110046e+02
    1.1298744202e+01    1.5358110046e+02
    1.1398803711e+01    1.5358110046e+02
    1.1499262810e+01    1.5358110046e+02
    1.1599149704e+01    1.5358110046e+02
    1.1699513435e+01    1.5358110046e+02
    1.1799304962e+01    1.5358110046e+02
    1.1898905754e+01    1.5358110046e+02
    1.1999460220e+01    1.5358110046e+02
    1.2098395348e+01    1.5358110046e+02
    1.2198852539e+01    1.5358110046e+02
    1.2299996376e+01    1.5358110046e+02
    1.2398721695e+01    1.5358110046e+02
    1.2498895645e+01    1.5358110046e+02
    1.2599450111e+01    1.5358110046e+02
    1.2699909210e+01    1.5358110046e+02
    1.2799128532e+01    1.5358110046e+02
    1.2899873734e+01    1.5358110046e+02
    1.2998887062e+01    1.5358110046e+02
    1.3099840164e+01    1.5358110046e+02
    1.3198947906e+01    1.5358110046e+02
    1.3299519539e+01    1.5358110046e+02
    1.3399787903e+01    1.5358110046e+02
    1.3499771118e+01    1.5358110046e+02
    1.3599563599e+01    1.5358110046e+02
    1.3699642181e+01    1.5358110046e+02
    1.3799719810e+01    1.5358110046e+02
    1.3899703026e+01    1.5358110046e+02
    1.3998907089e+01    1.5358110046e+02
    1.4098604202e+01    1.5358110046e+02
    1.4198681831e+01    1.5358110046e+02
    1.4299730301e+01    1.5358110046e+02
    1.4399427414e+01    1.5358110046e+02
    1.4499791145e+01    1.5358110046e+02
    1.4599868774e+01    1.5358110046e+02
    1.4698596001e+01    1.5358110046e+02
    1.4798483849e+01    1.5358110046e+02
    1.4899340630e+01    1.5358110046e+02
    1.4999608994e+01    1.5358110046e+02
    1.5098622322e+01    1.5358110046e+02
    1.5199668884e+01    1.5358110046e+02
    1.5298492432e+01    1.5358110046e+02
    1.5398777962e+01    1.5358110046e+02
    1.5498950958e+01    1.5358110046e+02
    1.5599314690e+01    1.5358009338e+02
    1.5699107170e+01    1.5358009338e+02
    1.5799566269e+01    1.5358009338e+02
    1.5899264336e+01    1.5358009338e+02
    1.5999627113e+01    1.5358009338e+02
    1.6098831177e+01    1.5358009338e+02
    1.6199005127e+01    1.5358009338e+02
    1.6298797607e+01    1.5358009338e+02
    1.6398590088e+01    1.5358009338e+02
    1.6499923706e+01    1.5358009338e+02
    1.6598842621e+01    1.5358009338e+02
    1.6698730469e+01    1.5358009338e+02
    1.6798635483e+01    1.5358009338e+02
    1.6899572372e+01    1.5358009338e+02
    1.6998983383e+01    1.5358009338e+02
    1.7099729538e+01    1.5358009338e+02
    1.7198856354e+01    1.5358009338e+02
    1.7298744202e+01    1.5358009338e+02
    1.7399110794e+01    1.5358009338e+02
    1.7499380112e+01    1.5358009338e+02
    1.7599460602e+01    1.5358009338e+02
    1.7698665619e+01    1.5358009338e+02
    1.7799619675e+01    1.5358009338e+02
    1.7899984360e+01    1.5358009338e+02
    1.7999380112e+01    1.5358009338e+02
    1.8098699570e+01    1.5358009338e+02
    1.8199445724e+01    1.5358009338e+02
    1.8299146652e+01    1.5358009338e+02
    1.8399415970e+01    1.5358009338e+02
    1.8499782562e+01    1.5358009338e+02
    1.8598512650e+01    1.5358009338e+02
    1.8698783875e+01    1.5358009338e+02
    1.8799339294e+01    1.5358009338e+02
    1.8899515152e+01    1.5358009338e+02
    1.8999977112e+01    1.5358009338e+02
    1.9098707199e+01    1.5358009338e+02
    1.9199567795e+01    1.5358009338e+02
    1.9299743652e+01    1.5358009338e+02
    1.9399822235e+01    1.5358009338e+02
    1.9499904633e+01    1.5358009338e+02
    1.9599014282e+01    1.5358009338e+02
    1.9699096680e+01    1.5358009338e+02
    1.9799081802e+01    1.5358009338e+02
    1.9898685455e+01    1.5358009338e+02
    2.0000022888e+01    1.5358009338e+02
    2.0099323273e+01    1.5358009338e+02
    2.0199214935e+01    1.5358009338e+02
    2.0299676895e+01    1.5358009338e+02
    2.0398979187e+01    1.5358009338e+02
    2.0499250412e+01    1.5358009338e+02
    2.0598760605e+01    1.5358009338e+02
    2.0699985504e+01    1.5358009338e+02
    2.0799400330e+01    1.5358009338e+02
    2.0899387360e+01    1.5358009338e+02
    2.0999183655e+01    1.5358009338e+02
    2.1098882675e+01    1.5358009338e+02
    2.1199726105e+01    1.5358009338e+02
    2.1299999237e+01    1.5358009338e+02
    2.1398824692e+01    1.5358009338e+02
    2.1499002457e+01    1.5358009338e+02
    2.1599290848e+01    1.5358009338e+02
    2.1699657440e+01    1.5358009338e+02
    2.1799358368e+01    1.5358009338e+02
    2.1899648666e+01    1.5358009338e+02
    2.1998664856e+01    1.5358009338e+02
    2.2099699020e+01    1.5358009338e+02
    2.2199209213e+01    1.5358009338e+02
    2.2299577713e+01    1.5358009338e+02
    2.2398784637e+01    1.5358009338e+02
    2.2498865128e+01    1.5358009338e+02
    2.2599822998e+01    1.5358009338e+02
    2.2699314117e+01    1.5358009338e+02
    2.2799398422e+01    1.5358009338e+02
    2.2898527145e+01    1.5358009338e+02
    2.2998800278e+01    1.5358009338e+02
    2.3099454880e+01    1.5358009338e+02
    2.3199726105e+01    1.5358009338e+02
    2.3299697876e+01    1.5357910156e+02
    2.3398826599e+01    1.5357910156e+02
    2.3499689102e+01    1.5357910156e+02
    2.3599468231e+01    1.5357910156e+02
    2.3699758530e+01    1.5357910156e+02
    2.3800031662e+01    1.5357910156e+02
    2.3900037766e+01    1.5357910156e+02
    2.3998559952e+01    1.5357910156e+02
    2.4099214554e+01    1.5357910156e+02
    2.4199409485e+01    1.5357910156e+02
    2.4299970627e+01    1.5357910156e+02
    2.4400053024e+01    1.5357910156e+02
    2.4499355316e+01    1.5357910156e+02
    2.4599630356e+01    1.5357910156e+02
    2.4698837280e+01    1.5357910156e+02
    2.4799112320e+01    1.5357910156e+02
    2.4899385452e+01    1.5357910156e+02
    2.4998611450e+01    1.5357910156e+02
    2.5099855423e+01    1.5357910156e+02
    2.5199922562e+01    1.5357910156e+02
    2.5298957825e+01    1.5357910156e+02
    2.5399534225e+01    1.5357910156e+02
    2.5499219894e+01    1.5357910156e+02
    2.5599988937e+01    1.5357910156e+02
    2.5699499130e+01    1.5357910156e+02
    2.5798820496e+01    1.5357910156e+02
    2.5898904800e+01    1.5357910156e+02
    2.5999734879e+01    1.5357910156e+02
    2.6098674774e+01    1.5357910156e+02
    2.6198568344e+01    1.5357910156e+02
    2.6298635483e+01    1.5357910156e+02
    2.6398736954e+01    1.5357910156e+02
    2.6499679565e+01    1.5357910156e+02
    2.6600049973e+01    1.5357910156e+02
    2.6700056076e+01    1.5357910156e+02
    2.6799932480e+01    1.5357809448e+02
    2.6899255753e+01    1.5357809448e+02
    2.6999530792e+01    1.5357809448e+02
    2.7099901199e+01    1.5357809448e+02
    2.7198444366e+01    1.5357809448e+02
    2.7299882889e+01    1.5357809448e+02
    2.7399013519e+01    1.5357809448e+02
    2.7499099731e+01    1.5357809448e+02
    2.7598897934e+01    1.5357809448e+02
    2.7698698044e+01    1.5357809448e+02
    2.7800039291e+01    1.5357809448e+02
    2.7898965836e+01    1.5357809448e+02
    2.7999050140e+01    1.5357809448e+02
    2.8099327087e+01    1.5357809448e+02
    2.8199602127e+01    1.5357809448e+02
    2.8299116135e+01    1.5357809448e+02
    2.8399202347e+01    1.5357809448e+02
    2.8499383926e+01    1.5357809448e+02
    2.8599851608e+01    1.5357809448e+02
    2.8699459076e+01    1.5357809448e+02
    2.8799243927e+01    1.5357809448e+02
    2.8899423599e+01    1.5357809448e+02
    2.8998540878e+01    1.5357809448e+02
    2.9099786758e+01    1.5357809448e+02
    2.9198902130e+01    1.5357809448e+02
    2.9299863815e+01    1.5357710266e+02
    2.9398788452e+01    1.5357710266e+02
    2.9499162674e+01    1.5357710266e+02
    2.9599533081e+01    1.5357710266e+02
    2.9699811935e+01    1.5357710266e+02
    2.9799516678e+01    1.5357710266e+02
    2.9899221420e+01    1.5357710266e+02
    2.9998718262e+01    1.5357710266e+02
    3.0098901749e+01    1.5357710266e+02
    3.0199272156e+01    1.5357710266e+02
    3.0299264908e+01    1.5357710266e+02
    3.0399257660e+01    1.5357710266e+02
    3.0499914169e+01    1.5357710266e+02
    3.0600002289e+01    1.5357710266e+02
    3.0699899673e+01    1.5357710266e+02
    3.0799985886e+01    1.5357710266e+02
    3.0898912430e+01    1.5357710266e+02
    3.0999111176e+01    1.5357710266e+02
    3.1099771500e+01    1.5357710266e+02
    3.1198810577e+01    1.5357710266e+02
    3.1299581528e+01    1.5357609558e+02
    3.1399953842e+01    1.5357609558e+02
    3.1499849319e+01    1.5357609558e+02
    3.1598491669e+01    1.5357609558e+02
    3.1698768616e+01    1.5357609558e+02
    3.1799142838e+01    1.5357609558e+02
    3.1899627686e+01    1.5357609558e+02
    3.2000080109e+01    1.5357609558e+02
    3.2099498749e+01    1.5357609558e+02
    3.2199588776e+01    1.5357609558e+02
    3.2299293518e+01    1.5357609558e+02
    3.2399955750e+01    1.5357609558e+02
    3.2499851227e+01    1.5357609558e+02
    3.2599750519e+01    1.5357609558e+02
    3.2699169159e+01    1.5357609558e+02
    3.2798763275e+01    1.5357609558e+02
    3.2898757935e+01    1.5357609558e+02
    3.2999721527e+01    1.5357609558e+02
    3.3098648071e+01    1.5357510376e+02
    3.3199707031e+01    1.5357510376e+02
    3.3299892426e+01    1.5357510376e+02
    3.3399978638e+01    1.5357510376e+02
    3.3499004364e+01    1.5357510376e+02
    3.3599170685e+01    1.5357510376e+02
    3.3699943542e+01    1.5357510376e+02
    3.3799747467e+01    1.5357510376e+02
    3.3898677826e+01    1.5357510376e+02
    3.3998672485e+01    1.5357510376e+02
    3.4098476410e+01    1.5357510376e+02
    3.4198566437e+01    1.5357510376e+02
    3.4298656464e+01    1.5357510376e+02
    3.4400001526e+01    1.5357510376e+02
    3.4499996185e+01    1.5357510376e+02
    3.4599880219e+01    1.5357409668e+02
    3.4699573517e+01    1.5357409668e+02
    3.4798519135e+01    1.5357409668e+02
    3.4899772644e+01    1.5357409668e+02
    3.4998416901e+01    1.5357409668e+02
    3.5098506927e+01    1.5357409668e+02
    3.5199073792e+01    1.5357409668e+02
    3.5299259186e+01    1.5357409668e+02
    3.5398796082e+01    1.5357409668e+02
    3.5499538422e+01    1.5357409668e+02
    3.5599056244e+01    1.5357409668e+02
    3.5700023651e+01    1.5357409668e+02
    3.5799163818e+01    1.5357409668e+02
    3.5898967743e+01    1.5357310486e+02
    3.5999248505e+01    1.5357310486e+02
    3.6099342346e+01    1.5357310486e+02
    3.6198669434e+01    1.5357310486e+02
    3.6299617767e+01    1.5357310486e+02
    3.6399711609e+01    1.5357310486e+02
    3.6498641968e+01    1.5357310486e+02
    3.6599399567e+01    1.5357310486e+02
    3.6698921204e+01    1.5357310486e+02
    3.6798805237e+01    1.5357310486e+02
    3.6898536682e+01    1.5357310486e+02
    3.6998722076e+01    1.5357310486e+02
    3.7099292755e+01    1.5357310486e+02
    3.7198524475e+01    1.5357209778e+02
    3.7299571991e+01    1.5357209778e+02
    3.7398712158e+01    1.5357209778e+02
    3.7498519897e+01    1.5357209778e+02
    3.7599090576e+01    1.5357209778e+02
    3.7699752808e+01    1.5357209778e+02
    3.7798892975e+01    1.5357209778e+02
    3.7899845123e+01    1.5357209778e+02
    3.7998683929e+01    1.5357209778e+02
    3.8099555969e+01    1.5357209778e+02
    3.8199157715e+01    1.5357209778e+02
    3.8298488617e+01    1.5357110596e+02
    3.8398563385e+01    1.5357110596e+02
    3.8499439240e+01    1.5357110596e+02
    3.8598659515e+01    1.5357110596e+02
    3.8699626923e+01    1.5357110596e+02
    3.8799343109e+01    1.5357110596e+02
    3.8899723053e+01    1.5357110596e+02
    3.8999816895e+01    1.5357110596e+02
    3.9099910736e+01    1.5357110596e+02
    3.9199722290e+01    1.5357110596e+02
    3.9299911499e+01    1.5357110596e+02
    3.9399723053e+01    1.5357009888e+02
    3.9498561859e+01    1.5357009888e+02
    3.9599914551e+01    1.5357009888e+02
    3.9698753357e+01    1.5357009888e+02
    3.9799228668e+01    1.5357009888e+02
    3.9899517059e+01    1.5357009888e+02
    3.9998947144e+01    1.5357009888e+02
    4.0099613190e+01    1.5357009888e+02
    4.0198455811e+01    1.5357009888e+02
    4.0299903870e+01    1.5357009888e+02
    4.0399604797e+01    1.5356910706e+02
    4.0499622345e+01    1.5356910706e+02
    4.0599227905e+01    1.5356910706e+02
    4.0699798584e+01    1.5356910706e+02
    4.0799800873e+01    1.5356910706e+02
    4.0899120331e+01    1.5356910706e+02
    4.0999313354e+01    1.5356910706e+02
    4.1099887848e+01    1.5356910706e+02
    4.1198841095e+01    1.5356910706e+02
    4.1299037933e+01    1.5356809998e+02
    4.1398944855e+01    1.5356809998e+02
    4.1498470306e+01    1.5356809998e+02
    4.1599922180e+01    1.5356809998e+02
    4.1699432373e+01    1.5356809998e+02
    4.1799148560e+01    1.5356809998e+02
    4.1898391724e+01    1.5356809998e+02
    4.1999538422e+01    1.5356809998e+02
    4.2099159241e+01    1.5356809998e+02
    4.2199737549e+01    1.5356709290e+02
    4.2299739838e+01    1.5356709290e+02
    4.2398777008e+01    1.5356709290e+02
    4.2498989105e+01    1.5356709290e+02
    4.2598899841e+01    1.5356709290e+02
    4.2698711395e+01    1.5356709290e+02
    4.2799861908e+01    1.5356709290e+02
    4.2899868011e+01    1.5356709290e+02
    4.2998615265e+01    1.5356610107e+02
    4.3098907471e+01    1.5356610107e+02
    4.3199104309e+01    1.5356610107e+02
    4.3299304962e+01    1.5356610107e+02
    4.3399612427e+01    1.5356610107e+02
    4.3499412537e+01    1.5356610107e+02
    4.3599117279e+01    1.5356610107e+02
    4.3698650360e+01    1.5356610107e+02
    4.3799228668e+01    1.5356509399e+02
    4.3899238586e+01    1.5356509399e+02
    4.3999343872e+01    1.5356509399e+02
    4.4098762512e+01    1.5356509399e+02
    4.4199344635e+01    1.5356509399e+02
    4.4298477173e+01    1.5356509399e+02
    4.4399551392e+01    1.5356509399e+02
    4.4498382568e+01    1.5356509399e+02
    4.4598487854e+01    1.5356410217e+02
    4.4698688507e+01    1.5356410217e+02
    4.4798412323e+01    1.5356410217e+02
    4.4898994446e+01    1.5356410217e+02
    4.4999576569e+01    1.5356410217e+02
    4.5098426819e+01    1.5356410217e+02
    4.5198726654e+01    1.5356410217e+02
    4.5298831940e+01    1.5356309509e+02
    4.5399223328e+01    1.5356309509e+02
    4.5498741150e+01    1.5356309509e+02
    4.5599819183e+01    1.5356309509e+02
    4.5698974609e+01    1.5356309509e+02
    4.5798397064e+01    1.5356309509e+02
    4.5899837494e+01    1.5356309509e+02
    4.5999660492e+01    1.5356210327e+02
    4.6098514557e+01    1.5356210327e+02
    4.6198337555e+01    1.5356210327e+02
    4.6298351288e+01    1.5356210327e+02
    4.6398651123e+01    1.5356210327e+02
    4.6499443054e+01    1.5356210327e+02
    4.6598773956e+01    1.5356109619e+02
    4.6698883057e+01    1.5356109619e+02
    4.6798992157e+01    1.5356109619e+02
    4.6898818970e+01    1.5356109619e+02
    4.6998531342e+01    1.5356109619e+02
    4.7099613190e+01    1.5356109619e+02
    4.7198657990e+01    1.5356109619e+02
    4.7298484802e+01    1.5356010437e+02
    4.7399757385e+01    1.5356010437e+02
    4.7498405457e+01    1.5356010437e+02
    4.7599681854e+01    1.5356010437e+02
    4.7698726654e+01    1.5356010437e+02
    4.7798347473e+01    1.5356010437e+02
    4.7899333954e+01    1.5355909729e+02
    4.7999641418e+01    1.5355909729e+02
    4.8099166870e+01    1.5355909729e+02
    4.8199661255e+01    1.5355909729e+02
    4.8299682617e+01    1.5355909729e+02
    4.8398635864e+01    1.5355810547e+02
    4.8498638153e+01    1.5355810547e+02
    4.8598659515e+01    1.5355810547e+02
    4.8699348450e+01    1.5355810547e+02
    4.8799747467e+01    1.5355810547e+02
    4.8898418427e+01    1.5355810547e+02
    4.8999107361e+01    1.5355709839e+02
    4.9098350525e+01    1.5355709839e+02
    4.9198467255e+01    1.5355709839e+02
    4.9299747467e+01    1.5355709839e+02
    4.9398799896e+01    1.5355709839e+02
    4.9498725891e+01    1.5355610657e+02
    4.9599227905e+01    1.5355610657e+02
    4.9699710846e+01    1.5355610657e+02
    4.9798667908e+01    1.5355610657e+02
    4.9899646759e+01    1.5355610657e+02
    4.9999668121e+01    1.5355610657e+02
    5.0098247528e+01    1.5355509949e+02
    5.0199131012e+01    1.5355509949e+02
    5.0299728394e+01    1.5355509949e+02
    5.0399562836e+01    1.5355509949e+02
    5.0499778748e+01    1.5355509949e+02
    5.0598930359e+01    1.5355410767e+02
    5.0699245453e+01    1.5355410767e+02
    5.0798698425e+01    1.5355410767e+02
    5.0899585724e+01    1.5355410767e+02
    5.0999214172e+01    1.5355310059e+02
    5.1098670959e+01    1.5355310059e+02
    5.1199653625e+01    1.5355310059e+02
    5.1298423767e+01    1.5355310059e+02
    5.1398628235e+01    1.5355310059e+02
    5.1498275757e+01    1.5355209351e+02
    5.1599639893e+01    1.5355209351e+02
    5.1699672699e+01    1.5355209351e+02
    5.1798351288e+01    1.5355209351e+02
    5.1898479462e+01    1.5355209351e+02
    5.1998985291e+01    1.5355110168e+02
    5.2098239899e+01    1.5355110168e+02
    5.2198654175e+01    1.5355110168e+02
    5.2299354553e+01    1.5355110168e+02
    5.2399101257e+01    1.5355009460e+02
    5.2499214172e+01    1.5355009460e+02
    5.2598487854e+01    1.5355009460e+02
    5.2699569702e+01    1.5355009460e+02
    5.2799510956e+01    1.5354910278e+02
    5.2898860931e+01    1.5354910278e+02
    5.2999374390e+01    1.5354910278e+02
    5.3099506378e+01    1.5354910278e+02
    5.3198669434e+01    1.5354809570e+02
    5.3298786163e+01    1.5354809570e+02
    5.3398330688e+01    1.5354809570e+02
    5.3498943329e+01    1.5354809570e+02
    5.3599456787e+01    1.5354710388e+02
    5.3698337555e+01    1.5354710388e+02
    5.3799617767e+01    1.5354710388e+02
    5.3898593903e+01    1.5354710388e+02
    5.3998619080e+01    1.5354609680e+02
    5.4099517822e+01    1.5354609680e+02
    5.4198879242e+01    1.5354609680e+02
    5.4298538208e+01    1.5354609680e+02
    5.4398376465e+01    1.5354510498e+02
    5.4499279022e+01    1.5354510498e+02
    5.4599689484e+01    1.5354510498e+02
    5.4698192596e+01    1.5354510498e+02
    5.4799003601e+01    1.5354409790e+02
    5.4898937225e+01    1.5354409790e+02
    5.4999557495e+01    1.5354409790e+02
    5.5098255157e+01    1.5354310608e+02
    5.5198970795e+01    1.5354310608e+02
    5.5299499512e+01    1.5354310608e+02
    5.5399055481e+01    1.5354209900e+02
    5.5498802185e+01    1.5354209900e+02
    5.5599521637e+01    1.5354209900e+02
    5.5698890686e+01    1.5354209900e+02
    5.5798179626e+01    1.5354110718e+02
    5.5899570465e+01    1.5354110718e+02
    5.5998939514e+01    1.5354110718e+02
    5.6099662781e+01    1.5354010010e+02
    5.6199607849e+01    1.5354010010e+02
    5.6298805237e+01    1.5354010010e+02
    5.6398845673e+01    1.5353909302e+02
    5.6498504639e+01    1.5353909302e+02
    5.6599308014e+01    1.5353909302e+02
    5.6698474884e+01    1.5353810120e+02
    5.6799110413e+01    1.5353810120e+02
    5.6898216248e+01    1.5353810120e+02
    5.6999423981e+01    1.5353709412e+02
    5.7099086761e+01    1.5353709412e+02
    5.7198944092e+01    1.5353709412e+02
    5.7299102783e+01    1.5353610229e+02
    5.7399532318e+01    1.5353610229e+02
    5.7498821259e+01    1.5353610229e+02
    5.7598583221e+01    1.5353509521e+02
    5.7698841095e+01    1.5353509521e+02
    5.7798130035e+01    1.5353410339e+02
    5.7899154663e+01    1.5353410339e+02
    5.7998523712e+01    1.5353410339e+02
    5.8098880768e+01    1.5353309631e+02
    5.8198169708e+01    1.5353309631e+02
    5.8299007416e+01    1.5353309631e+02
    5.8398300171e+01    1.5353210449e+02
    5.8498455048e+01    1.5353210449e+02
    5.8598419189e+01    1.5353109741e+02
    5.8698478699e+01    1.5353109741e+02
    5.8799415588e+01    1.5353010559e+02
    5.8899093628e+01    1.5353010559e+02
    5.8998489380e+01    1.5353010559e+02
    5.9099029541e+01    1.5352909851e+02
    5.9199573517e+01    1.5352909851e+02
    5.9299545288e+01    1.5352810669e+02
    5.9398754120e+01    1.5352810669e+02
    5.9499298096e+01    1.5352709961e+02
    5.9599464417e+01    1.5352709961e+02
    5.9699058533e+01    1.5352709961e+02
    5.9799034119e+01    1.5352610779e+02
    5.9899204254e+01    1.5352610779e+02
    5.9999565125e+01    1.5352510071e+02
    6.0098194122e+01    1.5352510071e+02
    6.0198844910e+01    1.5352409363e+02
    6.0298637390e+01    1.5352409363e+02
    6.0399383545e+01    1.5352310181e+02
    6.0498416901e+01    1.5352310181e+02
    6.0598976135e+01    1.5352209473e+02
    6.0698394775e+01    1.5352209473e+02
    6.0798576355e+01    1.5352110291e+02
    6.0898281097e+01    1.5352110291e+02
    6.0998561859e+01    1.5352009583e+02
    6.1098747253e+01    1.5352009583e+02
    6.1199413300e+01    1.5351910400e+02
    6.1298931122e+01    1.5351910400e+02
    6.1399120331e+01    1.5351809692e+02
    6.1498931885e+01    1.5351710510e+02
    6.1599502563e+01    1.5351710510e+02
    6.1699031830e+01    1.5351609802e+02
    6.1798347473e+01    1.5351609802e+02
    6.1898353577e+01    1.5351510620e+02
    6.1998077393e+01    1.5351510620e+02
    6.2098655701e+01    1.5351409912e+02
    6.2198856354e+01    1.5351310730e+02
    6.2298870087e+01    1.5351310730e+02
    6.2398788452e+01    1.5351210022e+02
    6.2499279022e+01    1.5351210022e+02
    6.2599010468e+01    1.5351109314e+02
    6.2698932648e+01    1.5351010132e+02
    6.2799144745e+01    1.5351010132e+02
    6.2899150848e+01    1.5350909424e+02
    6.2999080658e+01    1.5350810242e+02
    6.3098705292e+01    1.5350810242e+02
    6.3199401855e+01    1.5350709534e+02
    6.3298652649e+01    1.5350610352e+02
    6.3398208618e+01    1.5350610352e+02
    6.3499595642e+01    1.5350509644e+02
    6.3598754883e+01    1.5350410461e+02
    6.3699462891e+01    1.5350309753e+02
    6.3799484253e+01    1.5350309753e+02
    6.3899528503e+01    1.5350210571e+02
    6.3998600006e+01    1.5350109863e+02
    6.4098548889e+01    1.5350010681e+02
    6.4199172974e+01    1.5350010681e+02
    6.4298728943e+01    1.5349909973e+02
    6.4398284912e+01    1.5349810791e+02
    6.4498718262e+01    1.5349710083e+02
    6.4598281860e+01    1.5349609375e+02
    6.4699295044e+01    1.5349609375e+02
    6.4798667908e+01    1.5349510193e+02
    6.4898254395e+01    1.5349409485e+02
    6.4998794556e+01    1.5349310303e+02
    6.5098861694e+01    1.5349209595e+02
    6.5199401855e+01    1.5349110413e+02
    6.5299568176e+01    1.5349009705e+02
    6.5399337769e+01    1.5349009705e+02
    6.5499023438e+01    1.5348910522e+02
    6.5598602295e+01    1.5348809814e+02
    6.5698875427e+01    1.5348710632e+02
    6.5798950195e+01    1.5348609924e+02
    6.5898063660e+01    1.5348510742e+02
    6.5998619080e+01    1.5348410034e+02
    6.6098892212e+01    1.5348309326e+02
    6.6198219299e+01    1.5348210144e+02
    6.6297920227e+01    1.5348109436e+02
    6.6399368286e+01    1.5348010254e+02
    6.6498962402e+01    1.5347909546e+02
    6.6597991943e+01    1.5347810364e+02
    6.6697990417e+01    1.5347709656e+02
    6.6798278809e+01    1.5347610474e+02
    6.6899429321e+01    1.5347509766e+02
    6.6998176575e+01    1.5347410583e+02
    6.7098281860e+01    1.5347210693e+02
    6.7198577881e+01    1.5347109985e+02
    6.7298187256e+01    1.5347010803e+02
    6.7398490906e+01    1.5346910095e+02
    6.7498886108e+01    1.5346809387e+02
    6.7598510742e+01    1.5346710205e+02
    6.7699096680e+01    1.5346510315e+02
    6.7798248291e+01    1.5346409607e+02
    6.7898651123e+01    1.5346310425e+02
    6.7999443054e+01    1.5346209717e+02
    6.8098213196e+01    1.5346110535e+02
    6.8198318481e+01    1.5345910645e+02
    6.8299209595e+01    1.5345809937e+02
    6.8398277283e+01    1.5345710754e+02
    6.8499076843e+01    1.5345509338e+02
    6.8599403381e+01    1.5345410156e+02
    6.8699348450e+01    1.5345309448e+02
    6.8799087524e+01    1.5345109558e+02
    6.8898254395e+01    1.5345010376e+02
    6.8998687744e+01    1.5344909668e+02
    6.9098640442e+01    1.5344709778e+02
    6.9198593140e+01    1.5344610596e+02
    6.9297958374e+01    1.5344410706e+02
    6.9398094177e+01    1.5344309998e+02
    6.9498825073e+01    1.5344110107e+02
    6.9598289490e+01    1.5344009399e+02
    6.9698928833e+01    1.5343809509e+02
    6.9798118591e+01    1.5343710327e+02
    6.9898757935e+01    1.5343510437e+02
    6.9998428345e+01    1.5343310547e+02
    7.0099456787e+01    1.5343209839e+02
    7.0197967529e+01    1.5343009949e+02
    7.0299476624e+01    1.5342910767e+02
    7.0398582458e+01    1.5342709351e+02
    7.0498161316e+01    1.5342509460e+02
    7.0599205017e+01    1.5342309570e+02
    7.0698890686e+01    1.5342210388e+02
    7.0798675537e+01    1.5342010498e+02
    7.0898178101e+01    1.5341810608e+02
    7.0998352051e+01    1.5341610718e+02
    7.1098526001e+01    1.5341510010e+02
    7.1198608398e+01    1.5341310120e+02
    7.1298789978e+01    1.5341110229e+02
    7.1398010254e+01    1.5340910339e+02
    7.1497909546e+01    1.5340710449e+02
    7.1598098755e+01    1.5340510559e+02
    7.1698287964e+01    1.5340310669e+02
    7.1798004150e+01    1.5340110779e+02
    7.1898200989e+01    1.5339909363e+02
    7.1998397827e+01    1.5339709473e+02
    7.2098312378e+01    1.5339509583e+02
    7.2198135376e+01    1.5339309692e+02
    7.2298339844e+01    1.5339109802e+02
    7.2398071289e+01    1.5338909912e+02
    7.2499443054e+01    1.5338609314e+02
    7.2598014832e+01    1.5338409424e+02
    7.2699394226e+01    1.5338209534e+02
    7.2798851013e+01    1.5338009644e+02
    7.2898788452e+01    1.5337710571e+02
    7.2998725891e+01    1.5337510681e+02
    7.3098381042e+01    1.5337310791e+02
    7.3198616028e+01    1.5337010193e+02
    7.3298751831e+01    1.5336810303e+02
    7.3398605347e+01    1.5336610413e+02
    7.3498847961e+01    1.5336309814e+02
    7.3598617554e+01    1.5336109924e+02
    7.3698379517e+01    1.5335809326e+02
    7.3798629761e+01    1.5335609436e+02
    7.3898406982e+01    1.5335310364e+02
    7.3998085022e+01    1.5335009766e+02
    7.4098342896e+01    1.5334809875e+02
    7.4198608398e+01    1.5334510803e+02
    7.4298873901e+01    1.5334210205e+02
    7.4399040222e+01    1.5334010315e+02
    7.4498451233e+01    1.5333709717e+02
    7.4598533630e+01    1.5333410645e+02
    7.4698806763e+01    1.5333110046e+02
    7.4799087524e+01    1.5332809448e+02
    7.4899368286e+01    1.5332510376e+02
    7.4998008728e+01    1.5332209778e+02
    7.5098297119e+01    1.5331910706e+02
    7.5198585510e+01    1.5331610107e+02
    7.5298881531e+01    1.5331309509e+02
    7.5399177551e+01    1.5331010437e+02
    7.5499382019e+01    1.5330709839e+02
    7.5599205017e+01    1.5330410767e+02
    7.5697860718e+01    1.5330110168e+02
    7.5798164368e+01    1.5329710388e+02
    7.5898185730e+01    1.5329409790e+02
    7.5998497009e+01    1.5329110718e+02
    7.6098808289e+01    1.5328709412e+02
    7.6198547363e+01    1.5328410339e+02
    7.6298484802e+01    1.5328010559e+02
    7.6398803711e+01    1.5327709961e+02
    7.6499130249e+01    1.5327310181e+02
    7.6599266052e+01    1.5326910400e+02
    7.6699211121e+01    1.5326609802e+02
    7.6797798157e+01    1.5326210022e+02
    7.6897941589e+01    1.5325810242e+02
    7.6998275757e+01    1.5325509644e+02
    7.7098617554e+01    1.5325109863e+02
    7.7198959351e+01    1.5324710083e+02
    7.7299110413e+01    1.5324310303e+02
    7.7397811890e+01    1.5323910522e+02
    7.7498161316e+01    1.5323510742e+02
    7.7598510742e+01    1.5323109436e+02
    7.7698867798e+01    1.5322610474e+02
    7.7799034119e+01    1.5322210693e+02
    7.7899009705e+01    1.5321809387e+02
    7.7999374390e+01    1.5321310425e+02
    7.8098091125e+01    1.5320910645e+02
    7.8199340820e+01    1.5320509338e+02
    7.8298065186e+01    1.5320010376e+02
    7.8398437500e+01    1.5319610596e+02
    7.8498817444e+01    1.5319110107e+02
    7.8599197388e+01    1.5318609619e+02
    7.8699195862e+01    1.5318110657e+02
    7.8799194336e+01    1.5317709351e+02
    7.8897933960e+01    1.5317210388e+02
    7.8998229980e+01    1.5316709900e+02
    7.9098625183e+01    1.5316209412e+02
    7.9199020386e+01    1.5315710449e+02
    7.9297767639e+01    1.5315209961e+02
    7.9398170471e+01    1.5314610291e+02
    7.9498565674e+01    1.5314109802e+02
    7.9598968506e+01    1.5313609314e+02
    7.9697731018e+01    1.5313009644e+02
    7.9798133850e+01    1.5312510681e+02
    7.9898544312e+01    1.5311909485e+02
    7.9998954773e+01    1.5311410522e+02
    8.0097717285e+01    1.5310809326e+02
    8.0198127747e+01    1.5310209656e+02
    8.0298545837e+01    1.5309609985e+02
    8.0398963928e+01    1.5309010315e+02
    8.0497734070e+01    1.5308410645e+02
    8.0598152161e+01    1.5307809448e+02
    8.0698570251e+01    1.5307209778e+02
    8.0798698425e+01    1.5306610107e+02
    8.0899116516e+01    1.5305909729e+02
    8.0997894287e+01    1.5305310059e+02
    8.1098312378e+01    1.5304710388e+02
    8.1198738098e+01    1.5304010010e+02
    8.1299156189e+01    1.5303309631e+02
    8.1397933960e+01    1.5302709961e+02
    8.1498352051e+01    1.5302009583e+02
    8.1598770142e+01    1.5301310730e+02
    8.1699195862e+01    1.5300610352e+02
    8.1797966003e+01    1.5299810791e+02
    8.1898384094e+01    1.5299110413e+02
    8.1998802185e+01    1.5298410034e+02
    8.2099220276e+01    1.5297610474e+02
    8.2197990417e+01    1.5296910095e+02
    8.2298408508e+01    1.5296110535e+02
    8.2398818970e+01    1.5295309448e+02
    8.2499237061e+01    1.5294610596e+02
    8.2597999573e+01    1.5293809509e+02
    8.2698120117e+01    1.5293009949e+02
    8.2798522949e+01    1.5292109680e+02
    8.2898933411e+01    1.5291310120e+02
    8.2997688293e+01    1.5290510559e+02
    8.3098083496e+01    1.5289610291e+02
    8.3198486328e+01    1.5288810730e+02
    8.3298873901e+01    1.5287910461e+02
    8.3399269104e+01    1.5287010193e+02
    8.3498008728e+01    1.5286109924e+02
    8.3597816467e+01    1.5285209656e+02
    8.3698005676e+01    1.5284309387e+02
    8.3798286438e+01    1.5283309937e+02
    8.3898651123e+01    1.5282409668e+02
    8.3999015808e+01    1.5281410217e+02
    8.4097732544e+01    1.5280509949e+02
    8.4199256897e+01    1.5279510498e+02
    8.4297958374e+01    1.5278509521e+02
    8.4398300171e+01    1.5277510071e+02
    8.4498641968e+01    1.5276409912e+02
    8.4598968506e+01    1.5275410461e+02
    8.4697654724e+01    1.5274409485e+02
    8.4797966003e+01    1.5273309326e+02
    8.4898277283e+01    1.5272210693e+02
    8.4998291016e+01    1.5271110535e+02
    8.5098587036e+01    1.5270010376e+02
    8.5198875427e+01    1.5268910217e+02
    8.5299148560e+01    1.5267709351e+02
    8.5397773743e+01    1.5266610718e+02
    8.5499008179e+01    1.5265409851e+02
    8.5598686218e+01    1.5264210510e+02
    8.5698829651e+01    1.5263009644e+02
    8.5799057007e+01    1.5261810303e+02
    8.5898895264e+01    1.5260609436e+02
    8.5999107361e+01    1.5259309387e+02
    8.6097663879e+01    1.5258009338e+02
    8.6197853088e+01    1.5256809998e+02
    8.6298141479e+01    1.5255509949e+02
    8.6398117065e+01    1.5254110718e+02
    8.6497886658e+01    1.5252810669e+02
    8.6598022461e+01    1.5251409912e+02
    8.6698150635e+01    1.5250109863e+02
    8.6798263550e+01    1.5248710632e+02
    8.6897979736e+01    1.5247309875e+02
    8.6999038696e+01    1.5245809937e+02
    8.7098541260e+01    1.5244410706e+02
    8.7197830200e+01    1.5242910767e+02
    8.7297874451e+01    1.5241409302e+02
    8.7397903442e+01    1.5239909363e+02
    8.7497917175e+01    1.5238409424e+02
    8.7597908020e+01    1.5236909485e+02
    8.7698860168e+01    1.5235310364e+02
    8.7797767639e+01    1.5233709717e+02
    8.7898490906e+01    1.5232110596e+02
    8.7998817444e+01    1.5230509949e+02
    8.8099220276e+01    1.5228810120e+02
    8.8198722839e+01    1.5227209473e+02
    8.8298301697e+01    1.5225509644e+02
    8.8398147583e+01    1.5223809814e+02
    8.8498756409e+01    1.5222010803e+02
    8.8597610474e+01    1.5220309448e+02
    8.8698837280e+01    1.5218510437e+02
    8.8798217773e+01    1.5216709900e+02
    8.8898353577e+01    1.5214909363e+02
    8.8998565674e+01    1.5213009644e+02
    8.9097877502e+01    1.5211109924e+02
    8.9198890686e+01    1.5209210205e+02
    8.9298645020e+01    1.5207310486e+02
    8.9398262024e+01    1.5205410767e+02
    8.9499107361e+01    1.5203410339e+02
    8.9598976135e+01    1.5201409912e+02
    8.9698913574e+01    1.5199409485e+02
    8.9798820496e+01    1.5197309875e+02
    8.9898910522e+01    1.5195210266e+02
    8.9998672485e+01    1.5193110657e+02
    9.0098403931e+01    1.5191009521e+02
    9.0198883057e+01    1.5188909912e+02
    9.0297698975e+01    1.5186709595e+02
    9.0398597717e+01    1.5184510803e+02
    9.0498794556e+01    1.5182209778e+02
    9.0597900391e+01    1.5180009460e+02
    9.0697845459e+01    1.5177709961e+02
    9.0798324585e+01    1.5175410461e+02
    9.0898399353e+01    1.5173010254e+02
    9.0998329163e+01    1.5170710754e+02
    9.1098434448e+01    1.5168310547e+02
    9.1199127197e+01    1.5165809631e+02
    9.1298561096e+01    1.5163409424e+02
    9.1399063110e+01    1.5160910034e+02
    9.1498176575e+01    1.5158410645e+02
    9.1599044800e+01    1.5155810547e+02
    9.1698364258e+01    1.5153210449e+02
    9.1797935486e+01    1.5150610352e+02
    9.1898223877e+01    1.5148010254e+02
    9.1998405457e+01    1.5145309448e+02
    9.2098831177e+01    1.5142610168e+02
    9.2198379517e+01    1.5139810181e+02
    9.2297744751e+01    1.5137109375e+02
    9.2397804260e+01    1.5134309387e+02
    9.2498817444e+01    1.5131410217e+02
    9.2597656250e+01    1.5128610229e+02
    9.2697578430e+01    1.5125709534e+02
    9.2797607422e+01    1.5122709656e+02
    9.2897697449e+01    1.5119810486e+02
    9.2997703552e+01    1.5116810608e+02
    9.3098983765e+01    1.5113710022e+02
    9.3198722839e+01    1.5110609436e+02
    9.3298889160e+01    1.5107510376e+02
    9.3398887634e+01    1.5104409790e+02
    9.3498611450e+01    1.5101210022e+02
    9.3599136353e+01    1.5098010254e+02
    9.3698318481e+01    1.5094709778e+02
    9.3797721863e+01    1.5091510010e+02
    9.3898391724e+01    1.5088110352e+02
    9.3998939514e+01    1.5084710693e+02
    9.4097763062e+01    1.5081410217e+02
    9.4198013306e+01    1.5077909851e+02
    9.4298324585e+01    1.5074510193e+02
    9.4398376465e+01    1.5071009827e+02
    9.4498588562e+01    1.5067410278e+02
    9.4598762512e+01    1.5063810730e+02
    9.4698310852e+01    1.5060209656e+02
    9.4798248291e+01    1.5056610107e+02
    9.4898017883e+01    1.5052909851e+02
    9.4997833252e+01    1.5049110413e+02
    9.5098899841e+01    1.5045309448e+02
    9.5198524475e+01    1.5041510010e+02
    9.5297996521e+01    1.5037710571e+02
    9.5398742676e+01    1.5033810425e+02
    9.5498016357e+01    1.5029910278e+02
    9.5598876953e+01    1.5025810242e+02
    9.5697906494e+01    1.5021910095e+02
    9.5798492432e+01    1.5017810059e+02
    9.5899078369e+01    1.5013710022e+02
    9.5997856140e+01    1.5009609985e+02
    9.6097984314e+01    1.5005410767e+02
    9.6198051453e+01    1.5001210022e+02
    9.6298233032e+01    1.4996910095e+02
    9.6397926331e+01    1.4992610168e+02
    9.6499099731e+01    1.4988209534e+02
    9.6598442078e+01    1.4983909607e+02
    9.6697822571e+01    1.4979409790e+02
    9.6798454285e+01    1.4974909973e+02
    9.6897956848e+01    1.4970509338e+02
    9.6998245239e+01    1.4965910339e+02
    9.7098419189e+01    1.4961309814e+02
    9.7198501587e+01    1.4956610107e+02
    9.7298431396e+01    1.4951910400e+02
    9.7398376465e+01    1.4947210693e+02
    9.7498146057e+01    1.4942410278e+02
    9.7598007202e+01    1.4937609863e+02
    9.7699028015e+01    1.4932710266e+02
    9.7798492432e+01    1.4927810669e+02
    9.7898597717e+01    1.4922909546e+02
    9.7997734070e+01    1.4917910767e+02
    9.8099006653e+01    1.4912809753e+02
    9.8197807312e+01    1.4907809448e+02
    9.8297851562e+01    1.4902709961e+02
    9.8398109436e+01    1.4897509766e+02
    9.8498016357e+01    1.4892210388e+02
    9.8598320007e+01    1.4887010193e+02
    9.8698486328e+01    1.4881610107e+02
    9.8798072815e+01    1.4876310730e+02
    9.8897827148e+01    1.4870910645e+02
    9.8998947144e+01    1.4865409851e+02
    9.9098800659e+01    1.4859910583e+02
    9.9198493958e+01    1.4854409790e+02
    9.9298408508e+01    1.4848809814e+02
    9.9397956848e+01    1.4843209839e+02
    9.9498504639e+01    1.4837510681e+02
    9.9598503113e+01    1.4831809998e+02
    9.9698883057e+01    1.4826010132e+02
    9.9797706604e+01    1.4820210266e+02
    9.9898521423e+01    1.4814309692e+02
    9.9998779297e+01    1.4808410645e+02
    1.0009882355e+02    1.4802409363e+02
    1.0019811249e+02    1.4796409607e+02
    1.0029785919e+02    1.4790409851e+02
    1.0039856720e+02    1.4784210205e+02
    1.0049826813e+02    1.4778109741e+02
    1.0059896851e+02    1.4771910095e+02
    1.0069815826e+02    1.4765710449e+02
    1.0079895782e+02    1.4759309387e+02
    1.0089842224e+02    1.4753010559e+02
    1.0099796295e+02    1.4746609497e+02
    1.0109841919e+02    1.4740209961e+02
    1.0119772339e+02    1.4733709717e+02
    1.0129891968e+02    1.4727110291e+02
    1.0139824677e+02    1.4720610046e+02
    1.0149768829e+02    1.4714010620e+02
    1.0159886932e+02    1.4707209778e+02
    1.0169796753e+02    1.4700509644e+02
    1.0179839325e+02    1.4693710327e+02
    1.0189810181e+02    1.4686911011e+02
    1.0199786377e+02    1.4680110168e+02
    1.0209783173e+02    1.4673110962e+02
    1.0219821930e+02    1.4666110229e+02
    1.0229788971e+02    1.4659109497e+02
    1.0239792633e+02    1.4652011108e+02
    1.0249797821e+02    1.4644909668e+02
    1.0259834290e+02    1.4637710571e+02
    1.0269808960e+02    1.4630509949e+02
    1.0279807281e+02    1.4623210144e+02
    1.0289874268e+02    1.4615910339e+02
    1.0299777985e+02    1.4608609009e+02
    1.0309803772e+02    1.4601110840e+02
    1.0319848633e+02    1.4593609619e+02
    1.0329878998e+02    1.4586109924e+02
    1.0339775848e+02    1.4578610229e+02
    1.0349786377e+02    1.4571009827e+02
    1.0359796906e+02    1.4563310242e+02
    1.0369789886e+02    1.4555609131e+02
    1.0379808044e+02    1.4547810364e+02
    1.0389817047e+02    1.4539910889e+02
    1.0399884033e+02    1.4532009888e+02
    1.0409764099e+02    1.4524209595e+02
    1.0419863892e+02    1.4516110229e+02
    1.0429785156e+02    1.4508209229e+02
    1.0439781952e+02    1.4500109863e+02
    1.0449770355e+02    1.4492010498e+02
    1.0459850311e+02    1.4483709717e+02
    1.0469795227e+02    1.4475610352e+02
    1.0479781342e+02    1.4467309570e+02
    1.0489782715e+02    1.4459010315e+02
    1.0499777985e+02    1.4450610352e+02
    1.0509887695e+02    1.4442109680e+02
    1.0519763184e+02    1.4433709717e+02
    1.0529846954e+02    1.4425109863e+02
    1.0539864349e+02    1.4416510010e+02
    1.0549887848e+02    1.4407809448e+02
    1.0559879303e+02    1.4399209595e+02
    1.0569783783e+02    1.4390509033e+02
    1.0579873657e+02    1.4381610107e+02
    1.0589771271e+02    1.4372909546e+02
    1.0599884033e+02    1.4363909912e+02
    1.0609889221e+02    1.4355010986e+02
    1.0619857025e+02    1.4346009827e+02
    1.0629776001e+02    1.4337010193e+02
    1.0639826965e+02    1.4327909851e+02
    1.0649819946e+02    1.4318811035e+02
    1.0659819794e+02    1.4309609985e+02
    1.0669770050e+02    1.4300408936e+02
    1.0679869080e+02    1.4291009521e+02
    1.0689833832e+02    1.4281610107e+02
    1.0699781799e+02    1.4272309875e+02
    1.0709884644e+02    1.4262710571e+02
    1.0719889069e+02    1.4253210449e+02
    1.0729850769e+02    1.4243710327e+02
    1.0739753723e+02    1.4234210205e+02
    1.0749771881e+02    1.4224510193e+02
    1.0759821320e+02    1.4214810181e+02
    1.0769821167e+02    1.4205010986e+02
    1.0779859924e+02    1.4195210266e+02
    1.0789890289e+02    1.4185310364e+02
    1.0799771118e+02    1.4175509644e+02
    1.0809783173e+02    1.4165509033e+02
    1.0819860077e+02    1.4155410767e+02
    1.0829781342e+02    1.4145410156e+02
    1.0839791107e+02    1.4135310364e+02
    1.0849889374e+02    1.4125009155e+02
    1.0859847260e+02    1.4114810181e+02
    1.0869805145e+02    1.4104609680e+02
    1.0879753113e+02    1.4094309998e+02
    1.0889759064e+02    1.4083911133e+02
    1.0899794769e+02    1.4073410034e+02
    1.0909815216e+02    1.4062908936e+02
    1.0919834137e+02    1.4052410889e+02
    1.0929875946e+02    1.4041709900e+02
    1.0939772034e+02    1.4031210327e+02
    1.0949796295e+02    1.4020510864e+02
    1.0959810638e+02    1.4009710693e+02
    1.0969818115e+02    1.3998910522e+02
    1.0979808807e+02    1.3988110352e+02
    1.0989797974e+02    1.3977209473e+02
    1.0999780273e+02    1.3966310120e+02
    1.1009751892e+02    1.3955310059e+02
    1.1019853210e+02    1.3944110107e+02
    1.1029808807e+02    1.3933110046e+02
    1.1039862823e+02    1.3921810913e+02
    1.1049803162e+02    1.3910710144e+02
    1.1059870911e+02    1.3899411011e+02
    1.1069793701e+02    1.3888110352e+02
    1.1079846191e+02    1.3876708984e+02
    1.1089753723e+02    1.3865409851e+02
    1.1099790192e+02    1.3853909302e+02
    1.1109818268e+02    1.3842309570e+02
    1.1119838715e+02    1.3830709839e+02
    1.1129850769e+02    1.3819110107e+02
    1.1139856720e+02    1.3807409668e+02
    1.1149855042e+02    1.3795709229e+02
    1.1159837341e+02    1.3783911133e+02
    1.1169805145e+02    1.3772109985e+02
    1.1179884338e+02    1.3760211182e+02
    1.1189798737e+02    1.3748309326e+02
    1.1199800873e+02    1.3736410522e+02
    1.1209755707e+02    1.3724411011e+02
    1.1219831085e+02    1.3712210083e+02
    1.1229884338e+02    1.3700009155e+02
    1.1239763641e+02    1.3688009644e+02
    1.1249826050e+02    1.3675610352e+02
    1.1259866333e+02    1.3663310242e+02
    1.1269766235e+02    1.3651110840e+02
    1.1279808807e+02    1.3638610840e+02
    1.1289806366e+02    1.3626210022e+02
    1.1299836731e+02    1.3613710022e+02
    1.1309844971e+02    1.3601110840e+02
    1.1319863129e+02    1.3588510132e+02
    1.1329873657e+02    1.3575810242e+02
    1.1339880371e+02    1.3563110352e+02
    1.1349864197e+02    1.3550408936e+02
    1.1359850311e+02    1.3537609863e+02
    1.1369799042e+02    1.3524810791e+02
    1.1379772949e+02    1.3511911011e+02
    1.1389874268e+02    1.3498809814e+02
    1.1399791718e+02    1.3485910034e+02
    1.1409844971e+02    1.3472810364e+02
    1.1419782257e+02    1.3459809875e+02
    1.1429837799e+02    1.3446609497e+02
    1.1439845276e+02    1.3433309937e+02
    1.1449848175e+02    1.3420111084e+02
    1.1459857941e+02    1.3406710815e+02
    1.1469860840e+02    1.3393409729e+02
    1.1479850769e+02    1.3380010986e+02
    1.1489801788e+02    1.3366610718e+02
    1.1499765778e+02    1.3353109741e+02
    1.1509848785e+02    1.3339410400e+02
    1.1519774628e+02    1.3325909424e+02
    1.1529830933e+02    1.3312210083e+02
    1.1539875031e+02    1.3298410034e+02
    1.1549775696e+02    1.3284710693e+02
    1.1559793854e+02    1.3270910645e+02
    1.1569788361e+02    1.3257009888e+02
    1.1579781342e+02    1.3243109131e+02
    1.1589878845e+02    1.3229010010e+02
    1.1599846649e+02    1.3215010071e+02
    1.1609802246e+02    1.3201010132e+02
    1.1619873810e+02    1.3186810303e+02
    1.1629804230e+02    1.3172711182e+02
    1.1639830780e+02    1.3158509827e+02
    1.1649864960e+02    1.3144110107e+02
    1.1659842682e+02    1.3129809570e+02
    1.1669814301e+02    1.3115509033e+02
    1.1679810333e+02    1.3101110840e+02
    1.1689794922e+02    1.3086610413e+02
    1.1699767303e+02    1.3072109985e+02
    1.1709828949e+02    1.3057510376e+02
    1.1719873810e+02    1.3042810059e+02
    1.1729810333e+02    1.3028210449e+02
    1.1739855957e+02    1.3013409424e+02
    1.1749755859e+02    1.2998809814e+02
    1.1759770966e+02    1.2983911133e+02
    1.1769795227e+02    1.2969009399e+02
    1.1779785919e+02    1.2954110718e+02
    1.1789775085e+02    1.2939109802e+02
    1.1799871826e+02    1.2924009705e+02
    1.1809838104e+02    1.2909010315e+02
    1.1819790649e+02    1.2893910217e+02
    1.1829855347e+02    1.2878610229e+02
    1.1839768982e+02    1.2863510132e+02
    1.1849812317e+02    1.2848210144e+02
    1.1859841156e+02    1.2832809448e+02
    1.1869853973e+02    1.2817410278e+02
    1.1879862213e+02    1.2802011108e+02
    1.1889856720e+02    1.2786509705e+02
    1.1899841309e+02    1.2771109772e+02
    1.1909812164e+02    1.2755509949e+02
    1.1919773102e+02    1.2740010071e+02
    1.1929846191e+02    1.2724210358e+02
    1.1939782715e+02    1.2708609772e+02
    1.1949832153e+02    1.2692710114e+02
    1.1959870148e+02    1.2676910400e+02
    1.1969773102e+02    1.2661209869e+02
    1.1979788208e+02    1.2645210266e+02
    1.1989790344e+02    1.2629309845e+02
    1.1999774170e+02    1.2613310242e+02
    1.2009754944e+02    1.2597309875e+02
    1.2019847870e+02    1.2581009674e+02
    1.2029802704e+02    1.2564910126e+02
    1.2039750671e+02    1.2548809814e+02
    1.2049806976e+02    1.2532510376e+02
    1.2059854889e+02    1.2516110229e+02
    1.2069769287e+02    1.2499909973e+02
    1.2079795074e+02    1.2483509827e+02
    1.2089807892e+02    1.2467009735e+02
    1.2099819946e+02    1.2450510406e+02
    1.2109835815e+02    1.2433910370e+02
    1.2119833374e+02    1.2417410278e+02
    1.2129804230e+02    1.2400810242e+02
    1.2139765167e+02    1.2384210205e+02
    1.2149830627e+02    1.2367310333e+02
    1.2159770966e+02    1.2350610352e+02
    1.2169821930e+02    1.2333709717e+02
    1.2179859161e+02    1.2316809845e+02
    1.2189752197e+02    1.2300109863e+02
    1.2199755096e+02    1.2283110046e+02
    1.2209809875e+02    1.2266010284e+02
    1.2219824219e+02    1.2248909760e+02
    1.2229817200e+02    1.2231809998e+02
    1.2239795685e+02    1.2214710236e+02
    1.2249780273e+02    1.2197509766e+02
    1.2259851837e+02    1.2180110168e+02
    1.2269799805e+02    1.2162909698e+02
    1.2279857635e+02    1.2145510101e+02
    1.2289787292e+02    1.2128209686e+02
    1.2299817657e+02    1.2110710144e+02
    1.2309757996e+02    1.2093409729e+02
    1.2319770813e+02    1.2075810242e+02
    1.2329807281e+02    1.2058209991e+02
    1.2339807129e+02    1.2040609741e+02
    1.2349806976e+02    1.2022910309e+02
    1.2359787750e+02    1.2005210114e+02
    1.2369753265e+02    1.1987509918e+02
    1.2379849243e+02    1.1969509888e+02
    1.2389801025e+02    1.1951809692e+02
    1.2399771118e+02    1.1933910370e+02
    1.2409829712e+02    1.1915910339e+02
    1.2419754028e+02    1.1898010254e+02
    1.2429786682e+02    1.1879930115e+02
    1.2439842987e+02    1.1861750031e+02
    1.2449861908e+02    1.1843589783e+02
    1.2459806061e+02    1.1825520325e+02
    1.2469830322e+02    1.1807260132e+02
    1.2479850769e+02    1.1788960266e+02
    1.2489762115e+02    1.1770809937e+02
    1.2499799347e+02    1.1752390289e+02
    1.2509757996e+02    1.1734069824e+02
    1.2519853973e+02    1.1715450287e+02
    1.2529828644e+02    1.1697010040e+02
    1.2539761353e+02    1.1678600311e+02
    1.2549796295e+02    1.1659960175e+02
    1.2559826660e+02    1.1641280365e+02
    1.2569761658e+02    1.1622740173e+02
    1.2579795837e+02    1.1603970337e+02
    1.2589797211e+02    1.1585210419e+02
    1.2599791718e+02    1.1566419983e+02
    1.2609779358e+02    1.1547599792e+02
    1.2619757080e+02    1.1528759766e+02
    1.2629839325e+02    1.1509670258e+02
    1.2639800262e+02    1.1490769958e+02
    1.2649772644e+02    1.1471810150e+02
    1.2659832001e+02    1.1452629852e+02
    1.2669798279e+02    1.1433589935e+02
    1.2679840088e+02    1.1414360046e+02
    1.2689782715e+02    1.1395279694e+02
    1.2699804688e+02    1.1376000214e+02
    1.2709841919e+02    1.1356649780e+02
    1.2719850922e+02    1.1337310028e+02
    1.2729760742e+02    1.1318119812e+02
    1.2739752960e+02    1.1298729706e+02
    1.2749764252e+02    1.1279250336e+02
    1.2759795380e+02    1.1259700012e+02
    1.2769763184e+02    1.1240229797e+02
    1.2779763794e+02    1.1220639801e+02
    1.2789746857e+02    1.1201059723e+02
    1.2799816895e+02    1.1181250000e+02
    1.2809750366e+02    1.1161679840e+02
    1.2819793701e+02    1.1141840363e+02
    1.2829861450e+02    1.1121920013e+02
    1.2839773560e+02    1.1102259827e+02
    1.2849792480e+02    1.1082350159e+02
    1.2859840393e+02    1.1062329865e+02
    1.2869841003e+02    1.1042369843e+02
    1.2879772949e+02    1.1022509766e+02
    1.2889779663e+02    1.1002449799e+02
    1.2899758911e+02    1.0982409668e+02
    1.2909844971e+02    1.0962110138e+02
    1.2919839478e+02    1.0941950226e+02
    1.2929794312e+02    1.0921839905e+02
    1.2939775085e+02    1.0901630402e+02
    1.2949865723e+02    1.0881159973e+02
    1.2959799194e+02    1.0860960388e+02
    1.2969825745e+02    1.0840530396e+02
    1.2979838562e+02    1.0820100403e+02
    1.2989805603e+02    1.0799710083e+02
    1.2999867249e+02    1.0779090118e+02
    1.3009820557e+02    1.0758650208e+02
    1.3019772339e+02    1.0738179779e+02
    1.3029792786e+02    1.0717520142e+02
    1.3039773560e+02    1.0696900177e+02
    1.3049838257e+02    1.0676080322e+02
    1.3059829712e+02    1.0655360413e+02
    1.3069796753e+02    1.0634660339e+02
    1.3079791260e+02    1.0613850403e+02
    1.3089773560e+02    1.0593039703e+02
    1.3099847412e+02    1.0571990204e+02
    1.3109843445e+02    1.0551070404e+02
    1.3119871521e+02    1.0530039978e+02
    1.3129801941e+02    1.0509169769e+02
    1.3139793396e+02    1.0488140106e+02
    1.3149813843e+02    1.0467009735e+02
    1.3159796143e+02    1.0445919800e+02
    1.3169862366e+02    1.0424620056e+02
    1.3179788208e+02    1.0403569794e+02
    1.3189840698e+02    1.0382219696e+02
    1.3199780273e+02    1.0361070251e+02
    1.3209861755e+02    1.0339579773e+02
    1.3219831848e+02    1.0318289948e+02
    1.3229780579e+02    1.0297010040e+02
    1.3239878845e+02    1.0275360107e+02
    1.3249803162e+02    1.0254060364e+02
    1.3259855652e+02    1.0232440186e+02
    1.3269816589e+02    1.0210980225e+02
    1.3279849243e+02    1.0189330292e+02
    1.3289854431e+02    1.0167700195e+02
    1.3299851990e+02    1.0146050262e+02
    1.3309851074e+02    1.0124359894e+02
    1.3319796753e+02    1.0102750397e+02
    1.3329812622e+02    1.0080950165e+02
    1.3339796448e+02    1.0059179688e+02
    1.3349891663e+02    1.0037139893e+02
    1.3359880066e+02    1.0015290070e+02
    1.3369836426e+02    9.9934799194e+01
    1.3379794312e+02    9.9716300964e+01
    1.3389788818e+02    9.9496597290e+01
    1.3399873352e+02    9.9274497986e+01
    1.3409866333e+02    9.9054100037e+01
    1.3419802856e+02    9.8834701538e+01
    1.3429859924e+02    9.8612197876e+01
    1.3439833069e+02    9.8391197205e+01
    1.3449830627e+02    9.8169303894e+01
    1.3459815979e+02    9.7947303772e+01
    1.3469853210e+02    9.7723899841e+01
    1.3479800415e+02    9.7502098083e+01
    1.3489881897e+02    9.7276901245e+01
    1.3499879456e+02    9.7053298950e+01
    1.3509819031e+02    9.6830596924e+01
    1.3519828796e+02    9.6606002808e+01
    1.3529792786e+02    9.6382102966e+01
    1.3539828491e+02    9.6156204224e+01
    1.3549812317e+02    9.5931198120e+01
    1.3559904480e+02    9.5703399658e+01
    1.3569842529e+02    9.5478698730e+01
    1.3579867554e+02    9.5251701355e+01
    1.3589897156e+02    9.5024299622e+01
    1.3599818420e+02    9.4799003601e+01
    1.3609890747e+02    9.4569999695e+01
    1.3619841003e+02    9.4343299866e+01
    1.3629804993e+02    9.4116104126e+01
    1.3639895630e+02    9.3885597229e+01
    1.3649853516e+02    9.3657798767e+01
    1.3659913635e+02    9.3427398682e+01
    1.3669815063e+02    9.3200302124e+01
    1.3679899597e+02    9.2968597412e+01
    1.3689883423e+02    9.2738998413e+01
    1.3699833679e+02    9.2509696960e+01
    1.3709906006e+02    9.2277397156e+01
    1.3719909668e+02    9.2046302795e+01
    1.3729835510e+02    9.1816703796e+01
    1.3739831543e+02    9.1585197449e+01
    1.3749876404e+02    9.1352203369e+01
    1.3759913635e+02    9.1119102478e+01
    1.3769909668e+02    9.0886596680e+01
    1.3779833984e+02    9.0655403137e+01
    1.3789854431e+02    9.0421798706e+01
    1.3799824524e+02    9.0189002991e+01
    1.3809883118e+02    8.9953804016e+01
    1.3819903564e+02    8.9719200134e+01
    1.3829905701e+02    8.9484703064e+01
    1.3839901733e+02    8.9250099182e+01
    1.3849836731e+02    8.9016601562e+01
    1.3859869385e+02    8.8780502319e+01
    1.3869833374e+02    8.8545700073e+01
    1.3879827881e+02    8.8309898376e+01
    1.3889918518e+02    8.8071502686e+01
    1.3899914551e+02    8.7834999084e+01
    1.3909826660e+02    8.7600303650e+01
    1.3919859314e+02    8.7362403870e+01
    1.3929898071e+02    8.7124099731e+01
    1.3939863586e+02    8.6887199402e+01
    1.3949885559e+02    8.6648696899e+01
    1.3959887695e+02    8.6410400391e+01
    1.3969856262e+02    8.6172500610e+01
    1.3979870605e+02    8.5933303833e+01
    1.3989855957e+02    8.5694503784e+01
    1.3999896240e+02    8.5454200745e+01
    1.4009904480e+02    8.5214202881e+01
    1.4019906616e+02    8.4974197388e+01
    1.4029870605e+02    8.4734802246e+01
    1.4039895630e+02    8.4493598938e+01
    1.4049836731e+02    8.4254203796e+01
    1.4059887695e+02    8.4011901855e+01
    1.4069906616e+02    8.3770004272e+01
    1.4079833984e+02    8.3530197144e+01
    1.4089860535e+02    8.3287597656e+01
    1.4099919128e+02    8.3043998718e+01
    1.4109910583e+02    8.2801803589e+01
    1.4119869995e+02    8.2559997559e+01
    1.4129853821e+02    8.2317398071e+01
    1.4139869690e+02    8.2073799133e+01
    1.4149914551e+02    8.1829101562e+01
    1.4159851074e+02    8.1586898804e+01
    1.4169873047e+02    8.1342300415e+01
    1.4179917908e+02    8.1096900940e+01
    1.4189909363e+02    8.0852500916e+01
    1.4199926758e+02    8.0607200623e+01
    1.4209887695e+02    8.0363098145e+01
    1.4219848633e+02    8.0118698120e+01
    1.4229847717e+02    7.9873100281e+01
    1.4239938354e+02    7.9625000000e+01
    1.4249839783e+02    7.9381301880e+01
    1.4259867859e+02    7.9134300232e+01
    1.4269915771e+02    7.8886398315e+01
    1.4279847717e+02    7.8641204834e+01
    1.4289920044e+02    7.8392303467e+01
    1.4299871826e+02    7.8146202087e+01
    1.4309916687e+02    7.7897399902e+01
    1.4319868469e+02    7.7650695801e+01
    1.4329887390e+02    7.7402198792e+01
    1.4339889526e+02    7.7153800964e+01
    1.4349922180e+02    7.6904403687e+01
    1.4359930420e+02    7.6655303955e+01
    1.4369914246e+02    7.6406600952e+01
    1.4379888916e+02    7.6158004761e+01
    1.4389935303e+02    7.5907196045e+01
    1.4399859619e+02    7.5659301758e+01
    1.4409858704e+02    7.5409301758e+01
    1.4419885254e+02    7.5158401489e+01
    1.4429858398e+02    7.4908500671e+01
    1.4439888000e+02    7.4657104492e+01
    1.4449935913e+02    7.4404899597e+01
    1.4459869385e+02    7.4155395508e+01
    1.4469888306e+02    7.3903503418e+01
    1.4479879761e+02    7.3652000427e+01
    1.4489866638e+02    7.3400497437e+01
    1.4499891663e+02    7.3147705078e+01
    1.4509947205e+02    7.2893997192e+01
    1.4519938660e+02    7.2641601562e+01
    1.4529867554e+02    7.2390602112e+01
    1.4539866638e+02    7.2137695312e+01
    1.4549888611e+02    7.1883895874e+01
    1.4559904480e+02    7.1630096436e+01
    1.4569902039e+02    7.1376403809e+01
    1.4579881287e+02    7.1123100281e+01
    1.4589950562e+02    7.0867202759e+01
    1.4599955750e+02    7.0612800598e+01
    1.4609960938e+02    7.0358100891e+01
    1.4619865417e+02    7.0105804443e+01
    1.4629948425e+02    6.9848701477e+01
    1.4639949036e+02    6.9593505859e+01
    1.4649943542e+02    6.9338302612e+01
    1.4659956360e+02    6.9082397461e+01
    1.4669889832e+02    6.8828300476e+01
    1.4679919434e+02    6.8571502686e+01
    1.4689883423e+02    6.8316200256e+01
    1.4699873352e+02    6.8060104370e+01
    1.4709931946e+02    6.7801895142e+01
    1.4719947815e+02    6.7544700623e+01
    1.4729879761e+02    6.7289398193e+01
    1.4739964294e+02    6.7029998779e+01
    1.4749876404e+02    6.6774795532e+01
    1.4759887695e+02    6.6516899109e+01
    1.4769949341e+02    6.6257499695e+01
    1.4779888916e+02    6.6000999451e+01
    1.4789947510e+02    6.5741302490e+01
    1.4799931335e+02    6.5483200073e+01
    1.4809960938e+02    6.5223899841e+01
    1.4819972229e+02    6.4964797974e+01
    1.4829884338e+02    6.4708099365e+01
    1.4839912415e+02    6.4448104858e+01
    1.4849938965e+02    6.4188003540e+01
    1.4859941101e+02    6.3928401947e+01
    1.4869908142e+02    6.3669502258e+01
    1.4879953003e+02    6.3408401489e+01
    1.4889970398e+02    6.3147800446e+01
    1.4899974060e+02    6.2887401581e+01
    1.4909936523e+02    6.2627799988e+01
    1.4919891357e+02    6.2368301392e+01
    1.4929899597e+02    6.2107200623e+01
    1.4939939880e+02    6.1845100403e+01
    1.4949949646e+02    6.1583599091e+01
    1.4959910583e+02    6.1323200226e+01
    1.4969897461e+02    6.1061901093e+01
    1.4979914856e+02    6.0799701691e+01
    1.4989904785e+02    6.0538002014e+01
    1.4999993896e+02    6.0273502350e+01
    1.5009957886e+02    6.0012100220e+01
    1.5019894409e+02    5.9751201630e+01
    1.5029902649e+02    5.9488300323e+01
    1.5039996338e+02    5.9223098755e+01
    1.5049966431e+02    5.8960800171e+01
    1.5059910583e+02    5.8699001312e+01
    1.5069932556e+02    5.8435100555e+01
    1.5079919434e+02    5.8171901703e+01
    1.5089984131e+02    5.7906501770e+01
    1.5099920654e+02    5.7644199371e+01
    1.5109930420e+02    5.7380001068e+01
    1.5119909668e+02    5.7116199493e+01
    1.5129960632e+02    5.6850502014e+01
    1.5139981079e+02    5.6585399628e+01
    1.5149974060e+02    5.6320899963e+01
    1.5159939575e+02    5.6056900024e+01
    1.5169970703e+02    5.5791000366e+01
    1.5179974365e+02    5.5525600433e+01
    1.5189950562e+02    5.5260898590e+01
    1.5199992371e+02    5.4994201660e+01
    1.5210006714e+02    5.4728099823e+01
    1.5219992065e+02    5.4462600708e+01
    1.5229948425e+02    5.4197700500e+01
    1.5239970398e+02    5.3930900574e+01
    1.5249963379e+02    5.3664699554e+01
    1.5259927368e+02    5.3399101257e+01
    1.5269958496e+02    5.3131698608e+01
    1.5279957581e+02    5.2864799500e+01
    1.5289930725e+02    5.2598602295e+01
    1.5299964905e+02    5.2330501556e+01
    1.5309971619e+02    5.2062999725e+01
    1.5319947815e+02    5.1796100616e+01
    1.5329988098e+02    5.1527400970e+01
    1.5339999390e+02    5.1259300232e+01
    1.5349980164e+02    5.0991901398e+01
    1.5359933472e+02    5.0725097656e+01
    1.5369946289e+02    5.0456501007e+01
    1.5379931641e+02    5.0188499451e+01
    1.5389978027e+02    4.9918701172e+01
    1.5399995422e+02    4.9649600983e+01
    1.5409982300e+02    4.9381099701e+01
    1.5419940186e+02    4.9113201141e+01
    1.5429957581e+02    4.8843601227e+01
    1.5439945984e+02    4.8574600220e+01
    1.5449993896e+02    4.8303901672e+01
    1.5460012817e+02    4.8033798218e+01
    1.5470002747e+02    4.7764400482e+01
    1.5479960632e+02    4.7495597839e+01
    1.5489979553e+02    4.7225097656e+01
    1.5499967957e+02    4.6955200195e+01
    1.5510014343e+02    4.6683700562e+01
    1.5519943237e+02    4.6415100098e+01
    1.5530018616e+02    4.6142601013e+01
    1.5539976501e+02    4.5873001099e+01
    1.5549990845e+02    4.5601699829e+01
    1.5559977722e+02    4.5331100464e+01
    1.5570018005e+02    4.5058799744e+01
    1.5579945374e+02    4.4789501190e+01
    1.5590014648e+02    4.4516201019e+01
    1.5599966431e+02    4.4245903015e+01
    1.5609976196e+02    4.3973999023e+01
    1.5619955444e+02    4.3702697754e+01
    1.5629991150e+02    4.3429801941e+01
    1.5639996338e+02    4.3157501221e+01
    1.5649972534e+02    4.2885902405e+01
    1.5660003662e+02    4.2612701416e+01
    1.5670004272e+02    4.2340202332e+01
    1.5679977417e+02    4.2068298340e+01
    1.5690002441e+02    4.1794799805e+01
    1.5700000000e+02    4.1522003174e+01
    1.5709968567e+02    4.1249900818e+01
    1.5719989014e+02    4.0976100922e+01
    1.5729980469e+02    4.0703102112e+01
    1.5740025330e+02    4.0428398132e+01
    1.5750039673e+02    4.0154399872e+01
    1.5760026550e+02    3.9881099701e+01
    1.5769984436e+02    3.9608497620e+01
    1.5779995728e+02    3.9334300995e+01
    1.5789976501e+02    3.9060699463e+01
    1.5800010681e+02    3.8785598755e+01
    1.5810014343e+02    3.8511199951e+01
    1.5819990540e+02    3.8237400055e+01
    1.5830018616e+02    3.7961997986e+01
    1.5840017700e+02    3.7687400818e+01
    1.5849987793e+02    3.7413398743e+01
    1.5860009766e+02    3.7137802124e+01
    1.5870004272e+02    3.6862899780e+01
    1.5880049133e+02    3.6586502075e+01
    1.5889987183e+02    3.6312900543e+01
    1.5899975586e+02    3.6037799835e+01
    1.5910014343e+02    3.5761199951e+01
    1.5920025635e+02    3.5485198975e+01
    1.5930009460e+02    3.5209899902e+01
    1.5940043640e+02    3.4932998657e+01
    1.5950050354e+02    3.4656799316e+01
    1.5960031128e+02    3.4381301880e+01
    1.5969984436e+02    3.4106300354e+01
    1.5979986572e+02    3.3829902649e+01
    1.5990039062e+02    3.3551902771e+01
    1.5999987793e+02    3.3276699066e+01
    1.6009986877e+02    3.3000000000e+01
    1.6020034790e+02    3.2721900940e+01
    1.6030058289e+02    3.2444301605e+01
    1.6040054321e+02    3.2167400360e+01
    1.6050024414e+02    3.1891000748e+01
    1.6060043335e+02    3.1613201141e+01
    1.6070036316e+02    3.1336000443e+01
    1.6080004883e+02    3.1059400558e+01
    1.6090022278e+02    3.0781299591e+01
    1.6100015259e+02    3.0503799438e+01
    1.6110055542e+02    3.0224800110e+01
    1.6119999695e+02    2.9948501587e+01
    1.6129991150e+02    2.9670700073e+01
    1.6140031433e+02    2.9391399384e+01
    1.6150047302e+02    2.9112701416e+01
    1.6160040283e+02    2.8834579468e+01
    1.6170007324e+02    2.8557010651e+01
    1.6180026245e+02    2.8277980804e+01
    1.6190019226e+02    2.7999500275e+01
    1.6200062561e+02    2.7719551086e+01
    1.6210008240e+02    2.7442169189e+01
    1.6220004272e+02    2.7163320541e+01
    1.6230050659e+02    2.6883010864e+01
    1.6240000916e+02    2.6605230331e+01
    1.6250000000e+02    2.6325990677e+01
    1.6260049438e+02    2.6045280457e+01
    1.6270004272e+02    2.5767089844e+01
    1.6280007935e+02    2.5487440109e+01
    1.6290060425e+02    2.5206319809e+01
    1.6300021362e+02    2.4927690506e+01
    1.6310032654e+02    2.4647590637e+01
    1.6320021057e+02    2.4368000031e+01
    1.6330058289e+02    2.4086940765e+01
    1.6340075684e+02    2.3806390762e+01
    1.6350071716e+02    2.3526321411e+01
    1.6360046387e+02    2.3246749878e+01
    1.6370071411e+02    2.2965700150e+01
    1.6380076599e+02    2.2685140610e+01
    1.6390060425e+02    2.2405050278e+01
    1.6400024414e+02    2.2125440598e+01
    1.6410038757e+02    2.1844350815e+01
    1.6420033264e+02    2.1563730240e+01
    1.6430078125e+02    2.1281641006e+01
    1.6440034485e+02    2.1001930237e+01
    1.6450041199e+02    2.0720741272e+01
    1.6460028076e+02    2.0440000534e+01
    1.6470065308e+02    2.0157791138e+01
    1.6480017090e+02    1.9877929688e+01
    1.6490017700e+02    1.9596588135e+01
    1.6500068665e+02    1.9313764572e+01
    1.6510034180e+02    1.9033279419e+01
    1.6520048523e+02    1.8751310349e+01
    1.6530047607e+02    1.8469757080e+01
    1.6540028381e+02    1.8188608170e+01
    1.6550059509e+02    1.7905969620e+01
    1.6560075378e+02    1.7623741150e+01
    1.6570074463e+02    1.7341899872e+01
    1.6580056763e+02    1.7060449600e+01
    1.6590089417e+02    1.6777509689e+01
    1.6600041199e+02    1.6496829987e+01
    1.6610043335e+02    1.6214639664e+01
    1.6620030212e+02    1.5932820320e+01
    1.6630067444e+02    1.5649499893e+01
    1.6640090942e+02    1.5366540909e+01
    1.6650033569e+02    1.5085800171e+01
    1.6660093689e+02    1.4801670074e+01
    1.6670074463e+02    1.4519750595e+01
    1.6680041504e+02    1.4238170624e+01
    1.6690060425e+02    1.3955060959e+01
    1.6700065613e+02    1.3672280312e+01
    1.6710058594e+02    1.3389820099e+01
    1.6720037842e+02    1.3107680321e+01
    1.6730070496e+02    1.2823989868e+01
    1.6740089417e+02    1.2540620804e+01
    1.6750097656e+02    1.2257539749e+01
    1.6760093689e+02    1.1974760056e+01
    1.6770079041e+02    1.1692260742e+01
    1.6780052185e+02    1.1410050392e+01
    1.6790078735e+02    1.1126270294e+01
    1.6800094604e+02    1.0842770576e+01
    1.6810099792e+02    1.0559540749e+01
    1.6820095825e+02    1.0276560783e+01
    1.6830081177e+02    9.9938402176e+00
    1.6840055847e+02    9.7113704681e+00
    1.6850085449e+02    9.4273099899e+00
    1.6860107422e+02    9.1434907913e+00
    1.6870054626e+02    8.8617000580e+00
    1.6880058289e+02    8.5784006119e+00
    1.6890065002e+02    8.2949008942e+00
    1.6900079346e+02    8.0112009048e+00
    1.6910093689e+02    7.7274007797e+00
    1.6920089722e+02    7.4442005157e+00
    1.6930075073e+02    7.1613006592e+00
    1.6940071106e+02    6.8780002594e+00
    1.6950103760e+02    6.5937004089e+00
    1.6960108948e+02    6.3102006912e+00
    1.6970083618e+02    6.0275001526e+00
    1.6980105591e+02    5.7435007095e+00
    1.6990092468e+02    5.4605007172e+00
    1.7000094604e+02    5.1770000458e+00
    1.7010061646e+02    4.8945007324e+00
    1.7020060730e+02    4.6112003326e+00
    1.7030068970e+02    4.3276004791e+00
    1.7040083313e+02    4.0438003540e+00
    1.7050099182e+02    3.7600002289e+00
    1.7060113525e+02    3.4762001038e+00
    1.7070095825e+02    3.1934003830e+00
    1.7080058289e+02    2.9111003876e+00
    1.7090069580e+02    2.6274013519e+00
    1.7100090027e+02    2.3436012268e+00
    1.7110098267e+02    2.0601005554e+00
    1.7120094299e+02    1.7770004272e+00
    1.7130070496e+02    1.4944000244e+00
    1.7140077209e+02    1.2110996246e+00
    1.7150071716e+02    9.2810058594e-01
    1.7160067749e+02    6.4509963989e-01
    1.7170062256e+02    3.6210060120e-01
    1.7180116272e+02    7.7600479126e-02
    1.7190118408e+02   -2.0549964905e-01
    1.7200111389e+02   -4.8830032349e-01
    1.7210113525e+02   -7.7120018005e-01
    1.7220115662e+02   -1.0541992188e+00
    1.7230117798e+02   -1.3370990753e+00
    1.7240121460e+02   -1.6198997498e+00
    1.7250126648e+02   -1.9027996063e+00
    1.7260133362e+02   -2.1856002808e+00
    1.7270072937e+02   -2.4664993286e+00
    1.7280082703e+02   -2.7493000031e+00
    1.7290093994e+02   -3.0320987701e+00
    1.7300108337e+02   -3.3148994446e+00
    1.7310125732e+02   -3.5977001190e+00
    1.7320077515e+02   -3.8785991669e+00
    1.7330099487e+02   -4.1614990234e+00
    1.7340127563e+02   -4.4442996979e+00
    1.7350088501e+02   -4.7252998352e+00
    1.7360122681e+02   -5.0081996918e+00
    1.7370092773e+02   -5.2891998291e+00
    1.7380136108e+02   -5.5721988678e+00
    1.7390115356e+02   -5.8533000946e+00
    1.7400100708e+02   -6.1344985962e+00
    1.7410090637e+02   -6.4156990051e+00
    1.7420085144e+02   -6.6968994141e+00
    1.7430087280e+02   -6.9783000946e+00
    1.7440093994e+02   -7.2596988678e+00
    1.7450106812e+02   -7.5410995483e+00
    1.7460127258e+02   -7.8226985931e+00
    1.7470086670e+02   -8.1023998260e+00
    1.7480119324e+02   -8.3840999603e+00
    1.7490092468e+02   -8.6639995575e+00
    1.7500141907e+02   -8.9458999634e+00
    1.7510130310e+02   -9.2258987427e+00
    1.7520127869e+02   -9.5060997009e+00
    1.7530134583e+02   -9.7863998413e+00
    1.7540147400e+02   -1.0066799164e+01
    1.7550103760e+02   -1.0345399857e+01
    1.7560134888e+02   -1.0625999451e+01
    1.7570109558e+02   -1.0904899597e+01
    1.7580091858e+02   -1.1183898926e+01
    1.7590086365e+02   -1.1462999344e+01
    1.7600088501e+02   -1.1742198944e+01
    1.7610102844e+02   -1.2021598816e+01
    1.7620129395e+02   -1.2301198959e+01
    1.7630096436e+02   -1.2578899384e+01
    1.7640144348e+02   -1.2858798981e+01
    1.7650134277e+02   -1.3136898041e+01
    1.7660136414e+02   -1.3415100098e+01
    1.7670150757e+02   -1.3693500519e+01
    1.7680108643e+02   -1.3970199585e+01
    1.7690147400e+02   -1.4248901367e+01
    1.7700131226e+02   -1.4525897980e+01
    1.7710127258e+02   -1.4803100586e+01
    1.7720138550e+02   -1.5080497742e+01
    1.7730160522e+02   -1.5358100891e+01
    1.7740129089e+02   -1.5633899689e+01
    1.7750111389e+02   -1.5909900665e+01
    1.7760107422e+02   -1.6186199188e+01
    1.7770118713e+02   -1.6462600708e+01
    1.7780143738e+02   -1.6739200592e+01
    1.7790115356e+02   -1.7014198303e+01
    1.7800102234e+02   -1.7289299011e+01
    1.7810104370e+02   -1.7564598083e+01
    1.7820121765e+02   -1.7840198517e+01
    1.7830155945e+02   -1.8116001129e+01
    1.7840136719e+02   -1.8389999390e+01
    1.7850132751e+02   -1.8664299011e+01
    1.7860145569e+02   -1.8938800812e+01
    1.7870103455e+02   -1.9211601257e+01
    1.7880151367e+02   -1.9486499786e+01
    1.7890145874e+02   -1.9759799957e+01
    1.7900157166e+02   -2.0033298492e+01
    1.7910113525e+02   -2.0305099487e+01
    1.7920161438e+02   -2.0579097748e+01
    1.7930155945e+02   -2.0851299286e+01
    1.7940168762e+02   -2.1123798370e+01
    1.7950126648e+02   -2.1394599915e+01
    1.7960104370e+02   -2.1665599823e+01
    1.7970173645e+02   -2.1938899994e+01
    1.7980116272e+02   -2.2208400726e+01
    1.7990153503e+02   -2.2480197906e+01
    1.8000135803e+02   -2.2750301361e+01
    1.8010139465e+02   -2.3020599365e+01
    1.8020161438e+02   -2.3291198730e+01
    1.8030131531e+02   -2.3560100555e+01
    1.8040122986e+02   -2.3829200745e+01
    1.8050134277e+02   -2.4098598480e+01
    1.8060166931e+02   -2.4368301392e+01
    1.8070146179e+02   -2.4636199951e+01
    1.8080148315e+02   -2.4904399872e+01
    1.8090170288e+02   -2.5172901154e+01
    1.8100140381e+02   -2.5439598083e+01
    1.8110131836e+02   -2.5706600189e+01
    1.8120147705e+02   -2.5973899841e+01
    1.8130183411e+02   -2.6241500854e+01
    1.8140168762e+02   -2.6507301331e+01
    1.8150175476e+02   -2.6773498535e+01
    1.8160128784e+02   -2.7037799835e+01
    1.8170181274e+02   -2.7304500580e+01
    1.8180181885e+02   -2.7569400787e+01
    1.8190130615e+02   -2.7832599640e+01
    1.8200178528e+02   -2.8098098755e+01
    1.8210173035e+02   -2.8361801147e+01
    1.8220115662e+02   -2.8623798370e+01
    1.8230158997e+02   -2.8888099670e+01
    1.8240148926e+02   -2.9150600433e+01
    1.8250164795e+02   -2.9413497925e+01
    1.8260127258e+02   -2.9674499512e+01
    1.8270191956e+02   -2.9937900543e+01
    1.8280125427e+02   -3.0197498322e+01
    1.8290162659e+02   -3.0459400177e+01
    1.8300146484e+02   -3.0719497681e+01
    1.8310156250e+02   -3.0979900360e+01
    1.8320191956e+02   -3.1240600586e+01
    1.8330174255e+02   -3.1499500275e+01
    1.8340180969e+02   -3.1758701324e+01
    1.8350135803e+02   -3.2016098022e+01
    1.8360195923e+02   -3.2275798798e+01
    1.8370123291e+02   -3.2531700134e+01
    1.8380155945e+02   -3.2789897919e+01
    1.8390135193e+02   -3.3046298981e+01
    1.8400140381e+02   -3.3303001404e+01
    1.8410174561e+02   -3.3559898376e+01
    1.8420152283e+02   -3.3814998627e+01
    1.8430158997e+02   -3.4070400238e+01
    1.8440191650e+02   -3.4326099396e+01
    1.8450169373e+02   -3.4579898834e+01
    1.8460176086e+02   -3.4833999634e+01
    1.8470127869e+02   -3.5086299896e+01
    1.8480189514e+02   -3.5340900421e+01
    1.8490194702e+02   -3.5593700409e+01
    1.8500146484e+02   -3.5844600677e+01
    1.8510208130e+02   -3.6097900391e+01
    1.8520130920e+02   -3.6347198486e+01
    1.8530166626e+02   -3.6598899841e+01
    1.8540144348e+02   -3.6848697662e+01
    1.8550151062e+02   -3.7098697662e+01
    1.8560174561e+02   -3.7348598480e+01
    1.8570129395e+02   -3.7596401215e+01
    1.8580186462e+02   -3.7846298218e+01
    1.8590173340e+02   -3.8093898773e+01
    1.8600178528e+02   -3.8341499329e+01
    1.8610197449e+02   -3.8588897705e+01
    1.8620150757e+02   -3.8834197998e+01
    1.8630203247e+02   -3.9081501007e+01
    1.8640187073e+02   -3.9326599121e+01
    1.8650178528e+02   -3.9571399689e+01
    1.8660173035e+02   -3.9815700531e+01
    1.8670170593e+02   -4.0059600830e+01
    1.8680172729e+02   -4.0303100586e+01
    1.8690177917e+02   -4.0546199799e+01
    1.8700187683e+02   -4.0788799286e+01
    1.8710200500e+02   -4.1030998230e+01
    1.8720216370e+02   -4.1272800446e+01
    1.8730151367e+02   -4.1512100220e+01
    1.8740177917e+02   -4.1752998352e+01
    1.8750207520e+02   -4.1993499756e+01
    1.8760156250e+02   -4.2231498718e+01
    1.8770196533e+02   -4.2471199036e+01
    1.8780154419e+02   -4.2708297729e+01
    1.8790203857e+02   -4.2947097778e+01
    1.8800172424e+02   -4.3183399200e+01
    1.8810145569e+02   -4.3419300079e+01
    1.8820210266e+02   -4.3656799316e+01
    1.8830195618e+02   -4.3891799927e+01
    1.8840185547e+02   -4.4126300812e+01
    1.8850180054e+02   -4.4360500336e+01
    1.8860180664e+02   -4.4594200134e+01
    1.8870187378e+02   -4.4827499390e+01
    1.8880201721e+02   -4.5060302734e+01
    1.8890220642e+02   -4.5292701721e+01
    1.8900158691e+02   -4.5522598267e+01
    1.8910191345e+02   -4.5754096985e+01
    1.8920228577e+02   -4.5985198975e+01
    1.8930186462e+02   -4.6213798523e+01
    1.8940151978e+02   -4.6442001343e+01
    1.8950210571e+02   -4.6671798706e+01
    1.8960188293e+02   -4.6899101257e+01
    1.8970173645e+02   -4.7125999451e+01
    1.8980166626e+02   -4.7352401733e+01
    1.8990168762e+02   -4.7578399658e+01
    1.9000175476e+02   -4.7803901672e+01
    1.9010191345e+02   -4.8028999329e+01
    1.9020213318e+02   -4.8253700256e+01
    1.9030157471e+02   -4.8475898743e+01
    1.9040197754e+02   -4.8699699402e+01
    1.9050157166e+02   -4.8920997620e+01
    1.9060212708e+02   -4.9143898010e+01
    1.9070190430e+02   -4.9364402771e+01
    1.9080174255e+02   -4.9584396362e+01
    1.9090168762e+02   -4.9804000854e+01
    1.9100172424e+02   -5.0023101807e+01
    1.9110183716e+02   -5.0241699219e+01
    1.9120205688e+02   -5.0459999084e+01
    1.9130235291e+02   -5.0677696228e+01
    1.9140187073e+02   -5.0893096924e+01
    1.9150236511e+02   -5.1110000610e+01
    1.9160206604e+02   -5.1324501038e+01
    1.9170187378e+02   -5.1538497925e+01
    1.9180177307e+02   -5.1752098083e+01
    1.9190176392e+02   -5.1965301514e+01
    1.9200187683e+02   -5.2177902222e+01
    1.9210209656e+02   -5.2390197754e+01
    1.9220239258e+02   -5.2601898193e+01
    1.9230192566e+02   -5.2811302185e+01
    1.9240246582e+02   -5.3022201538e+01
    1.9250219727e+02   -5.3230697632e+01
    1.9260197449e+02   -5.3438598633e+01
    1.9270176697e+02   -5.3645797729e+01
    1.9280247498e+02   -5.3854202271e+01
    1.9290231323e+02   -5.4060096741e+01
    1.9300216675e+02   -5.4265396118e+01
    1.9310202026e+02   -5.4469902039e+01
    1.9320190430e+02   -5.4673797607e+01
    1.9330183411e+02   -5.4877098083e+01
    1.9340179443e+02   -5.5079795837e+01
    1.9350172424e+02   -5.5281600952e+01
    1.9360174561e+02   -5.5483001709e+01
    1.9370173645e+02   -5.5683502197e+01
    1.9380174255e+02   -5.5883300781e+01
    1.9390176392e+02   -5.6082496643e+01
    1.9400189209e+02   -5.6281097412e+01
    1.9410208130e+02   -5.6479103088e+01
    1.9420216370e+02   -5.6676200867e+01
    1.9430241394e+02   -5.6872802734e+01
    1.9440255737e+02   -5.7068496704e+01
    1.9450181580e+02   -5.7261695862e+01
    1.9460198975e+02   -5.7456001282e+01
    1.9470217896e+02   -5.7649597168e+01
    1.9480239868e+02   -5.7842399597e+01
    1.9490264893e+02   -5.8034500122e+01
    1.9500201416e+02   -5.8224296570e+01
    1.9510232544e+02   -5.8415000916e+01
    1.9520263672e+02   -5.8604896545e+01
    1.9530206299e+02   -5.8792495728e+01
    1.9540243530e+02   -5.8981002808e+01
    1.9550192261e+02   -5.9167098999e+01
    1.9560234070e+02   -5.9354202271e+01
    1.9570196533e+02   -5.9539001465e+01
    1.9580255127e+02   -5.9724800110e+01
    1.9590249634e+02   -5.9908699036e+01
    1.9600210571e+02   -6.0091201782e+01
    1.9610264587e+02   -6.0274497986e+01
    1.9620234680e+02   -6.0455596924e+01
    1.9630203247e+02   -6.0635803223e+01
    1.9640266418e+02   -6.0817001343e+01
    1.9650239563e+02   -6.0995697021e+01
    1.9660244751e+02   -6.1174201965e+01
    1.9670222473e+02   -6.1351402283e+01
    1.9680204773e+02   -6.1527900696e+01
    1.9690280151e+02   -6.1705200195e+01
    1.9700268555e+02   -6.1880203247e+01
    1.9710267639e+02   -6.2054496765e+01
    1.9720260620e+02   -6.2227996826e+01
    1.9730256653e+02   -6.2400596619e+01
    1.9740254211e+02   -6.2572502136e+01
    1.9750254822e+02   -6.2743598938e+01
    1.9760258484e+02   -6.2914001465e+01
    1.9770271301e+02   -6.3083602905e+01
    1.9780279541e+02   -6.3252403259e+01
    1.9790202332e+02   -6.3418899536e+01
    1.9800216675e+02   -6.3586097717e+01
    1.9810232544e+02   -6.3752502441e+01
    1.9820254517e+02   -6.3918098450e+01
    1.9830276489e+02   -6.4082901001e+01
    1.9840211487e+02   -6.4245399475e+01
    1.9850250244e+02   -6.4408798218e+01
    1.9860281372e+02   -6.4571197510e+01
    1.9870225525e+02   -6.4731300354e+01
    1.9880262756e+02   -6.4892097473e+01
    1.9890226746e+02   -6.5050903320e+01
    1.9900270081e+02   -6.5209999084e+01
    1.9910223389e+02   -6.5366897583e+01
    1.9920271301e+02   -6.5524398804e+01
    1.9930232239e+02   -6.5679702759e+01
    1.9940286255e+02   -6.5835601807e+01
    1.9950265503e+02   -6.5989402771e+01
    1.9960235596e+02   -6.6142196655e+01
    1.9970297241e+02   -6.6295600891e+01
    1.9980271912e+02   -6.6446701050e+01
    1.9990249634e+02   -6.6597000122e+01
endcurve
