Curveplot
LS-DYNA keyword deck by LS-PrePost
Abscissa
Ordinate
XY data
NBDLHeadxCoo-1 #pts=2000
* Minval=     3.8422401428e+01 at time=         0.0000000000
* Maxval=     4.2614807129e+02 at time=       180.2016143799
    0.0000000000e+00    3.8422401428e+01
    9.8665714264e-02    3.8422401428e+01
    1.9887307286e-01    3.8422401428e+01
    2.9908046126e-01    3.8422401428e+01
    3.9928781986e-01    3.8422401428e+01
    4.9949517846e-01    3.8422401428e+01
    5.9970253706e-01    3.8422401428e+01
    6.9990992546e-01    3.8422401428e+01
    7.9857563972e-01    3.8422401428e+01
    8.9878296852e-01    3.8422401428e+01
    9.9899035692e-01    3.8422401428e+01
    1.0991977453e+00    3.8422500610e+01
    1.1994050741e+00    3.8422500610e+01
    1.2996125221e+00    3.8422500610e+01
    1.3998198509e+00    3.8422500610e+01
    1.4984854460e+00    3.8422599792e+01
    1.5986928940e+00    3.8422599792e+01
    1.6989003420e+00    3.8422599792e+01
    1.7991075516e+00    3.8422698975e+01
    1.8993149996e+00    3.8422698975e+01
    1.9995224476e+00    3.8422798157e+01
    2.0997297764e+00    3.8422798157e+01
    2.1988718510e+00    3.8422798157e+01
    2.2988712788e+00    3.8422897339e+01
    2.3984723091e+00    3.8423000336e+01
    2.4986445904e+00    3.8423000336e+01
    2.5998818874e+00    3.8423099518e+01
    2.6987984180e+00    3.8423099518e+01
    2.7989702225e+00    3.8423202515e+01
    2.8992376328e+00    3.8423301697e+01
    2.9985520840e+00    3.8423400879e+01
    3.0997893810e+00    3.8423400879e+01
    3.1996753216e+00    3.8423500061e+01
    3.2991802692e+00    3.8423599243e+01
    3.3993523121e+00    3.8423698425e+01
    3.4992382526e+00    3.8423797607e+01
    3.5988385677e+00    3.8423900604e+01
    3.6992011070e+00    3.8423999786e+01
    3.7990875244e+00    3.8424098969e+01
    3.8996403217e+00    3.8424201965e+01
    3.9992403984e+00    3.8424301147e+01
    4.0989356041e+00    3.8424400330e+01
    4.1984410286e+00    3.8424499512e+01
    4.2988033295e+00    3.8424697876e+01
    4.3986892700e+00    3.8424797058e+01
    4.4988613129e+00    3.8424900055e+01
    4.5999078751e+00    3.8424999237e+01
    4.6996979713e+00    3.8425201416e+01
    4.7998700142e+00    3.8425300598e+01
    4.8998508453e+00    3.8425399780e+01
    4.9996414185e+00    3.8425598145e+01
    5.0991458893e+00    3.8425697327e+01
    5.1991271973e+00    3.8425899506e+01
    5.2985196114e+00    3.8426002502e+01
    5.3997554779e+00    3.8426200867e+01
    5.4993553162e+00    3.8426399231e+01
    5.5994138718e+00    3.8426498413e+01
    5.6985373497e+00    3.8426700592e+01
    5.7992801666e+00    3.8426898956e+01
    5.8996419907e+00    3.8427001953e+01
    5.9992418289e+00    3.8427200317e+01
    6.0984601974e+00    3.8427398682e+01
    6.1998877525e+00    3.8427597046e+01
    6.2998690605e+00    3.8427799225e+01
    6.3993563652e+00    3.8428001404e+01
    6.4984636307e+00    3.8428199768e+01
    6.5987305641e+00    3.8428398132e+01
    6.6990933418e+00    3.8428600311e+01
    6.7999496460e+00    3.8428802490e+01
    6.8999309540e+00    3.8429000854e+01
    6.9997220039e+00    3.8429199219e+01
    7.0999894142e+00    3.8429500580e+01
    7.1998758316e+00    3.8429698944e+01
    7.2990779877e+00    3.8429901123e+01
    7.3984708786e+00    3.8430198669e+01
    7.4994225502e+00    3.8430397034e+01
    7.5994997025e+00    3.8430599213e+01
    7.6994819641e+00    3.8430900574e+01
    7.7989873886e+00    3.8431098938e+01
    7.8987789154e+00    3.8431400299e+01
    7.9998264313e+00    3.8431701660e+01
    8.0983619690e+00    3.8431900024e+01
    8.1996946335e+00    3.8432197571e+01
    8.2989139557e+00    3.8432399750e+01
    8.3985929489e+00    3.8432701111e+01
    8.4986877441e+00    3.8432998657e+01
    8.5996398926e+00    3.8433300018e+01
    8.6998128891e+00    3.8433601379e+01
    8.7999858856e+00    3.8433898926e+01
    8.8992843628e+00    3.8434200287e+01
    8.9990758896e+00    3.8434501648e+01
    9.0995340347e+00    3.8434799194e+01
    9.1998023987e+00    3.8435100555e+01
    9.2987365723e+00    3.8435401917e+01
    9.3990049362e+00    3.8435699463e+01
    9.4993686676e+00    3.8436000824e+01
    9.5992555618e+00    3.8436401367e+01
    9.6999044418e+00    3.8436698914e+01
    9.7989168167e+00    3.8437000275e+01
    9.8988037109e+00    3.8437400818e+01
    9.9993572235e+00    3.8437698364e+01
    1.0099148750e+01    3.8437999725e+01
    1.0199892998e+01    3.8438400269e+01
    1.0299876213e+01    3.8438800812e+01
    1.0398887634e+01    3.8439102173e+01
    1.0499745369e+01    3.8439498901e+01
    1.0598567009e+01    3.8439800262e+01
    1.0699043274e+01    3.8440200806e+01
    1.0799215317e+01    3.8440597534e+01
    1.0898418427e+01    3.8441001892e+01
    1.0999464989e+01    3.8441398621e+01
    1.1099923134e+01    3.8441799164e+01
    1.1199143410e+01    3.8442199707e+01
    1.1298744202e+01    3.8442600250e+01
    1.1398803711e+01    3.8442901611e+01
    1.1499262810e+01    3.8443298340e+01
    1.1599149704e+01    3.8443698883e+01
    1.1699513435e+01    3.8444099426e+01
    1.1799304962e+01    3.8444499969e+01
    1.1898905754e+01    3.8444999695e+01
    1.1999460220e+01    3.8445400238e+01
    1.2098395348e+01    3.8445800781e+01
    1.2198852539e+01    3.8446300507e+01
    1.2299996376e+01    3.8446701050e+01
    1.2398721695e+01    3.8447200775e+01
    1.2498895645e+01    3.8447601318e+01
    1.2599450111e+01    3.8448101044e+01
    1.2699909210e+01    3.8448600769e+01
    1.2799128532e+01    3.8449001312e+01
    1.2899873734e+01    3.8449501038e+01
    1.2998887062e+01    3.8449897766e+01
    1.3099840164e+01    3.8450401306e+01
    1.3198947906e+01    3.8450897217e+01
    1.3299519539e+01    3.8451400757e+01
    1.3399787903e+01    3.8451900482e+01
    1.3499771118e+01    3.8452400208e+01
    1.3599563599e+01    3.8452899933e+01
    1.3699642181e+01    3.8453399658e+01
    1.3799719810e+01    3.8453899384e+01
    1.3899703026e+01    3.8454399109e+01
    1.3998907089e+01    3.8455001831e+01
    1.4098604202e+01    3.8455497742e+01
    1.4198681831e+01    3.8455902100e+01
    1.4299730301e+01    3.8456501007e+01
    1.4399427414e+01    3.8457000732e+01
    1.4499791145e+01    3.8457599640e+01
    1.4599868774e+01    3.8458198547e+01
    1.4698596001e+01    3.8458702087e+01
    1.4798483849e+01    3.8459300995e+01
    1.4899340630e+01    3.8459899902e+01
    1.4999608994e+01    3.8460399628e+01
    1.5098622322e+01    3.8460899353e+01
    1.5199668884e+01    3.8461502075e+01
    1.5298492432e+01    3.8462100983e+01
    1.5398777962e+01    3.8462699890e+01
    1.5498950958e+01    3.8463298798e+01
    1.5599314690e+01    3.8464000702e+01
    1.5699107170e+01    3.8464500427e+01
    1.5799566269e+01    3.8465099335e+01
    1.5899264336e+01    3.8465698242e+01
    1.5999627113e+01    3.8466400146e+01
    1.6098831177e+01    3.8467002869e+01
    1.6199005127e+01    3.8467597961e+01
    1.6298797607e+01    3.8468299866e+01
    1.6398590088e+01    3.8468799591e+01
    1.6499923706e+01    3.8469501495e+01
    1.6598842621e+01    3.8470199585e+01
    1.6698730469e+01    3.8470798492e+01
    1.6798635483e+01    3.8471500397e+01
    1.6899572372e+01    3.8472099304e+01
    1.6998983383e+01    3.8472801208e+01
    1.7099729538e+01    3.8473499298e+01
    1.7198856354e+01    3.8474197388e+01
    1.7298744202e+01    3.8474899292e+01
    1.7399110794e+01    3.8475498199e+01
    1.7499380112e+01    3.8476200104e+01
    1.7599460602e+01    3.8476898193e+01
    1.7698665619e+01    3.8477600098e+01
    1.7799619675e+01    3.8478401184e+01
    1.7899984360e+01    3.8479000092e+01
    1.7999380112e+01    3.8479797363e+01
    1.8098699570e+01    3.8480499268e+01
    1.8199445724e+01    3.8481300354e+01
    1.8299146652e+01    3.8481903076e+01
    1.8399415970e+01    3.8482700348e+01
    1.8499782562e+01    3.8483497620e+01
    1.8598512650e+01    3.8484199524e+01
    1.8698783875e+01    3.8484901428e+01
    1.8799339294e+01    3.8485698700e+01
    1.8899515152e+01    3.8486499786e+01
    1.8999977112e+01    3.8487197876e+01
    1.9098707199e+01    3.8487998962e+01
    1.9199567795e+01    3.8488800049e+01
    1.9299743652e+01    3.8489498138e+01
    1.9399822235e+01    3.8490398407e+01
    1.9499904633e+01    3.8491199493e+01
    1.9599014282e+01    3.8491897583e+01
    1.9699096680e+01    3.8492797852e+01
    1.9799081802e+01    3.8493598938e+01
    1.9898685455e+01    3.8494400024e+01
    2.0000022888e+01    3.8495201111e+01
    2.0099323273e+01    3.8496101379e+01
    2.0199214935e+01    3.8496902466e+01
    2.0299676895e+01    3.8497699738e+01
    2.0398979187e+01    3.8498600006e+01
    2.0499250412e+01    3.8499401093e+01
    2.0598760605e+01    3.8500301361e+01
    2.0699985504e+01    3.8501098633e+01
    2.0799400330e+01    3.8501998901e+01
    2.0899387360e+01    3.8502899170e+01
    2.0999183655e+01    3.8503700256e+01
    2.1098882675e+01    3.8504699707e+01
    2.1199726105e+01    3.8505500793e+01
    2.1299999237e+01    3.8506401062e+01
    2.1398824692e+01    3.8507400513e+01
    2.1499002457e+01    3.8508201599e+01
    2.1599290848e+01    3.8509201050e+01
    2.1699657440e+01    3.8510101318e+01
    2.1799358368e+01    3.8511001587e+01
    2.1899648666e+01    3.8511901855e+01
    2.1998664856e+01    3.8512901306e+01
    2.2099699020e+01    3.8513801575e+01
    2.2199209213e+01    3.8514801025e+01
    2.2299577713e+01    3.8515701294e+01
    2.2398784637e+01    3.8516700745e+01
    2.2498865128e+01    3.8517601013e+01
    2.2599822998e+01    3.8518600464e+01
    2.2699314117e+01    3.8519500732e+01
    2.2799398422e+01    3.8520599365e+01
    2.2898527145e+01    3.8521499634e+01
    2.2998800278e+01    3.8522399902e+01
    2.3099454880e+01    3.8523498535e+01
    2.3199726105e+01    3.8524497986e+01
    2.3299697876e+01    3.8525497437e+01
    2.3398826599e+01    3.8526500702e+01
    2.3499689102e+01    3.8527603149e+01
    2.3599468231e+01    3.8528499603e+01
    2.3699758530e+01    3.8529502869e+01
    2.3800031662e+01    3.8530601501e+01
    2.3900037766e+01    3.8531600952e+01
    2.3998559952e+01    3.8532600403e+01
    2.4099214554e+01    3.8533798218e+01
    2.4199409485e+01    3.8534801483e+01
    2.4299970627e+01    3.8535797119e+01
    2.4400053024e+01    3.8536899567e+01
    2.4499355316e+01    3.8538002014e+01
    2.4599630356e+01    3.8539001465e+01
    2.4698837280e+01    3.8540199280e+01
    2.4799112320e+01    3.8541297913e+01
    2.4899385452e+01    3.8542301178e+01
    2.4998611450e+01    3.8543399811e+01
    2.5099855423e+01    3.8544601440e+01
    2.5199922562e+01    3.8545700073e+01
    2.5298957825e+01    3.8546798706e+01
    2.5399534225e+01    3.8547901154e+01
    2.5499219894e+01    3.8549102783e+01
    2.5599988937e+01    3.8550201416e+01
    2.5699499130e+01    3.8551300049e+01
    2.5798820496e+01    3.8552398682e+01
    2.5898904800e+01    3.8553600311e+01
    2.5999734879e+01    3.8554698944e+01
    2.6098674774e+01    3.8555999756e+01
    2.6198568344e+01    3.8557098389e+01
    2.6298635483e+01    3.8558300018e+01
    2.6398736954e+01    3.8559501648e+01
    2.6499679565e+01    3.8560699463e+01
    2.6600049973e+01    3.8561901093e+01
    2.6700056076e+01    3.8562999725e+01
    2.6799932480e+01    3.8564201355e+01
    2.6899255753e+01    3.8565399170e+01
    2.6999530792e+01    3.8566699982e+01
    2.7099901199e+01    3.8567901611e+01
    2.7198444366e+01    3.8569099426e+01
    2.7299882889e+01    3.8570301056e+01
    2.7399013519e+01    3.8571601868e+01
    2.7499099731e+01    3.8572799683e+01
    2.7598897934e+01    3.8574100494e+01
    2.7698698044e+01    3.8575302124e+01
    2.7800039291e+01    3.8576599121e+01
    2.7898965836e+01    3.8577899933e+01
    2.7999050140e+01    3.8579200745e+01
    2.8099327087e+01    3.8580497742e+01
    2.8199602127e+01    3.8581798553e+01
    2.8299116135e+01    3.8583099365e+01
    2.8399202347e+01    3.8584400177e+01
    2.8499383926e+01    3.8585700989e+01
    2.8599851608e+01    3.8587001801e+01
    2.8699459076e+01    3.8588302612e+01
    2.8799243927e+01    3.8589599609e+01
    2.8899423599e+01    3.8590999603e+01
    2.8998540878e+01    3.8592300415e+01
    2.9099786758e+01    3.8593597412e+01
    2.9198902130e+01    3.8595001221e+01
    2.9299863815e+01    3.8596397400e+01
    2.9398788452e+01    3.8597698212e+01
    2.9499162674e+01    3.8598999023e+01
    2.9599533081e+01    3.8600399017e+01
    2.9699811935e+01    3.8601898193e+01
    2.9799516678e+01    3.8603298187e+01
    2.9899221420e+01    3.8604598999e+01
    2.9998718262e+01    3.8605998993e+01
    3.0098901749e+01    3.8607398987e+01
    3.0199272156e+01    3.8608802795e+01
    3.0299264908e+01    3.8610298157e+01
    3.0399257660e+01    3.8611698151e+01
    3.0499914169e+01    3.8613197327e+01
    3.0600002289e+01    3.8614501953e+01
    3.0699899673e+01    3.8616001129e+01
    3.0799985886e+01    3.8617401123e+01
    3.0898912430e+01    3.8618900299e+01
    3.0999111176e+01    3.8620399475e+01
    3.1099771500e+01    3.8621898651e+01
    3.1198810577e+01    3.8623298645e+01
    3.1299581528e+01    3.8624900818e+01
    3.1399953842e+01    3.8626399994e+01
    3.1499849319e+01    3.8627998352e+01
    3.1598491669e+01    3.8629402161e+01
    3.1698768616e+01    3.8630897522e+01
    3.1799142838e+01    3.8632598877e+01
    3.1899627686e+01    3.8634098053e+01
    3.2000080109e+01    3.8635601044e+01
    3.2099498749e+01    3.8637298584e+01
    3.2199588776e+01    3.8638801575e+01
    3.2299293518e+01    3.8640399933e+01
    3.2399955750e+01    3.8642101288e+01
    3.2499851227e+01    3.8643699646e+01
    3.2599750519e+01    3.8645298004e+01
    3.2699169159e+01    3.8646900177e+01
    3.2798763275e+01    3.8648601532e+01
    3.2898757935e+01    3.8650299072e+01
    3.2999721527e+01    3.8651901245e+01
    3.3098648071e+01    3.8653598785e+01
    3.3199707031e+01    3.8655300140e+01
    3.3299892426e+01    3.8656997681e+01
    3.3399978638e+01    3.8658699036e+01
    3.3499004364e+01    3.8660400391e+01
    3.3599170685e+01    3.8662300110e+01
    3.3699943542e+01    3.8664001465e+01
    3.3799747467e+01    3.8665802002e+01
    3.3898677826e+01    3.8667598724e+01
    3.3998672485e+01    3.8669399261e+01
    3.4098476410e+01    3.8671199799e+01
    3.4198566437e+01    3.8672901154e+01
    3.4298656464e+01    3.8674800873e+01
    3.4400001526e+01    3.8676700592e+01
    3.4499996185e+01    3.8678501129e+01
    3.4599880219e+01    3.8680400848e+01
    3.4699573517e+01    3.8682399750e+01
    3.4798519135e+01    3.8684299469e+01
    3.4899772644e+01    3.8686100006e+01
    3.4998416901e+01    3.8688102722e+01
    3.5098506927e+01    3.8690002441e+01
    3.5199073792e+01    3.8692100525e+01
    3.5299259186e+01    3.8694000244e+01
    3.5398796082e+01    3.8695999146e+01
    3.5499538422e+01    3.8698101044e+01
    3.5599056244e+01    3.8700099945e+01
    3.5700023651e+01    3.8702098846e+01
    3.5799163818e+01    3.8704200745e+01
    3.5898967743e+01    3.8706199646e+01
    3.5999248505e+01    3.8708396912e+01
    3.6099342346e+01    3.8710502625e+01
    3.6198669434e+01    3.8712600708e+01
    3.6299617767e+01    3.8714698792e+01
    3.6399711609e+01    3.8717002869e+01
    3.6498641968e+01    3.8719100952e+01
    3.6599399567e+01    3.8721401215e+01
    3.6698921204e+01    3.8723499298e+01
    3.6798805237e+01    3.8725799561e+01
    3.6898536682e+01    3.8728099823e+01
    3.6998722076e+01    3.8730300903e+01
    3.7099292755e+01    3.8732700348e+01
    3.7198524475e+01    3.8735000610e+01
    3.7299571991e+01    3.8737300873e+01
    3.7398712158e+01    3.8739700317e+01
    3.7498519897e+01    3.8742099762e+01
    3.7599090576e+01    3.8744499207e+01
    3.7699752808e+01    3.8746902466e+01
    3.7798892975e+01    3.8749298096e+01
    3.7899845123e+01    3.8751800537e+01
    3.7998683929e+01    3.8754299164e+01
    3.8099555969e+01    3.8756797791e+01
    3.8199157715e+01    3.8759300232e+01
    3.8298488617e+01    3.8761898041e+01
    3.8398563385e+01    3.8764400482e+01
    3.8499439240e+01    3.8767097473e+01
    3.8598659515e+01    3.8769699097e+01
    3.8699626923e+01    3.8772300720e+01
    3.8799343109e+01    3.8774898529e+01
    3.8899723053e+01    3.8777599335e+01
    3.8999816895e+01    3.8780300140e+01
    3.9099910736e+01    3.8783100128e+01
    3.9199722290e+01    3.8785900116e+01
    3.9299911499e+01    3.8788700104e+01
    3.9399723053e+01    3.8791400909e+01
    3.9498561859e+01    3.8794200897e+01
    3.9599914551e+01    3.8797199249e+01
    3.9698753357e+01    3.8799999237e+01
    3.9799228668e+01    3.8802902222e+01
    3.9899517059e+01    3.8805900574e+01
    3.9998947144e+01    3.8808799744e+01
    4.0099613190e+01    3.8811901093e+01
    4.0198455811e+01    3.8814800262e+01
    4.0299903870e+01    3.8817897797e+01
    4.0399604797e+01    3.8820899963e+01
    4.0499622345e+01    3.8824100494e+01
    4.0599227905e+01    3.8827201843e+01
    4.0699798584e+01    3.8830299377e+01
    4.0799800873e+01    3.8833499908e+01
    4.0899120331e+01    3.8836700439e+01
    4.0999313354e+01    3.8839900970e+01
    4.1099887848e+01    3.8843200684e+01
    4.1198841095e+01    3.8846500397e+01
    4.1299037933e+01    3.8849800110e+01
    4.1398944855e+01    3.8853099823e+01
    4.1498470306e+01    3.8856498718e+01
    4.1599922180e+01    3.8859901428e+01
    4.1699432373e+01    3.8863300323e+01
    4.1799148560e+01    3.8866802216e+01
    4.1898391724e+01    3.8870300293e+01
    4.1999538422e+01    3.8873802185e+01
    4.2099159241e+01    3.8877399445e+01
    4.2199737549e+01    3.8881000519e+01
    4.2299739838e+01    3.8884700775e+01
    4.2398777008e+01    3.8888298035e+01
    4.2498989105e+01    3.8892002106e+01
    4.2598899841e+01    3.8895599365e+01
    4.2698711395e+01    3.8899398804e+01
    4.2799861908e+01    3.8903301239e+01
    4.2899868011e+01    3.8907001495e+01
    4.2998615265e+01    3.8910800934e+01
    4.3098907471e+01    3.8914802551e+01
    4.3199104309e+01    3.8918601990e+01
    4.3299304962e+01    3.8922599792e+01
    4.3399612427e+01    3.8926597595e+01
    4.3499412537e+01    3.8930599213e+01
    4.3599117279e+01    3.8934600830e+01
    4.3698650360e+01    3.8938598633e+01
    4.3799228668e+01    3.8942798615e+01
    4.3899238586e+01    3.8946899414e+01
    4.3999343872e+01    3.8951099396e+01
    4.4098762512e+01    3.8955299377e+01
    4.4199344635e+01    3.8959503174e+01
    4.4298477173e+01    3.8963897705e+01
    4.4399551392e+01    3.8968200684e+01
    4.4498382568e+01    3.8972499847e+01
    4.4598487854e+01    3.8976898193e+01
    4.4698688507e+01    3.8981399536e+01
    4.4798412323e+01    3.8985801697e+01
    4.4898994446e+01    3.8990402222e+01
    4.4999576569e+01    3.8994899750e+01
    4.5098426819e+01    3.8999401093e+01
    4.5198726654e+01    3.9004100800e+01
    4.5298831940e+01    3.9008800507e+01
    4.5399223328e+01    3.9013401031e+01
    4.5498741150e+01    3.9018199921e+01
    4.5599819183e+01    3.9023002625e+01
    4.5698974609e+01    3.9027801514e+01
    4.5798397064e+01    3.9032699585e+01
    4.5899837494e+01    3.9037700653e+01
    4.5999660492e+01    3.9042598724e+01
    4.6098514557e+01    3.9047599792e+01
    4.6198337555e+01    3.9052600861e+01
    4.6298351288e+01    3.9057701111e+01
    4.6398651123e+01    3.9062900543e+01
    4.6499443054e+01    3.9068199158e+01
    4.6598773956e+01    3.9073402405e+01
    4.6698883057e+01    3.9078701019e+01
    4.6798992157e+01    3.9083999634e+01
    4.6898818970e+01    3.9089401245e+01
    4.6998531342e+01    3.9094898224e+01
    4.7099613190e+01    3.9100502014e+01
    4.7198657990e+01    3.9105998993e+01
    4.7298484802e+01    3.9111602783e+01
    4.7399757385e+01    3.9117301941e+01
    4.7498405457e+01    3.9123001099e+01
    4.7599681854e+01    3.9128799438e+01
    4.7698726654e+01    3.9134597778e+01
    4.7798347473e+01    3.9140499115e+01
    4.7899333954e+01    3.9146499634e+01
    4.7999641418e+01    3.9152599335e+01
    4.8099166870e+01    3.9158599854e+01
    4.8199661255e+01    3.9164798737e+01
    4.8299682617e+01    3.9170997620e+01
    4.8398635864e+01    3.9177200317e+01
    4.8498638153e+01    3.9183502197e+01
    4.8598659515e+01    3.9189899445e+01
    4.8699348450e+01    3.9196399689e+01
    4.8799747467e+01    3.9202999115e+01
    4.8898418427e+01    3.9209499359e+01
    4.8999107361e+01    3.9216201782e+01
    4.9098350525e+01    3.9222900391e+01
    4.9198467255e+01    3.9229698181e+01
    4.9299747467e+01    3.9236698151e+01
    4.9398799896e+01    3.9243598938e+01
    4.9498725891e+01    3.9250598907e+01
    4.9599227905e+01    3.9257797241e+01
    4.9699710846e+01    3.9264999390e+01
    4.9798667908e+01    3.9272197723e+01
    4.9899646759e+01    3.9279602051e+01
    4.9999668121e+01    3.9287101746e+01
    5.0098247528e+01    3.9294601440e+01
    5.0199131012e+01    3.9302200317e+01
    5.0299728394e+01    3.9309997559e+01
    5.0399562836e+01    3.9317798615e+01
    5.0499778748e+01    3.9325698853e+01
    5.0598930359e+01    3.9333599091e+01
    5.0699245453e+01    3.9341701508e+01
    5.0798698425e+01    3.9349899292e+01
    5.0899585724e+01    3.9358200073e+01
    5.0999214172e+01    3.9366600037e+01
    5.1098670959e+01    3.9375000000e+01
    5.1199653625e+01    3.9383701324e+01
    5.1298423767e+01    3.9392299652e+01
    5.1398628235e+01    3.9401100159e+01
    5.1498275757e+01    3.9409900665e+01
    5.1599639893e+01    3.9419101715e+01
    5.1699672699e+01    3.9428298950e+01
    5.1798351288e+01    3.9437400818e+01
    5.1898479462e+01    3.9446800232e+01
    5.1998985291e+01    3.9456298828e+01
    5.2098239899e+01    3.9465801239e+01
    5.2198654175e+01    3.9475502014e+01
    5.2299354553e+01    3.9485500336e+01
    5.2399101257e+01    3.9495498657e+01
    5.2499214172e+01    3.9505599976e+01
    5.2598487854e+01    3.9515800476e+01
    5.2699569702e+01    3.9526199341e+01
    5.2799510956e+01    3.9536800385e+01
    5.2898860931e+01    3.9547302246e+01
    5.2999374390e+01    3.9558200836e+01
    5.3099506378e+01    3.9569099426e+01
    5.3198669434e+01    3.9580001831e+01
    5.3298786163e+01    3.9591300964e+01
    5.3398330688e+01    3.9602600098e+01
    5.3498943329e+01    3.9614200592e+01
    5.3599456787e+01    3.9625900269e+01
    5.3698337555e+01    3.9637500763e+01
    5.3799617767e+01    3.9649700165e+01
    5.3898593903e+01    3.9661697388e+01
    5.3998619080e+01    3.9673999786e+01
    5.4099517822e+01    3.9686599731e+01
    5.4198879242e+01    3.9699100494e+01
    5.4298538208e+01    3.9711898804e+01
    5.4398376465e+01    3.9724800110e+01
    5.4499279022e+01    3.9738098145e+01
    5.4599689484e+01    3.9751499176e+01
    5.4698192596e+01    3.9764900208e+01
    5.4799003601e+01    3.9778598785e+01
    5.4898937225e+01    3.9792602539e+01
    5.4999557495e+01    3.9806701660e+01
    5.5098255157e+01    3.9820800781e+01
    5.5198970795e+01    3.9835399628e+01
    5.5299499512e+01    3.9850200653e+01
    5.5399055481e+01    3.9865001678e+01
    5.5498802185e+01    3.9880001068e+01
    5.5599521637e+01    3.9895401001e+01
    5.5698890686e+01    3.9910900116e+01
    5.5798179626e+01    3.9926399231e+01
    5.5899570465e+01    3.9942600250e+01
    5.5998939514e+01    3.9958602905e+01
    5.6099662781e+01    3.9975002289e+01
    5.6199607849e+01    3.9991699219e+01
    5.6298805237e+01    4.0008300781e+01
    5.6398845673e+01    4.0025398254e+01
    5.6498504639e+01    4.0042598724e+01
    5.6599308014e+01    4.0060100555e+01
    5.6698474884e+01    4.0077697754e+01
    5.6799110413e+01    4.0095901489e+01
    5.6898216248e+01    4.0113899231e+01
    5.6999423981e+01    4.0132499695e+01
    5.7099086761e+01    4.0151100159e+01
    5.7198944092e+01    4.0170001984e+01
    5.7299102783e+01    4.0189201355e+01
    5.7399532318e+01    4.0208702087e+01
    5.7498821259e+01    4.0228302002e+01
    5.7598583221e+01    4.0248100281e+01
    5.7698841095e+01    4.0268501282e+01
    5.7798130035e+01    4.0288700104e+01
    5.7899154663e+01    4.0309700012e+01
    5.7998523712e+01    4.0330600739e+01
    5.8098880768e+01    4.0351898193e+01
    5.8198169708e+01    4.0373397827e+01
    5.8299007416e+01    4.0395301819e+01
    5.8398300171e+01    4.0417301178e+01
    5.8498455048e+01    4.0439800262e+01
    5.8598419189e+01    4.0462501526e+01
    5.8698478699e+01    4.0485500336e+01
    5.8799415588e+01    4.0508899689e+01
    5.8899093628e+01    4.0532402039e+01
    5.8998489380e+01    4.0556098938e+01
    5.9099029541e+01    4.0580398560e+01
    5.9199573517e+01    4.0604900360e+01
    5.9299545288e+01    4.0629699707e+01
    5.9398754120e+01    4.0654499054e+01
    5.9499298096e+01    4.0679901123e+01
    5.9599464417e+01    4.0705600739e+01
    5.9699058533e+01    4.0731498718e+01
    5.9799034119e+01    4.0757701874e+01
    5.9899204254e+01    4.0784198761e+01
    5.9999565125e+01    4.0811199188e+01
    6.0098194122e+01    4.0837902069e+01
    6.0198844910e+01    4.0865600586e+01
    6.0298637390e+01    4.0893199921e+01
    6.0399383545e+01    4.0921501160e+01
    6.0498416901e+01    4.0949699402e+01
    6.0598976135e+01    4.0978401184e+01
    6.0698394775e+01    4.1007301331e+01
    6.0798576355e+01    4.1036701202e+01
    6.0898281097e+01    4.1066200256e+01
    6.0998561859e+01    4.1096199036e+01
    6.1098747253e+01    4.1126499176e+01
    6.1199413300e+01    4.1157299042e+01
    6.1298931122e+01    4.1188102722e+01
    6.1399120331e+01    4.1219299316e+01
    6.1498931885e+01    4.1250801086e+01
    6.1599502563e+01    4.1282798767e+01
    6.1699031830e+01    4.1314899445e+01
    6.1798347473e+01    4.1347198486e+01
    6.1898353577e+01    4.1380001068e+01
    6.1998077393e+01    4.1413101196e+01
    6.2098655701e+01    4.1446800232e+01
    6.2198856354e+01    4.1480697632e+01
    6.2298870087e+01    4.1514801025e+01
    6.2398788452e+01    4.1549400330e+01
    6.2499279022e+01    4.1584300995e+01
    6.2599010468e+01    4.1619400024e+01
    6.2698932648e+01    4.1654899597e+01
    6.2799144745e+01    4.1690799713e+01
    6.2899150848e+01    4.1726997375e+01
    6.2999080658e+01    4.1763500214e+01
    6.3098705292e+01    4.1800201416e+01
    6.3199401855e+01    4.1837699890e+01
    6.3298652649e+01    4.1874900818e+01
    6.3398208618e+01    4.1912700653e+01
    6.3499595642e+01    4.1951400757e+01
    6.3598754883e+01    4.1989799500e+01
    6.3699462891e+01    4.2028999329e+01
    6.3799484253e+01    4.2068298340e+01
    6.3899528503e+01    4.2107997894e+01
    6.3998600006e+01    4.2147598267e+01
    6.4098548889e+01    4.2187900543e+01
    6.4199172974e+01    4.2229000092e+01
    6.4298728943e+01    4.2269798279e+01
    6.4398284912e+01    4.2311100006e+01
    6.4498718262e+01    4.2353099823e+01
    6.4598281860e+01    4.2395198822e+01
    6.4699295044e+01    4.2438102722e+01
    6.4798667908e+01    4.2480800629e+01
    6.4898254395e+01    4.2523998260e+01
    6.4998794556e+01    4.2567901611e+01
    6.5098861694e+01    4.2612098694e+01
    6.5199401855e+01    4.2656902313e+01
    6.5299568176e+01    4.2701801300e+01
    6.5399337769e+01    4.2747001648e+01
    6.5499023438e+01    4.2792499542e+01
    6.5598602295e+01    4.2838500977e+01
    6.5698875427e+01    4.2885101318e+01
    6.5798950195e+01    4.2931999207e+01
    6.5898063660e+01    4.2979000092e+01
    6.5998619080e+01    4.3027099609e+01
    6.6098892212e+01    4.3075302124e+01
    6.6198219299e+01    4.3123699188e+01
    6.6297920227e+01    4.3172599792e+01
    6.6399368286e+01    4.3222801208e+01
    6.6498962402e+01    4.3272499084e+01
    6.6597991943e+01    4.3322399139e+01
    6.6697990417e+01    4.3373199463e+01
    6.6798278809e+01    4.3424697876e+01
    6.6899429321e+01    4.3477100372e+01
    6.6998176575e+01    4.3528701782e+01
    6.7098281860e+01    4.3581501007e+01
    6.7198577881e+01    4.3634799957e+01
    6.7298187256e+01    4.3688400269e+01
    6.7398490906e+01    4.3742599487e+01
    6.7498886108e+01    4.3797500610e+01
    6.7598510742e+01    4.3852500916e+01
    6.7699096680e+01    4.3908599854e+01
    6.7798248291e+01    4.3964302063e+01
    6.7898651123e+01    4.4021301270e+01
    6.7999443054e+01    4.4078998566e+01
    6.8098213196e+01    4.4136199951e+01
    6.8198318481e+01    4.4194602966e+01
    6.8299209595e+01    4.4253997803e+01
    6.8398277283e+01    4.4312896729e+01
    6.8499076843e+01    4.4373397827e+01
    6.8599403381e+01    4.4434200287e+01
    6.8699348450e+01    4.4495300293e+01
    6.8799087524e+01    4.4556900024e+01
    6.8898254395e+01    4.4618698120e+01
    6.8998687744e+01    4.4682003021e+01
    6.9098640442e+01    4.4745502472e+01
    6.9198593140e+01    4.4809700012e+01
    6.9297958374e+01    4.4874000549e+01
    6.9398094177e+01    4.4939502716e+01
    6.9498825073e+01    4.5006103516e+01
    6.9598289490e+01    4.5072399139e+01
    6.9698928833e+01    4.5140201569e+01
    6.9798118591e+01    4.5207698822e+01
    6.9898757935e+01    4.5276901245e+01
    6.9998428345e+01    4.5346000671e+01
    7.0099456787e+01    4.5416801453e+01
    7.0197967529e+01    4.5486598969e+01
    7.0299476624e+01    4.5559097290e+01
    7.0398582458e+01    4.5630699158e+01
    7.0498161316e+01    4.5703300476e+01
    7.0599205017e+01    4.5777702332e+01
    7.0698890686e+01    4.5851902008e+01
    7.0798675537e+01    4.5926998138e+01
    7.0898178101e+01    4.6002502441e+01
    7.0998352051e+01    4.6079399109e+01
    7.1098526001e+01    4.6156898499e+01
    7.1198608398e+01    4.6235298157e+01
    7.1298789978e+01    4.6314601898e+01
    7.1398010254e+01    4.6393898010e+01
    7.1497909546e+01    4.6474601746e+01
    7.1598098755e+01    4.6556400299e+01
    7.1698287964e+01    4.6638999939e+01
    7.1798004150e+01    4.6722000122e+01
    7.1898200989e+01    4.6806400299e+01
    7.1998397827e+01    4.6891700745e+01
    7.2098312378e+01    4.6977600098e+01
    7.2198135376e+01    4.7064399719e+01
    7.2298339844e+01    4.7152400970e+01
    7.2398071289e+01    4.7240978241e+01
    7.2499443054e+01    4.7331962585e+01
    7.2598014832e+01    4.7421470642e+01
    7.2699394226e+01    4.7514419556e+01
    7.2798851013e+01    4.7606731415e+01
    7.2898788452e+01    4.7700431824e+01
    7.2998725891e+01    4.7795169830e+01
    7.3098381042e+01    4.7890647888e+01
    7.3198616028e+01    4.7987819672e+01
    7.3298751831e+01    4.8085929871e+01
    7.3398605347e+01    4.8184883118e+01
    7.3498847961e+01    4.8285331726e+01
    7.3598617554e+01    4.8386329651e+01
    7.3698379517e+01    4.8488559723e+01
    7.3798629761e+01    4.8592380524e+01
    7.3898406982e+01    4.8696861267e+01
    7.3998085022e+01    4.8802459717e+01
    7.4098342896e+01    4.8909740448e+01
    7.4198608398e+01    4.9018337250e+01
    7.4298873901e+01    4.9128150940e+01
    7.4399040222e+01    4.9238990784e+01
    7.4498451233e+01    4.9350307465e+01
    7.4598533630e+01    4.9463500977e+01
    7.4698806763e+01    4.9578277588e+01
    7.4799087524e+01    4.9694271088e+01
    7.4899368286e+01    4.9811580658e+01
    7.4998008728e+01    4.9928230286e+01
    7.5098297119e+01    5.0048057556e+01
    7.5198585510e+01    5.0169300079e+01
    7.5298881531e+01    5.0291847229e+01
    7.5399177551e+01    5.0415710449e+01
    7.5499382019e+01    5.0540878296e+01
    7.5599205017e+01    5.0666893005e+01
    7.5697860718e+01    5.0792808533e+01
    7.5798164368e+01    5.0922187805e+01
    7.5898185730e+01    5.1052600861e+01
    7.5998497009e+01    5.1184890747e+01
    7.6098808289e+01    5.1318470001e+01
    7.6198547363e+01    5.1452911377e+01
    7.6298484802e+01    5.1588928223e+01
    7.6398803711e+01    5.1727020264e+01
    7.6499130249e+01    5.1866600037e+01
    7.6599266052e+01    5.2007389069e+01
    7.6699211121e+01    5.2149501801e+01
    7.6797798157e+01    5.2291042328e+01
    7.6897941589e+01    5.2436412811e+01
    7.6998275757e+01    5.2583557129e+01
    7.7098617554e+01    5.2732299805e+01
    7.7198959351e+01    5.2882617950e+01
    7.7299110413e+01    5.3034248352e+01
    7.7397811890e+01    5.3185329437e+01
    7.7498161316e+01    5.3340408325e+01
    7.7598510742e+01    5.3497077942e+01
    7.7698867798e+01    5.3655529022e+01
    7.7799034119e+01    5.3815181732e+01
    7.7899009705e+01    5.3976226807e+01
    7.7999374390e+01    5.4139621735e+01
    7.8098091125e+01    5.4301879883e+01
    7.8199340820e+01    5.4470111847e+01
    7.8298065186e+01    5.4635719299e+01
    7.8398437500e+01    5.4805812836e+01
    7.8498817444e+01    5.4977668762e+01
    7.8599197388e+01    5.5151191711e+01
    7.8699195862e+01    5.5325828552e+01
    7.8799194336e+01    5.5502140045e+01
    7.8897933960e+01    5.5677978516e+01
    7.8998229980e+01    5.5858379364e+01
    7.9098625183e+01    5.6040630341e+01
    7.9199020386e+01    5.6224739075e+01
    7.9297767639e+01    5.6407630920e+01
    7.9398170471e+01    5.6595260620e+01
    7.9498565674e+01    5.6784740448e+01
    7.9598968506e+01    5.6976081848e+01
    7.9697731018e+01    5.7165988922e+01
    7.9798133850e+01    5.7360927582e+01
    7.9898544312e+01    5.7557819366e+01
    7.9998954773e+01    5.7756450653e+01
    8.0097717285e+01    5.7953769684e+01
    8.0198127747e+01    5.8156089783e+01
    8.0298545837e+01    5.8360446930e+01
    8.0398963928e+01    5.8566661835e+01
    8.0497734070e+01    5.8771450043e+01
    8.0598152161e+01    5.8981422424e+01
    8.0698570251e+01    5.9193431854e+01
    8.0798698425e+01    5.9406822205e+01
    8.0899116516e+01    5.9622791290e+01
    8.0997894287e+01    5.9837150574e+01
    8.1098312378e+01    6.0056980133e+01
    8.1198738098e+01    6.0278930664e+01
    8.1299156189e+01    6.0502906799e+01
    8.1397933960e+01    6.0725181580e+01
    8.1498352051e+01    6.0953189850e+01
    8.1598770142e+01    6.1183219910e+01
    8.1699195862e+01    6.1415359497e+01
    8.1797966003e+01    6.1645698547e+01
    8.1898384094e+01    6.1881973267e+01
    8.1998802185e+01    6.2120349884e+01
    8.2099220276e+01    6.2360916138e+01
    8.2197990417e+01    6.2599609375e+01
    8.2298408508e+01    6.2844291687e+01
    8.2398818970e+01    6.3091278076e+01
    8.2499237061e+01    6.3340362549e+01
    8.2597999573e+01    6.3587448120e+01
    8.2698120117e+01    6.3840167999e+01
    8.2798522949e+01    6.4095733643e+01
    8.2898933411e+01    6.4353576660e+01
    8.2997688293e+01    6.4609336853e+01
    8.3098083496e+01    6.4871559143e+01
    8.3198486328e+01    6.5136062622e+01
    8.3298873901e+01    6.5402839661e+01
    8.3399269104e+01    6.5671791077e+01
    8.3498008728e+01    6.5938560486e+01
    8.3597816467e+01    6.6210479736e+01
    8.3698005676e+01    6.6485687256e+01
    8.3798286438e+01    6.6763450623e+01
    8.3898651123e+01    6.7043739319e+01
    8.3999015808e+01    6.7326293945e+01
    8.4097732544e+01    6.7606590271e+01
    8.4199256897e+01    6.7897102356e+01
    8.4297958374e+01    6.8181900024e+01
    8.4398300171e+01    6.8473777771e+01
    8.4498641968e+01    6.8768013000e+01
    8.4598968506e+01    6.9064575195e+01
    8.4697654724e+01    6.9358589172e+01
    8.4797966003e+01    6.9659950256e+01
    8.4898277283e+01    6.9963645935e+01
    8.4998291016e+01    7.0268951416e+01
    8.5098587036e+01    7.0577522278e+01
    8.5198875427e+01    7.0888511658e+01
    8.5299148560e+01    7.1202026367e+01
    8.5397773743e+01    7.1512702942e+01
    8.5499008179e+01    7.1834121704e+01
    8.5598686218e+01    7.2153152466e+01
    8.5698829651e+01    7.2476081848e+01
    8.5799057007e+01    7.2801788330e+01
    8.5898895264e+01    7.3128616333e+01
    8.5999107361e+01    7.3459243774e+01
    8.6097663879e+01    7.3786834717e+01
    8.6197853088e+01    7.4122367859e+01
    8.6298141479e+01    7.4460678101e+01
    8.6398117065e+01    7.4800460815e+01
    8.6497886658e+01    7.5142089844e+01
    8.6598022461e+01    7.5487396240e+01
    8.6698150635e+01    7.5835205078e+01
    8.6798263550e+01    7.6185470581e+01
    8.6897979736e+01    7.6536842346e+01
    8.6999038696e+01    7.6895385742e+01
    8.7098541260e+01    7.7250961304e+01
    8.7197830200e+01    7.7608268738e+01
    8.7297874451e+01    7.7970710754e+01
    8.7397903442e+01    7.8335609436e+01
    8.7497917175e+01    7.8702873230e+01
    8.7597908020e+01    7.9072578430e+01
    8.7698860168e+01    7.9448333740e+01
    8.7797767639e+01    7.9818885803e+01
    8.7898490906e+01    8.0198791504e+01
    8.7998817444e+01    8.0579551697e+01
    8.8099220276e+01    8.0963111877e+01
    8.8198722839e+01    8.1345718384e+01
    8.8298301697e+01    8.1730918884e+01
    8.8398147583e+01    8.2119636536e+01
    8.8498756409e+01    8.2513710022e+01
    8.8597610474e+01    8.2903335571e+01
    8.8698837280e+01    8.3304695129e+01
    8.8798217773e+01    8.3701126099e+01
    8.8898353577e+01    8.4102882385e+01
    8.8998565674e+01    8.4507301331e+01
    8.9097877502e+01    8.4910461426e+01
    8.9198890686e+01    8.5322944641e+01
    8.9298645020e+01    8.5732597351e+01
    8.9398262024e+01    8.6143882751e+01
    8.9499107361e+01    8.6562660217e+01
    8.9598976135e+01    8.6979591370e+01
    8.9698913574e+01    8.7398956299e+01
    8.9798820496e+01    8.7820587158e+01
    8.9898910522e+01    8.8245109558e+01
    8.9998672485e+01    8.8670417786e+01
    9.0098403931e+01    8.9097686768e+01
    9.0198883057e+01    8.9530380249e+01
    9.0297698975e+01    8.9958023071e+01
    9.0398597717e+01    9.0396697998e+01
    9.0498794556e+01    9.0834503174e+01
    9.0597900391e+01    9.1269515991e+01
    9.0697845459e+01    9.1710281372e+01
    9.0798324585e+01    9.2155303955e+01
    9.0898399353e+01    9.2600616455e+01
    9.0998329163e+01    9.3047111511e+01
    9.1098434448e+01    9.3496414185e+01
    9.1199127197e+01    9.3950233459e+01
    9.1298561096e+01    9.4400138855e+01
    9.1399063110e+01    9.4856819153e+01
    9.1498176575e+01    9.5308944702e+01
    9.1599044800e+01    9.5770889282e+01
    9.1698364258e+01    9.6227378845e+01
    9.1797935486e+01    9.6686714172e+01
    9.1898223877e+01    9.7151130676e+01
    9.1998405457e+01    9.7616645813e+01
    9.2098831177e+01    9.8084899902e+01
    9.2198379517e+01    9.8550552368e+01
    9.2297744751e+01    9.9016944885e+01
    9.2397804260e+01    9.9488113403e+01
    9.2498817444e+01    9.9965164185e+01
    9.2597656250e+01    1.0043345642e+02
    9.2697578430e+01    1.0090815735e+02
    9.2797607422e+01    1.0138470459e+02
    9.2897697449e+01    1.0186283875e+02
    9.2997703552e+01    1.0234181976e+02
    9.3098983765e+01    1.0282815552e+02
    9.3198722839e+01    1.0330828094e+02
    9.3298889160e+01    1.0379164124e+02
    9.3398887634e+01    1.0427527618e+02
    9.3498611450e+01    1.0475856018e+02
    9.3599136353e+01    1.0524652100e+02
    9.3698318481e+01    1.0572978973e+02
    9.3797721863e+01    1.0621428680e+02
    9.3898391724e+01    1.0670632935e+02
    9.3998939514e+01    1.0719779968e+02
    9.4097763062e+01    1.0768273163e+02
    9.4198013306e+01    1.0817507935e+02
    9.4298324585e+01    1.0866772461e+02
    9.4398376465e+01    1.0916087341e+02
    9.4498588562e+01    1.0965422058e+02
    9.4598762512e+01    1.1014891052e+02
    9.4698310852e+01    1.1064035797e+02
    9.4798248291e+01    1.1113484192e+02
    9.4898017883e+01    1.1162874603e+02
    9.4997833252e+01    1.1212291718e+02
    9.5098899841e+01    1.1262348938e+02
    9.5198524475e+01    1.1311737823e+02
    9.5297996521e+01    1.1361167145e+02
    9.5398742676e+01    1.1411129761e+02
    9.5498016357e+01    1.1460429382e+02
    9.5598876953e+01    1.1510437012e+02
    9.5697906494e+01    1.1559607697e+02
    9.5798492432e+01    1.1609587097e+02
    9.5899078369e+01    1.1659589386e+02
    9.5997856140e+01    1.1708658600e+02
    9.6097984314e+01    1.1758347321e+02
    9.6198051453e+01    1.1807962799e+02
    9.6298233032e+01    1.1857692719e+02
    9.6397926331e+01    1.1907183838e+02
    9.6499099731e+01    1.1957376862e+02
    9.6598442078e+01    1.2006641388e+02
    9.6697822571e+01    1.2055924988e+02
    9.6798454285e+01    1.2105722809e+02
    9.6897956848e+01    1.2155036926e+02
    9.6998245239e+01    1.2204704285e+02
    9.7098419189e+01    1.2254199219e+02
    9.7198501587e+01    1.2303720093e+02
    9.7298431396e+01    1.2353073120e+02
    9.7398376465e+01    1.2402341461e+02
    9.7498146057e+01    1.2451543427e+02
    9.7598007202e+01    1.2500754547e+02
    9.7699028015e+01    1.2550572968e+02
    9.7798492432e+01    1.2599451447e+02
    9.7898597717e+01    1.2648684692e+02
    9.7997734070e+01    1.2697424316e+02
    9.8099006653e+01    1.2747076416e+02
    9.8197807312e+01    1.2795576477e+02
    9.8297851562e+01    1.2844572449e+02
    9.8398109436e+01    1.2893658447e+02
    9.8498016357e+01    1.2942491150e+02
    9.8598320007e+01    1.2991496277e+02
    9.8698486328e+01    1.3040426636e+02
    9.8798072815e+01    1.3089024353e+02
    9.8897827148e+01    1.3137617493e+02
    9.8998947144e+01    1.3186878967e+02
    9.9098800659e+01    1.3235380554e+02
    9.9198493958e+01    1.3283807373e+02
    9.9298408508e+01    1.3332319641e+02
    9.9397956848e+01    1.3380578613e+02
    9.9498504639e+01    1.3429339600e+02
    9.9598503113e+01    1.3477764893e+02
    9.9698883057e+01    1.3526255798e+02
    9.9797706604e+01    1.3574023438e+02
    9.9898521423e+01    1.3622677612e+02
    9.9998779297e+01    1.3670997620e+02
    1.0009882355e+02    1.3719245911e+02
    1.0019811249e+02    1.3766986084e+02
    1.0029785919e+02    1.3814979553e+02
    1.0039856720e+02    1.3863363647e+02
    1.0049826813e+02    1.3911167908e+02
    1.0059896851e+02    1.3959556580e+02
    1.0069815826e+02    1.4007029724e+02
    1.0079895782e+02    1.4055310059e+02
    1.0089842224e+02    1.4102954102e+02
    1.0099796295e+02    1.4150590515e+02
    1.0109841919e+02    1.4198614502e+02
    1.0119772339e+02    1.4246081543e+02
    1.0129891968e+02    1.4294413757e+02
    1.0139824677e+02    1.4341879272e+02
    1.0149768829e+02    1.4389332581e+02
    1.0159886932e+02    1.4437561035e+02
    1.0169796753e+02    1.4484854126e+02
    1.0179839325e+02    1.4532775879e+02
    1.0189810181e+02    1.4580290222e+02
    1.0199786377e+02    1.4627793884e+02
    1.0209783173e+02    1.4675466919e+02
    1.0219821930e+02    1.4723381042e+02
    1.0229788971e+02    1.4770889282e+02
    1.0239792633e+02    1.4818542480e+02
    1.0249797821e+02    1.4866290283e+02
    1.0259834290e+02    1.4914189148e+02
    1.0269808960e+02    1.4961769104e+02
    1.0279807281e+02    1.5009510803e+02
    1.0289874268e+02    1.5057548523e+02
    1.0299777985e+02    1.5104812622e+02
    1.0309803772e+02    1.5152795410e+02
    1.0319848633e+02    1.5200744629e+02
    1.0329878998e+02    1.5248806763e+02
    1.0339775848e+02    1.5296156311e+02
    1.0349786377e+02    1.5344134521e+02
    1.0359796906e+02    1.5392100525e+02
    1.0369789886e+02    1.5439984131e+02
    1.0379808044e+02    1.5488124084e+02
    1.0389817047e+02    1.5536166382e+02
    1.0399884033e+02    1.5584609985e+02
    1.0409764099e+02    1.5632131958e+02
    1.0419863892e+02    1.5680801392e+02
    1.0429785156e+02    1.5728640747e+02
    1.0439781952e+02    1.5776948547e+02
    1.0449770355e+02    1.5825161743e+02
    1.0459850311e+02    1.5873913574e+02
    1.0469795227e+02    1.5922070312e+02
    1.0479781342e+02    1.5970448303e+02
    1.0489782715e+02    1.6018989563e+02
    1.0499777985e+02    1.6067428589e+02
    1.0509887695e+02    1.6116661072e+02
    1.0519763184e+02    1.6164669800e+02
    1.0529846954e+02    1.6213816833e+02
    1.0539864349e+02    1.6262660217e+02
    1.0549887848e+02    1.6311576843e+02
    1.0559879303e+02    1.6360435486e+02
    1.0569783783e+02    1.6408926392e+02
    1.0579873657e+02    1.6458279419e+02
    1.0589771271e+02    1.6506854248e+02
    1.0599884033e+02    1.6556532288e+02
    1.0609889221e+02    1.6605683899e+02
    1.0619857025e+02    1.6654682922e+02
    1.0629776001e+02    1.6703555298e+02
    1.0639826965e+02    1.6753170776e+02
    1.0649819946e+02    1.6802468872e+02
    1.0659819794e+02    1.6851840210e+02
    1.0669770050e+02    1.6901080322e+02
    1.0679869080e+02    1.6951129150e+02
    1.0689833832e+02    1.7000509644e+02
    1.0699781799e+02    1.7049798584e+02
    1.0709884644e+02    1.7099969482e+02
    1.0719889069e+02    1.7149710083e+02
    1.0729850769e+02    1.7199310303e+02
    1.0739753723e+02    1.7248609924e+02
    1.0749771881e+02    1.7298559570e+02
    1.0759821320e+02    1.7348721313e+02
    1.0769821167e+02    1.7398660278e+02
    1.0779859924e+02    1.7448800659e+02
    1.0789890289e+02    1.7499029541e+02
    1.0799771118e+02    1.7548541260e+02
    1.0809783173e+02    1.7598658752e+02
    1.0819860077e+02    1.7649229431e+02
    1.0829781342e+02    1.7698979187e+02
    1.0839791107e+02    1.7749330139e+02
    1.0849889374e+02    1.7800070190e+02
    1.0859847260e+02    1.7850180054e+02
    1.0869805145e+02    1.7900360107e+02
    1.0879753113e+02    1.7950430298e+02
    1.0889759064e+02    1.8000849915e+02
    1.0899794769e+02    1.8051489258e+02
    1.0909815216e+02    1.8102029419e+02
    1.0919834137e+02    1.8152639771e+02
    1.0929875946e+02    1.8203370667e+02
    1.0939772034e+02    1.8253401184e+02
    1.0949796295e+02    1.8304109192e+02
    1.0959810638e+02    1.8354809570e+02
    1.0969818115e+02    1.8405499268e+02
    1.0979808807e+02    1.8456100464e+02
    1.0989797974e+02    1.8506669617e+02
    1.0999780273e+02    1.8557229614e+02
    1.1009751892e+02    1.8607769775e+02
    1.1019853210e+02    1.8658990479e+02
    1.1029808807e+02    1.8709509277e+02
    1.1039862823e+02    1.8760470581e+02
    1.1049803162e+02    1.8810861206e+02
    1.1059870911e+02    1.8861920166e+02
    1.1069793701e+02    1.8912290955e+02
    1.1079846191e+02    1.8963308716e+02
    1.1089753723e+02    1.9013549805e+02
    1.1099790192e+02    1.9064549255e+02
    1.1109818268e+02    1.9115429688e+02
    1.1119838715e+02    1.9166290283e+02
    1.1129850769e+02    1.9217030334e+02
    1.1139856720e+02    1.9267759705e+02
    1.1149855042e+02    1.9318460083e+02
    1.1159837341e+02    1.9369169617e+02
    1.1169805145e+02    1.9419680786e+02
    1.1179884338e+02    1.9470780945e+02
    1.1189798737e+02    1.9521051025e+02
    1.1199800873e+02    1.9571760559e+02
    1.1209755707e+02    1.9622149658e+02
    1.1219831085e+02    1.9673199463e+02
    1.1229884338e+02    1.9724060059e+02
    1.1239763641e+02    1.9774029541e+02
    1.1249826050e+02    1.9824989319e+02
    1.1259866333e+02    1.9875769043e+02
    1.1269766235e+02    1.9925769043e+02
    1.1279808807e+02    1.9976559448e+02
    1.1289806366e+02    2.0027030945e+02
    1.1299836731e+02    2.0077668762e+02
    1.1309844971e+02    2.0128120422e+02
    1.1319863129e+02    2.0178610229e+02
    1.1329873657e+02    2.0229069519e+02
    1.1339880371e+02    2.0279510498e+02
    1.1349864197e+02    2.0329759216e+02
    1.1359850311e+02    2.0379969788e+02
    1.1369799042e+02    2.0430030823e+02
    1.1379772949e+02    2.0480178833e+02
    1.1389874268e+02    2.0530839539e+02
    1.1399791718e+02    2.0580661011e+02
    1.1409844971e+02    2.0631059265e+02
    1.1419782257e+02    2.0680839539e+02
    1.1429837799e+02    2.0731239319e+02
    1.1439845276e+02    2.0781230164e+02
    1.1449848175e+02    2.0831300354e+02
    1.1459857941e+02    2.0881289673e+02
    1.1469860840e+02    2.0931259155e+02
    1.1479850769e+02    2.0981021118e+02
    1.1489801788e+02    2.1030650330e+02
    1.1499765778e+02    2.1080290222e+02
    1.1509848785e+02    2.1130439758e+02
    1.1519774628e+02    2.1179798889e+02
    1.1529830933e+02    2.1229730225e+02
    1.1539875031e+02    2.1279539490e+02
    1.1549775696e+02    2.1328639221e+02
    1.1559793854e+02    2.1378239441e+02
    1.1569788361e+02    2.1427659607e+02
    1.1579781342e+02    2.1477139282e+02
    1.1589878845e+02    2.1527040100e+02
    1.1599846649e+02    2.1576190186e+02
    1.1609802246e+02    2.1625241089e+02
    1.1619873810e+02    2.1674870300e+02
    1.1629804230e+02    2.1723690796e+02
    1.1639830780e+02    2.1773060608e+02
    1.1649864960e+02    2.1822248840e+02
    1.1659842682e+02    2.1871279907e+02
    1.1669814301e+02    2.1920170593e+02
    1.1679810333e+02    2.1969029236e+02
    1.1689794922e+02    2.2017878723e+02
    1.1699767303e+02    2.2066610718e+02
    1.1709828949e+02    2.2115701294e+02
    1.1719873810e+02    2.2164688110e+02
    1.1729810333e+02    2.2213088989e+02
    1.1739855957e+02    2.2261968994e+02
    1.1749755859e+02    2.2310079956e+02
    1.1759770966e+02    2.2358761597e+02
    1.1769795227e+02    2.2407341003e+02
    1.1779785919e+02    2.2455790710e+02
    1.1789775085e+02    2.2504089355e+02
    1.1799871826e+02    2.2552859497e+02
    1.1809838104e+02    2.2601028442e+02
    1.1819790649e+02    2.2648991394e+02
    1.1829855347e+02    2.2697499084e+02
    1.1839768982e+02    2.2745190430e+02
    1.1849812317e+02    2.2793461609e+02
    1.1859841156e+02    2.2841528320e+02
    1.1869853973e+02    2.2889599609e+02
    1.1879862213e+02    2.2937530518e+02
    1.1889856720e+02    2.2985240173e+02
    1.1899841309e+02    2.3032940674e+02
    1.1909812164e+02    2.3080519104e+02
    1.1919773102e+02    2.3127989197e+02
    1.1929846191e+02    2.3175891113e+02
    1.1939782715e+02    2.3223129272e+02
    1.1949832153e+02    2.3270901489e+02
    1.1959870148e+02    2.3318440247e+02
    1.1969773102e+02    2.3365330505e+02
    1.1979788208e+02    2.3412649536e+02
    1.1989790344e+02    2.3459948730e+02
    1.1999774170e+02    2.3506950378e+02
    1.2009754944e+02    2.3554010010e+02
    1.2019847870e+02    2.3601489258e+02
    1.2029802704e+02    2.3648228455e+02
    1.2039750671e+02    2.3694830322e+02
    1.2049806976e+02    2.3741960144e+02
    1.2059854889e+02    2.3788951111e+02
    1.2069769287e+02    2.3835299683e+02
    1.2079795074e+02    2.3882061768e+02
    1.2089807892e+02    2.3928701782e+02
    1.2099819946e+02    2.3975279236e+02
    1.2109835815e+02    2.4021780396e+02
    1.2119833374e+02    2.4068099976e+02
    1.2129804230e+02    2.4114248657e+02
    1.2139765167e+02    2.4160380554e+02
    1.2149830627e+02    2.4206829834e+02
    1.2159770966e+02    2.4252709961e+02
    1.2169821930e+02    2.4298989868e+02
    1.2179859161e+02    2.4345050049e+02
    1.2189752197e+02    2.4390530396e+02
    1.2199755096e+02    2.4436398315e+02
    1.2209809875e+02    2.4482400513e+02
    1.2219824219e+02    2.4528091431e+02
    1.2229817200e+02    2.4573699951e+02
    1.2239795685e+02    2.4619210815e+02
    1.2249780273e+02    2.4664620972e+02
    1.2259851837e+02    2.4710401917e+02
    1.2269799805e+02    2.4755430603e+02
    1.2279857635e+02    2.4801039124e+02
    1.2289787292e+02    2.4845907593e+02
    1.2299817657e+02    2.4891189575e+02
    1.2309757996e+02    2.4935990906e+02
    1.2319770813e+02    2.4981008911e+02
    1.2329807281e+02    2.5026159668e+02
    1.2339807129e+02    2.5070989990e+02
    1.2349806976e+02    2.5115750122e+02
    1.2359787750e+02    2.5160427856e+02
    1.2369753265e+02    2.5204910278e+02
    1.2379849243e+02    2.5249938965e+02
    1.2389801025e+02    2.5294241333e+02
    1.2399771118e+02    2.5338578796e+02
    1.2409829712e+02    2.5383160400e+02
    1.2419754028e+02    2.5427159119e+02
    1.2429786682e+02    2.5471520996e+02
    1.2439842987e+02    2.5515991211e+02
    1.2449861908e+02    2.5560159302e+02
    1.2459806061e+02    2.5603991699e+02
    1.2469830322e+02    2.5647988892e+02
    1.2479850769e+02    2.5692031860e+02
    1.2489762115e+02    2.5735498047e+02
    1.2499799347e+02    2.5779418945e+02
    1.2509757996e+02    2.5822918701e+02
    1.2519853973e+02    2.5867022705e+02
    1.2529828644e+02    2.5910400391e+02
    1.2539761353e+02    2.5953610229e+02
    1.2549796295e+02    2.5997271729e+02
    1.2559826660e+02    2.6040768433e+02
    1.2569761658e+02    2.6083837891e+02
    1.2579795837e+02    2.6127178955e+02
    1.2589797211e+02    2.6170391846e+02
    1.2599791718e+02    2.6213461304e+02
    1.2609779358e+02    2.6256491089e+02
    1.2619757080e+02    2.6299389648e+02
    1.2629839325e+02    2.6342709351e+02
    1.2639800262e+02    2.6385440063e+02
    1.2649772644e+02    2.6428131104e+02
    1.2659832001e+02    2.6471130371e+02
    1.2669798279e+02    2.6513711548e+02
    1.2679840088e+02    2.6556530762e+02
    1.2689782715e+02    2.6598870850e+02
    1.2699804688e+02    2.6641442871e+02
    1.2709841919e+02    2.6684051514e+02
    1.2719850922e+02    2.6726531982e+02
    1.2729760742e+02    2.6768521118e+02
    1.2739752960e+02    2.6810720825e+02
    1.2749764252e+02    2.6853057861e+02
    1.2759795380e+02    2.6895309448e+02
    1.2769763184e+02    2.6937298584e+02
    1.2779763794e+02    2.6979437256e+02
    1.2789746857e+02    2.7021301270e+02
    1.2799816895e+02    2.7063531494e+02
    1.2809750366e+02    2.7105178833e+02
    1.2819793701e+02    2.7147192383e+02
    1.2829861450e+02    2.7189300537e+02
    1.2839773560e+02    2.7230709839e+02
    1.2849792480e+02    2.7272509766e+02
    1.2859840393e+02    2.7314270020e+02
    1.2869841003e+02    2.7355880737e+02
    1.2879772949e+02    2.7397189331e+02
    1.2889779663e+02    2.7438720703e+02
    1.2899758911e+02    2.7480108643e+02
    1.2909844971e+02    2.7521850586e+02
    1.2919839478e+02    2.7563189697e+02
    1.2929794312e+02    2.7604269409e+02
    1.2939775085e+02    2.7645431519e+02
    1.2949865723e+02    2.7687112427e+02
    1.2959799194e+02    2.7727951050e+02
    1.2969825745e+02    2.7769207764e+02
    1.2979838562e+02    2.7810360718e+02
    1.2989805603e+02    2.7851269531e+02
    1.2999867249e+02    2.7892590332e+02
    1.3009820557e+02    2.7933319092e+02
    1.3019772339e+02    2.7974060059e+02
    1.3029792786e+02    2.8015051270e+02
    1.3039773560e+02    2.8055868530e+02
    1.3049838257e+02    2.8096939087e+02
    1.3059829712e+02    2.8137631226e+02
    1.3069796753e+02    2.8178280640e+02
    1.3079791260e+02    2.8218988037e+02
    1.3089773560e+02    2.8259570312e+02
    1.3099847412e+02    2.8300561523e+02
    1.3109843445e+02    2.8341101074e+02
    1.3119871521e+02    2.8381860352e+02
    1.3129801941e+02    2.8422097778e+02
    1.3139793396e+02    2.8462600708e+02
    1.3149813843e+02    2.8503201294e+02
    1.3159796143e+02    2.8543499756e+02
    1.3169862366e+02    2.8584301758e+02
    1.3179788208e+02    2.8624398804e+02
    1.3189840698e+02    2.8664999390e+02
    1.3199780273e+02    2.8705099487e+02
    1.3209861755e+02    2.8745800781e+02
    1.3219831848e+02    2.8785900879e+02
    1.3229780579e+02    2.8825997925e+02
    1.3239878845e+02    2.8866699219e+02
    1.3249803162e+02    2.8906600952e+02
    1.3259855652e+02    2.8947003174e+02
    1.3269816589e+02    2.8986999512e+02
    1.3279849243e+02    2.9027301025e+02
    1.3289854431e+02    2.9067401123e+02
    1.3299851990e+02    2.9107598877e+02
    1.3309851074e+02    2.9147698975e+02
    1.3319796753e+02    2.9187597656e+02
    1.3329812622e+02    2.9227700806e+02
    1.3339796448e+02    2.9267700195e+02
    1.3349891663e+02    2.9308099365e+02
    1.3359880066e+02    2.9348098755e+02
    1.3369836426e+02    2.9387899780e+02
    1.3379794312e+02    2.9427700806e+02
    1.3389788818e+02    2.9467700195e+02
    1.3399873352e+02    2.9507998657e+02
    1.3409866333e+02    2.9547900391e+02
    1.3419802856e+02    2.9587500000e+02
    1.3429859924e+02    2.9627600098e+02
    1.3439833069e+02    2.9667398071e+02
    1.3449830627e+02    2.9707202148e+02
    1.3459815979e+02    2.9747100830e+02
    1.3469853210e+02    2.9786999512e+02
    1.3479800415e+02    2.9826599121e+02
    1.3489881897e+02    2.9866702271e+02
    1.3499879456e+02    2.9906399536e+02
    1.3509819031e+02    2.9945898438e+02
    1.3519828796e+02    2.9985797119e+02
    1.3529792786e+02    3.0025299072e+02
    1.3539828491e+02    3.0065100098e+02
    1.3549812317e+02    3.0104800415e+02
    1.3559904480e+02    3.0144799805e+02
    1.3569842529e+02    3.0184100342e+02
    1.3579867554e+02    3.0223901367e+02
    1.3589897156e+02    3.0263601685e+02
    1.3599818420e+02    3.0302801514e+02
    1.3609890747e+02    3.0342602539e+02
    1.3619841003e+02    3.0382000732e+02
    1.3629804993e+02    3.0421301270e+02
    1.3639895630e+02    3.0461199951e+02
    1.3649853516e+02    3.0500399780e+02
    1.3659913635e+02    3.0540100098e+02
    1.3669815063e+02    3.0579101562e+02
    1.3679899597e+02    3.0618902588e+02
    1.3689883423e+02    3.0658200073e+02
    1.3699833679e+02    3.0697399902e+02
    1.3709906006e+02    3.0736999512e+02
    1.3719909668e+02    3.0776199341e+02
    1.3729835510e+02    3.0815197754e+02
    1.3739831543e+02    3.0854498291e+02
    1.3749876404e+02    3.0893798828e+02
    1.3759913635e+02    3.0933099365e+02
    1.3769909668e+02    3.0972299194e+02
    1.3779833984e+02    3.1011099243e+02
    1.3789854431e+02    3.1050299072e+02
    1.3799824524e+02    3.1089199829e+02
    1.3809883118e+02    3.1128503418e+02
    1.3819903564e+02    3.1167700195e+02
    1.3829905701e+02    3.1206698608e+02
    1.3839901733e+02    3.1245599365e+02
    1.3849836731e+02    3.1284301758e+02
    1.3859869385e+02    3.1323300171e+02
    1.3869833374e+02    3.1361999512e+02
    1.3879827881e+02    3.1400799561e+02
    1.3889918518e+02    3.1440002441e+02
    1.3899914551e+02    3.1478802490e+02
    1.3909826660e+02    3.1517199707e+02
    1.3919859314e+02    3.1555999756e+02
    1.3929898071e+02    3.1594998169e+02
    1.3939863586e+02    3.1633502197e+02
    1.3949885559e+02    3.1672198486e+02
    1.3959887695e+02    3.1710699463e+02
    1.3969856262e+02    3.1749301147e+02
    1.3979870605e+02    3.1787896729e+02
    1.3989855957e+02    3.1826300049e+02
    1.3999896240e+02    3.1865002441e+02
    1.4009904480e+02    3.1903399658e+02
    1.4019906616e+02    3.1941900635e+02
    1.4029870605e+02    3.1980102539e+02
    1.4039895630e+02    3.2018499756e+02
    1.4049836731e+02    3.2056600952e+02
    1.4059887695e+02    3.2095098877e+02
    1.4069906616e+02    3.2133398438e+02
    1.4079833984e+02    3.2171398926e+02
    1.4089860535e+02    3.2209600830e+02
    1.4099919128e+02    3.2248101807e+02
    1.4109910583e+02    3.2286199951e+02
    1.4119869995e+02    3.2323999023e+02
    1.4129853821e+02    3.2362100220e+02
    1.4139869690e+02    3.2400201416e+02
    1.4149914551e+02    3.2438299561e+02
    1.4159851074e+02    3.2476098633e+02
    1.4169873047e+02    3.2514001465e+02
    1.4179917908e+02    3.2552099609e+02
    1.4189909363e+02    3.2589898682e+02
    1.4199926758e+02    3.2627801514e+02
    1.4209887695e+02    3.2665499878e+02
    1.4219848633e+02    3.2703100586e+02
    1.4229847717e+02    3.2740899658e+02
    1.4239938354e+02    3.2779000854e+02
    1.4249839783e+02    3.2816198730e+02
    1.4259867859e+02    3.2853900146e+02
    1.4269915771e+02    3.2891699219e+02
    1.4279847717e+02    3.2928997803e+02
    1.4289920044e+02    3.2966799927e+02
    1.4299871826e+02    3.3004199219e+02
    1.4309916687e+02    3.3041900635e+02
    1.4319868469e+02    3.3079101562e+02
    1.4329887390e+02    3.3116598511e+02
    1.4339889526e+02    3.3154003906e+02
    1.4349922180e+02    3.3191500854e+02
    1.4359930420e+02    3.3228802490e+02
    1.4369914246e+02    3.3266101074e+02
    1.4379888916e+02    3.3303198242e+02
    1.4389935303e+02    3.3340600586e+02
    1.4399859619e+02    3.3377502441e+02
    1.4409858704e+02    3.3414703369e+02
    1.4419885254e+02    3.3451995850e+02
    1.4429858398e+02    3.3488998413e+02
    1.4439888000e+02    3.3526202393e+02
    1.4449935913e+02    3.3563397217e+02
    1.4459869385e+02    3.3600201416e+02
    1.4469888306e+02    3.3637197876e+02
    1.4479879761e+02    3.3674200439e+02
    1.4489866638e+02    3.3711203003e+02
    1.4499891663e+02    3.3748199463e+02
    1.4509947205e+02    3.3785296631e+02
    1.4519938660e+02    3.3822000122e+02
    1.4529867554e+02    3.3858599854e+02
    1.4539866638e+02    3.3895501709e+02
    1.4549888611e+02    3.3932403564e+02
    1.4559904480e+02    3.3969201660e+02
    1.4569902039e+02    3.4005899048e+02
    1.4579881287e+02    3.4042596436e+02
    1.4589950562e+02    3.4079498291e+02
    1.4599955750e+02    3.4116198730e+02
    1.4609960938e+02    3.4152798462e+02
    1.4619865417e+02    3.4189099121e+02
    1.4629948425e+02    3.4226000977e+02
    1.4639949036e+02    3.4262500000e+02
    1.4649943542e+02    3.4299002075e+02
    1.4659956360e+02    3.4335601807e+02
    1.4669889832e+02    3.4371801758e+02
    1.4679919434e+02    3.4408300781e+02
    1.4689883423e+02    3.4444604492e+02
    1.4699873352e+02    3.4480996704e+02
    1.4709931946e+02    3.4517599487e+02
    1.4719947815e+02    3.4553900146e+02
    1.4729879761e+02    3.4589996338e+02
    1.4739964294e+02    3.4626602173e+02
    1.4749876404e+02    3.4662500000e+02
    1.4759887695e+02    3.4698898315e+02
    1.4769949341e+02    3.4735198975e+02
    1.4779888916e+02    3.4771295166e+02
    1.4789947510e+02    3.4807598877e+02
    1.4799931335e+02    3.4843698120e+02
    1.4809960938e+02    3.4879901123e+02
    1.4819972229e+02    3.4915899658e+02
    1.4829884338e+02    3.4951699829e+02
    1.4839912415e+02    3.4987802124e+02
    1.4849938965e+02    3.5023901367e+02
    1.4859941101e+02    3.5059902954e+02
    1.4869908142e+02    3.5095697021e+02
    1.4879953003e+02    3.5131695557e+02
    1.4889970398e+02    3.5167602539e+02
    1.4899974060e+02    3.5203601074e+02
    1.4909936523e+02    3.5239199829e+02
    1.4919891357e+02    3.5274902344e+02
    1.4929899597e+02    3.5310595703e+02
    1.4939939880e+02    3.5346502686e+02
    1.4949949646e+02    3.5382302856e+02
    1.4959910583e+02    3.5417797852e+02
    1.4969897461e+02    3.5453399658e+02
    1.4979914856e+02    3.5489001465e+02
    1.4989904785e+02    3.5524600220e+02
    1.4999993896e+02    3.5560498047e+02
    1.5009957886e+02    3.5595800781e+02
    1.5019894409e+02    3.5631097412e+02
    1.5029902649e+02    3.5666699219e+02
    1.5039996338e+02    3.5702398682e+02
    1.5049966431e+02    3.5737701416e+02
    1.5059910583e+02    3.5772796631e+02
    1.5069932556e+02    3.5808297729e+02
    1.5079919434e+02    3.5843502808e+02
    1.5089984131e+02    3.5879101562e+02
    1.5099920654e+02    3.5914102173e+02
    1.5109930420e+02    3.5949298096e+02
    1.5119909668e+02    3.5984503174e+02
    1.5129960632e+02    3.6019799805e+02
    1.5139981079e+02    3.6055004883e+02
    1.5149974060e+02    3.6090100098e+02
    1.5159939575e+02    3.6125100708e+02
    1.5169970703e+02    3.6160198975e+02
    1.5179974365e+02    3.6195300293e+02
    1.5189950562e+02    3.6230200195e+02
    1.5199992371e+02    3.6265200806e+02
    1.5210006714e+02    3.6300198364e+02
    1.5219992065e+02    3.6335003662e+02
    1.5229948425e+02    3.6369802856e+02
    1.5239970398e+02    3.6404598999e+02
    1.5249963379e+02    3.6439501953e+02
    1.5259927368e+02    3.6474099731e+02
    1.5269958496e+02    3.6508895874e+02
    1.5279957581e+02    3.6543597412e+02
    1.5289930725e+02    3.6578198242e+02
    1.5299964905e+02    3.6612899780e+02
    1.5309971619e+02    3.6647598267e+02
    1.5319947815e+02    3.6682101440e+02
    1.5329988098e+02    3.6716799927e+02
    1.5339999390e+02    3.6751296997e+02
    1.5349980164e+02    3.6785797119e+02
    1.5359933472e+02    3.6820001221e+02
    1.5369946289e+02    3.6854501343e+02
    1.5379931641e+02    3.6888897705e+02
    1.5389978027e+02    3.6923397827e+02
    1.5399995422e+02    3.6957699585e+02
    1.5409982300e+02    3.6992001343e+02
    1.5419940186e+02    3.7026098633e+02
    1.5429957581e+02    3.7060400391e+02
    1.5439945984e+02    3.7094702148e+02
    1.5449993896e+02    3.7128900146e+02
    1.5460012817e+02    3.7163098145e+02
    1.5470002747e+02    3.7197201538e+02
    1.5479960632e+02    3.7231097412e+02
    1.5489979553e+02    3.7265200806e+02
    1.5499967957e+02    3.7299200439e+02
    1.5510014343e+02    3.7333300781e+02
    1.5519943237e+02    3.7366998291e+02
    1.5530018616e+02    3.7401101685e+02
    1.5539976501e+02    3.7434799194e+02
    1.5549990845e+02    3.7468701172e+02
    1.5559977722e+02    3.7502401733e+02
    1.5570018005e+02    3.7536303711e+02
    1.5579945374e+02    3.7569699097e+02
    1.5590014648e+02    3.7603701782e+02
    1.5599966431e+02    3.7637100220e+02
    1.5609976196e+02    3.7670700073e+02
    1.5619955444e+02    3.7704199219e+02
    1.5629991150e+02    3.7737796021e+02
    1.5639996338e+02    3.7771298218e+02
    1.5649972534e+02    3.7804598999e+02
    1.5660003662e+02    3.7838098145e+02
    1.5670004272e+02    3.7871398926e+02
    1.5679977417e+02    3.7904699707e+02
    1.5690002441e+02    3.7938003540e+02
    1.5700000000e+02    3.7971200562e+02
    1.5709968567e+02    3.8004199219e+02
    1.5719989014e+02    3.8037402344e+02
    1.5729980469e+02    3.8070401001e+02
    1.5740025330e+02    3.8103601074e+02
    1.5750039673e+02    3.8136599731e+02
    1.5760026550e+02    3.8169500732e+02
    1.5769984436e+02    3.8202200317e+02
    1.5779995728e+02    3.8235101318e+02
    1.5789976501e+02    3.8267797852e+02
    1.5800010681e+02    3.8300701904e+02
    1.5810014343e+02    3.8333297729e+02
    1.5819990540e+02    3.8365902710e+02
    1.5830018616e+02    3.8398501587e+02
    1.5840017700e+02    3.8431002808e+02
    1.5849987793e+02    3.8463302612e+02
    1.5860009766e+02    3.8495901489e+02
    1.5870004272e+02    3.8528198242e+02
    1.5880049133e+02    3.8560601807e+02
    1.5889987183e+02    3.8592602539e+02
    1.5899975586e+02    3.8624700928e+02
    1.5910014343e+02    3.8656903076e+02
    1.5920025635e+02    3.8689001465e+02
    1.5930009460e+02    3.8720999146e+02
    1.5940043640e+02    3.8752996826e+02
    1.5950050354e+02    3.8784802246e+02
    1.5960031128e+02    3.8816500854e+02
    1.5969984436e+02    3.8848202515e+02
    1.5979986572e+02    3.8879800415e+02
    1.5990039062e+02    3.8911602783e+02
    1.5999987793e+02    3.8942999268e+02
    1.6009986877e+02    3.8974301147e+02
    1.6020034790e+02    3.9005899048e+02
    1.6030058289e+02    3.9037298584e+02
    1.6040054321e+02    3.9068603516e+02
    1.6050024414e+02    3.9099597168e+02
    1.6060043335e+02    3.9130697632e+02
    1.6070036316e+02    3.9161801147e+02
    1.6080004883e+02    3.9192599487e+02
    1.6090022278e+02    3.9223501587e+02
    1.6100015259e+02    3.9254302979e+02
    1.6110055542e+02    3.9285098267e+02
    1.6119999695e+02    3.9315499878e+02
    1.6129991150e+02    3.9346099854e+02
    1.6140031433e+02    3.9376699829e+02
    1.6150047302e+02    3.9407098389e+02
    1.6160040283e+02    3.9437402344e+02
    1.6170007324e+02    3.9467498779e+02
    1.6180026245e+02    3.9497698975e+02
    1.6190019226e+02    3.9527697754e+02
    1.6200062561e+02    3.9557702637e+02
    1.6210008240e+02    3.9587503052e+02
    1.6220004272e+02    3.9617196655e+02
    1.6230050659e+02    3.9647100830e+02
    1.6240000916e+02    3.9676498413e+02
    1.6250000000e+02    3.9705902100e+02
    1.6260049438e+02    3.9735501099e+02
    1.6270004272e+02    3.9764697266e+02
    1.6280007935e+02    3.9793899536e+02
    1.6290060425e+02    3.9823101807e+02
    1.6300021362e+02    3.9851998901e+02
    1.6310032654e+02    3.9880899048e+02
    1.6320021057e+02    3.9909698486e+02
    1.6330058289e+02    3.9938497925e+02
    1.6340075684e+02    3.9967199707e+02
    1.6350071716e+02    3.9995703125e+02
    1.6360046387e+02    4.0023898315e+02
    1.6370071411e+02    4.0052301025e+02
    1.6380076599e+02    4.0080502319e+02
    1.6390060425e+02    4.0108502197e+02
    1.6400024414e+02    4.0136300659e+02
    1.6410038757e+02    4.0164196777e+02
    1.6420033264e+02    4.0191897583e+02
    1.6430078125e+02    4.0219601440e+02
    1.6440034485e+02    4.0246997070e+02
    1.6450041199e+02    4.0274298096e+02
    1.6460028076e+02    4.0301501465e+02
    1.6470065308e+02    4.0328802490e+02
    1.6480017090e+02    4.0355700684e+02
    1.6490017700e+02    4.0382498169e+02
    1.6500068665e+02    4.0409497070e+02
    1.6510034180e+02    4.0436001587e+02
    1.6520048523e+02    4.0462597656e+02
    1.6530047607e+02    4.0488998413e+02
    1.6540028381e+02    4.0515200806e+02
    1.6550059509e+02    4.0541400146e+02
    1.6560075378e+02    4.0567501831e+02
    1.6570074463e+02    4.0593399048e+02
    1.6580056763e+02    4.0619100952e+02
    1.6590089417e+02    4.0644699097e+02
    1.6600041199e+02    4.0670101929e+02
    1.6610043335e+02    4.0695498657e+02
    1.6620030212e+02    4.0720703125e+02
    1.6630067444e+02    4.0745898438e+02
    1.6640090942e+02    4.0771002197e+02
    1.6650033569e+02    4.0795703125e+02
    1.6660093689e+02    4.0820501709e+02
    1.6670074463e+02    4.0845001221e+02
    1.6680041504e+02    4.0869400024e+02
    1.6690060425e+02    4.0893701172e+02
    1.6700065613e+02    4.0917901611e+02
    1.6710058594e+02    4.0941998291e+02
    1.6720037842e+02    4.0965798950e+02
    1.6730070496e+02    4.0989599609e+02
    1.6740089417e+02    4.1013198853e+02
    1.6750097656e+02    4.1036700439e+02
    1.6760093689e+02    4.1059997559e+02
    1.6770079041e+02    4.1083099365e+02
    1.6780052185e+02    4.1106100464e+02
    1.6790078735e+02    4.1129098511e+02
    1.6800094604e+02    4.1151901245e+02
    1.6810099792e+02    4.1174496460e+02
    1.6820095825e+02    4.1196899414e+02
    1.6830081177e+02    4.1219198608e+02
    1.6840055847e+02    4.1241299438e+02
    1.6850085449e+02    4.1263302612e+02
    1.6860107422e+02    4.1285202026e+02
    1.6870054626e+02    4.1306799316e+02
    1.6880058289e+02    4.1328298950e+02
    1.6890065002e+02    4.1349801636e+02
    1.6900079346e+02    4.1371096802e+02
    1.6910093689e+02    4.1392196655e+02
    1.6920089722e+02    4.1413098145e+02
    1.6930075073e+02    4.1433798218e+02
    1.6940071106e+02    4.1454498291e+02
    1.6950103760e+02    4.1475003052e+02
    1.6960108948e+02    4.1495401001e+02
    1.6970083618e+02    4.1515399170e+02
    1.6980105591e+02    4.1535501099e+02
    1.6990092468e+02    4.1555300903e+02
    1.7000094604e+02    4.1574902344e+02
    1.7010061646e+02    4.1594400024e+02
    1.7020060730e+02    4.1613800049e+02
    1.7030068970e+02    4.1632998657e+02
    1.7040083313e+02    4.1652102661e+02
    1.7050099182e+02    4.1670999146e+02
    1.7060113525e+02    4.1689599609e+02
    1.7070095825e+02    4.1708197021e+02
    1.7080058289e+02    4.1726501465e+02
    1.7090069580e+02    4.1744699097e+02
    1.7100090027e+02    4.1762802124e+02
    1.7110098267e+02    4.1780596924e+02
    1.7120094299e+02    4.1798300171e+02
    1.7130070496e+02    4.1815798950e+02
    1.7140077209e+02    4.1833197021e+02
    1.7150071716e+02    4.1850296021e+02
    1.7160067749e+02    4.1867300415e+02
    1.7170062256e+02    4.1884100342e+02
    1.7180116272e+02    4.1901000977e+02
    1.7190118408e+02    4.1917401123e+02
    1.7200111389e+02    4.1933697510e+02
    1.7210113525e+02    4.1949899292e+02
    1.7220115662e+02    4.1965902710e+02
    1.7230117798e+02    4.1981600952e+02
    1.7240121460e+02    4.1997299194e+02
    1.7250126648e+02    4.2012701416e+02
    1.7260133362e+02    4.2027899170e+02
    1.7270072937e+02    4.2042901611e+02
    1.7280082703e+02    4.2057800293e+02
    1.7290093994e+02    4.2072497559e+02
    1.7300108337e+02    4.2086999512e+02
    1.7310125732e+02    4.2101501465e+02
    1.7320077515e+02    4.2115502930e+02
    1.7330099487e+02    4.2129602051e+02
    1.7340127563e+02    4.2143298340e+02
    1.7350088501e+02    4.2156903076e+02
    1.7360122681e+02    4.2170300293e+02
    1.7370092773e+02    4.2183502197e+02
    1.7380136108e+02    4.2196600342e+02
    1.7390115356e+02    4.2209503174e+02
    1.7400100708e+02    4.2222100830e+02
    1.7410090637e+02    4.2234600830e+02
    1.7420085144e+02    4.2246801758e+02
    1.7430087280e+02    4.2259002686e+02
    1.7440093994e+02    4.2270800781e+02
    1.7450106812e+02    4.2282598877e+02
    1.7460127258e+02    4.2294097900e+02
    1.7470086670e+02    4.2305401611e+02
    1.7480119324e+02    4.2316497803e+02
    1.7490092468e+02    4.2327398682e+02
    1.7500141907e+02    4.2338201904e+02
    1.7510130310e+02    4.2348699951e+02
    1.7520127869e+02    4.2359100342e+02
    1.7530134583e+02    4.2369201660e+02
    1.7540147400e+02    4.2379199219e+02
    1.7550103760e+02    4.2388903809e+02
    1.7560134888e+02    4.2398400879e+02
    1.7570109558e+02    4.2407800293e+02
    1.7580091858e+02    4.2416900635e+02
    1.7590086365e+02    4.2425897217e+02
    1.7600088501e+02    4.2434600830e+02
    1.7610102844e+02    4.2443200684e+02
    1.7620129395e+02    4.2451495361e+02
    1.7630096436e+02    4.2459600830e+02
    1.7640144348e+02    4.2467596436e+02
    1.7650134277e+02    4.2475299072e+02
    1.7660136414e+02    4.2482904053e+02
    1.7670150757e+02    4.2490197754e+02
    1.7680108643e+02    4.2497198486e+02
    1.7690147400e+02    4.2504602051e+02
    1.7700131226e+02    4.2510699463e+02
    1.7710127258e+02    4.2517297363e+02
    1.7720138550e+02    4.2523400879e+02
    1.7730160522e+02    4.2530102539e+02
    1.7740129089e+02    4.2535400391e+02
    1.7750111389e+02    4.2541198730e+02
    1.7760107422e+02    4.2546502686e+02
    1.7770118713e+02    4.2552398682e+02
    1.7780143738e+02    4.2556701660e+02
    1.7790115356e+02    4.2561700439e+02
    1.7800102234e+02    4.2566198730e+02
    1.7810104370e+02    4.2571197510e+02
    1.7820121765e+02    4.2574597168e+02
    1.7830155945e+02    4.2578601074e+02
    1.7840136719e+02    4.2583203125e+02
    1.7850132751e+02    4.2586193848e+02
    1.7860145569e+02    4.2589801025e+02
    1.7870103455e+02    4.2592901611e+02
    1.7880151367e+02    4.2595404053e+02
    1.7890145874e+02    4.2598498535e+02
    1.7900157166e+02    4.2601000977e+02
    1.7910113525e+02    4.2603204346e+02
    1.7920161438e+02    4.2605596924e+02
    1.7930155945e+02    4.2606695557e+02
    1.7940168762e+02    4.2609197998e+02
    1.7950126648e+02    4.2610302734e+02
    1.7960104370e+02    4.2611895752e+02
    1.7970173645e+02    4.2612701416e+02
    1.7980116272e+02    4.2613299561e+02
    1.7990153503e+02    4.2614202881e+02
    1.8000135803e+02    4.2614599609e+02
    1.8010139465e+02    4.2614501953e+02
    1.8020161438e+02    4.2614807129e+02
    1.8030131531e+02    4.2613696289e+02
    1.8040122986e+02    4.2614001465e+02
    1.8050134277e+02    4.2612805176e+02
    1.8060166931e+02    4.2611895752e+02
    1.8070146179e+02    4.2610595703e+02
    1.8080148315e+02    4.2609704590e+02
    1.8090170288e+02    4.2608197021e+02
    1.8100140381e+02    4.2606396484e+02
    1.8110131836e+02    4.2603900146e+02
    1.8120147705e+02    4.2601794434e+02
    1.8130183411e+02    4.2600000000e+02
    1.8140168762e+02    4.2596905518e+02
    1.8150175476e+02    4.2594195557e+02
    1.8160128784e+02    4.2590997314e+02
    1.8170181274e+02    4.2588006592e+02
    1.8180181885e+02    4.2584594727e+02
    1.8190130615e+02    4.2580798340e+02
    1.8200178528e+02    4.2577105713e+02
    1.8210173035e+02    4.2572998047e+02
    1.8220115662e+02    4.2568499756e+02
    1.8230158997e+02    4.2564105225e+02
    1.8240148926e+02    4.2559295654e+02
    1.8250164795e+02    4.2554901123e+02
    1.8260127258e+02    4.2549096680e+02
    1.8270191956e+02    4.2544299316e+02
    1.8280125427e+02    4.2538507080e+02
    1.8290162659e+02    4.2532598877e+02
    1.8300146484e+02    4.2526403809e+02
    1.8310156250e+02    4.2520495605e+02
    1.8320191956e+02    4.2513897705e+02
    1.8330174255e+02    4.2508007812e+02
    1.8340180969e+02    4.2500396729e+02
    1.8350135803e+02    4.2493499756e+02
    1.8360195923e+02    4.2486395264e+02
    1.8370123291e+02    4.2479400635e+02
    1.8380155945e+02    4.2471295166e+02
    1.8390135193e+02    4.2463897705e+02
    1.8400140381e+02    4.2455804443e+02
    1.8410174561e+02    4.2446997070e+02
    1.8420152283e+02    4.2438806152e+02
    1.8430158997e+02    4.2429895020e+02
    1.8440191650e+02    4.2421301270e+02
    1.8450169373e+02    4.2412396240e+02
    1.8460176086e+02    4.2402801514e+02
    1.8470127869e+02    4.2393792725e+02
    1.8480189514e+02    4.2383703613e+02
    1.8490194702e+02    4.2373297119e+02
    1.8500146484e+02    4.2363598633e+02
    1.8510208130e+02    4.2353594971e+02
    1.8520130920e+02    4.2342901611e+02
    1.8530166626e+02    4.2332006836e+02
    1.8540144348e+02    4.2320800781e+02
    1.8550151062e+02    4.2309906006e+02
    1.8560174561e+02    4.2298297119e+02
    1.8570129395e+02    4.2286804199e+02
    1.8580186462e+02    4.2275201416e+02
    1.8590173340e+02    4.2263604736e+02
    1.8600178528e+02    4.2251397705e+02
    1.8610197449e+02    4.2238592529e+02
    1.8620150757e+02    4.2225897217e+02
    1.8630203247e+02    4.2213092041e+02
    1.8640187073e+02    4.2200201416e+02
    1.8650178528e+02    4.2186993408e+02
    1.8660173035e+02    4.2173498535e+02
    1.8670170593e+02    4.2160699463e+02
    1.8680172729e+02    4.2146502686e+02
    1.8690177917e+02    4.2132995605e+02
    1.8700187683e+02    4.2118206787e+02
    1.8710200500e+02    4.2104101562e+02
    1.8720216370e+02    4.2089593506e+02
    1.8730151367e+02    4.2074401855e+02
    1.8740177917e+02    4.2059295654e+02
    1.8750207520e+02    4.2044805908e+02
    1.8760156250e+02    4.2028594971e+02
    1.8770196533e+02    4.2013403320e+02
    1.8780154419e+02    4.1997497559e+02
    1.8790203857e+02    4.1981695557e+02
    1.8800172424e+02    4.1965100098e+02
    1.8810145569e+02    4.1949194336e+02
    1.8820210266e+02    4.1932305908e+02
    1.8830195618e+02    4.1915600586e+02
    1.8840185547e+02    4.1898596191e+02
    1.8850180054e+02    4.1881304932e+02
    1.8860180664e+02    4.1863598633e+02
    1.8870187378e+02    4.1846508789e+02
    1.8880201721e+02    4.1828100586e+02
    1.8890220642e+02    4.1810198975e+02
    1.8900158691e+02    4.1792706299e+02
    1.8910191345e+02    4.1774102783e+02
    1.8920228577e+02    4.1755194092e+02
    1.8930186462e+02    4.1736602783e+02
    1.8940151978e+02    4.1717498779e+02
    1.8950210571e+02    4.1698498535e+02
    1.8960188293e+02    4.1678704834e+02
    1.8970173645e+02    4.1659497070e+02
    1.8980166626e+02    4.1638891602e+02
    1.8990168762e+02    4.1618902588e+02
    1.9000175476e+02    4.1598596191e+02
    1.9010191345e+02    4.1578796387e+02
    1.9020213318e+02    4.1557702637e+02
    1.9030157471e+02    4.1536798096e+02
    1.9040197754e+02    4.1515795898e+02
    1.9050157166e+02    4.1495104980e+02
    1.9060212708e+02    4.1473400879e+02
    1.9070190430e+02    4.1451800537e+02
    1.9080174255e+02    4.1429895020e+02
    1.9090168762e+02    4.1407604980e+02
    1.9100172424e+02    4.1385797119e+02
    1.9110183716e+02    4.1363598633e+02
    1.9120205688e+02    4.1341003418e+02
    1.9130235291e+02    4.1317901611e+02
    1.9140187073e+02    4.1295196533e+02
    1.9150236511e+02    4.1271197510e+02
    1.9160206604e+02    4.1247607422e+02
    1.9170187378e+02    4.1224499512e+02
    1.9180177307e+02    4.1201000977e+02
    1.9190176392e+02    4.1177093506e+02
    1.9200187683e+02    4.1152703857e+02
    1.9210209656e+02    4.1127801514e+02
    1.9220239258e+02    4.1103497314e+02
    1.9230192566e+02    4.1078497314e+02
    1.9240246582e+02    4.1053192139e+02
    1.9250219727e+02    4.1028302002e+02
    1.9260197449e+02    4.1003002930e+02
    1.9270176697e+02    4.0977496338e+02
    1.9280247498e+02    4.0950897217e+02
    1.9290231323e+02    4.0924804688e+02
    1.9300216675e+02    4.0898400879e+02
    1.9310202026e+02    4.0872802734e+02
    1.9320190430e+02    4.0845794678e+02
    1.9330183411e+02    4.0818493652e+02
    1.9340179443e+02    4.0792004395e+02
    1.9350172424e+02    4.0764202881e+02
    1.9360174561e+02    4.0736999512e+02
    1.9370173645e+02    4.0709594727e+02
    1.9380174255e+02    4.0681994629e+02
    1.9390176392e+02    4.0654003906e+02
    1.9400189209e+02    4.0625604248e+02
    1.9410208130e+02    4.0596801758e+02
    1.9420216370e+02    4.0567999268e+02
    1.9430241394e+02    4.0539599609e+02
    1.9440255737e+02    4.0510198975e+02
    1.9450181580e+02    4.0481396484e+02
    1.9460198975e+02    4.0451403809e+02
    1.9470217896e+02    4.0422100830e+02
    1.9480239868e+02    4.0391601562e+02
    1.9490264893e+02    4.0361700439e+02
    1.9500201416e+02    4.0331396484e+02
    1.9510232544e+02    4.0300994873e+02
    1.9520263672e+02    4.0270294189e+02
    1.9530206299e+02    4.0240106201e+02
    1.9540243530e+02    4.0208807373e+02
    1.9550192261e+02    4.0177001953e+02
    1.9560234070e+02    4.0146099854e+02
    1.9570196533e+02    4.0114599609e+02
    1.9580255127e+02    4.0081896973e+02
    1.9590249634e+02    4.0050195312e+02
    1.9600210571e+02    4.0017993164e+02
    1.9610264587e+02    3.9985595703e+02
    1.9620234680e+02    3.9952691650e+02
    1.9630203247e+02    3.9920605469e+02
    1.9640266418e+02    3.9887304688e+02
    1.9650239563e+02    3.9853601074e+02
    1.9660244751e+02    3.9820104980e+02
    1.9670222473e+02    3.9786804199e+02
    1.9680204773e+02    3.9753198242e+02
    1.9690280151e+02    3.9718499756e+02
    1.9700268555e+02    3.9684301758e+02
    1.9710267639e+02    3.9649700928e+02
    1.9720260620e+02    3.9614898682e+02
    1.9730256653e+02    3.9580798340e+02
    1.9740254211e+02    3.9545495605e+02
    1.9750254822e+02    3.9509796143e+02
    1.9760258484e+02    3.9474896240e+02
    1.9770271301e+02    3.9439495850e+02
    1.9780279541e+02    3.9402996826e+02
    1.9790202332e+02    3.9368103027e+02
    1.9800216675e+02    3.9331005859e+02
    1.9810232544e+02    3.9294506836e+02
    1.9820254517e+02    3.9257806396e+02
    1.9830276489e+02    3.9220806885e+02
    1.9840211487e+02    3.9184405518e+02
    1.9850250244e+02    3.9147607422e+02
    1.9860281372e+02    3.9109704590e+02
    1.9870225525e+02    3.9072406006e+02
    1.9880262756e+02    3.9033905029e+02
    1.9890226746e+02    3.8996704102e+02
    1.9900270081e+02    3.8958605957e+02
    1.9910223389e+02    3.8920202637e+02
    1.9920271301e+02    3.8881506348e+02
    1.9930232239e+02    3.8842504883e+02
    1.9940286255e+02    3.8803204346e+02
    1.9950265503e+02    3.8764007568e+02
    1.9960235596e+02    3.8725006104e+02
    1.9970297241e+02    3.8685003662e+02
    1.9980271912e+02    3.8646008301e+02
    1.9990249634e+02    3.8606005859e+02
endcurve
