Curveplot
LS-DYNA keyword deck by LS-PrePost
Abscissa
Ordinate
XY data
CHOP_NASX_mo-1 #pts=3000
* Minval=     0.0000000000e+00 at time=         0.0000000000
* Maxval=     4.1741897583e+01 at time=       163.0006561279
    0.0000000000e+00    0.0000000000e+00
    9.9943503737e-02    1.5624200460e-03
    1.9988700747e-01    3.1248300802e-03
    2.9994606972e-01    4.6890601516e-03
    3.9988955855e-01    6.2514701858e-03
    4.9994862080e-01    7.8157000244e-03
    5.9989213943e-01    9.3781100586e-03
    6.9991886616e-01    1.0941793211e-02
    7.9997789860e-01    1.2506007217e-02
    8.9992153645e-01    1.4068312012e-02
    9.9998134375e-01    1.5632450581e-02
    1.0999338627e+00    1.7195068300e-02
    1.1999901533e+00    1.8759166822e-02
    1.2999490499e+00    2.0321788266e-02
    1.3999032974e+00    2.1884260699e-02
    1.4998972416e+00    2.3447340354e-02
    1.5999922752e+00    2.5012070313e-02
    1.6998958588e+00    2.6573838666e-02
    1.7999031544e+00    2.8137205169e-02
    1.8999958038e+00    2.9701897874e-02
    1.9998879433e+00    3.1263619661e-02
    2.0999808311e+00    3.2828688622e-02
    2.1999180317e+00    3.4391507506e-02
    2.2999393940e+00    3.5955876112e-02
    2.3999960423e+00    3.7520904094e-02
    2.4999492168e+00    3.9084132761e-02
    2.5999567509e+00    4.0647853166e-02
    2.6999063492e+00    4.2210657150e-02
    2.7999629974e+00    4.3775543571e-02
    2.8999724388e+00    4.5340772718e-02
    2.9999170303e+00    4.6906415373e-02
    3.0998952389e+00    4.8474565148e-02
    3.1999557018e+00    5.0046060234e-02
    3.2999453545e+00    5.1618512720e-02
    3.3999445438e+00    5.3193058819e-02
    3.4998834133e+00    5.4768428206e-02
    3.5999081135e+00    5.6346625090e-02
    3.6999166012e+00    5.7925838977e-02
    3.7999978065e+00    5.9507347643e-02
    3.8999550343e+00    6.1087869108e-02
    3.9999179840e+00    6.2669269741e-02
    4.0999603271e+00    6.4252607524e-02
    4.1999402046e+00    6.5835319459e-02
    4.2999968529e+00    6.7419387400e-02
    4.3999152184e+00    6.9001600146e-02
    4.4999217987e+00    7.0585101843e-02
    4.5999255180e+00    7.2168506682e-02
    4.6999697685e+00    7.3752686381e-02
    4.7999444008e+00    7.5335763395e-02
    4.8998894691e+00    7.6918371022e-02
    4.9999098778e+00    7.8501932323e-02
    5.0999464989e+00    8.0085627735e-02
    5.1998920441e+00    8.1667572260e-02
    5.2999529839e+00    8.3251178265e-02
    5.3999128342e+00    8.4832854569e-02
    5.4998979568e+00    8.6414799094e-02
    5.5998950005e+00    8.7996758521e-02
    5.6999144554e+00    8.9578710496e-02
    5.7999897003e+00    9.1161273420e-02
    5.8999600410e+00    9.2742010951e-02
    5.9998917580e+00    9.4321854413e-02
    6.0999193192e+00    9.5902957022e-02
    6.1998848915e+00    9.7482852638e-02
    6.2999567986e+00    9.9064260721e-02
    6.3999934196e+00    1.0064477473e-01
    6.4999384880e+00    1.0222408175e-01
    6.5999288559e+00    1.0380303860e-01
    6.6999893188e+00    1.0538265109e-01
    6.7999343872e+00    1.0696002841e-01
    6.8999943733e+00    1.0854011029e-01
    6.9999389648e+00    1.1011676490e-01
    7.0999641418e+00    1.1169487238e-01
    7.1999254227e+00    1.1327024549e-01
    7.2999334335e+00    1.1484680325e-01
    7.3999934196e+00    1.1642261595e-01
    7.4999380112e+00    1.1799678206e-01
    7.5998821259e+00    1.1956949532e-01
    7.6999416351e+00    1.2114368379e-01
    7.7998857498e+00    1.2271604687e-01
    7.8999204636e+00    1.2428729236e-01
    7.9999794960e+00    1.2585909665e-01
    8.0999231339e+00    1.2742623687e-01
    8.1999826431e+00    1.2899369001e-01
    8.2999277115e+00    1.3055852056e-01
    8.3999128342e+00    1.3212181628e-01
    8.4999303818e+00    1.3368366659e-01
    8.5999898911e+00    1.3524620235e-01
    8.6999330521e+00    1.3680459559e-01
    8.7999925613e+00    1.3836377859e-01
    8.8999776840e+00    1.3992068172e-01
    8.9999942780e+00    1.4147715271e-01
    9.0999450684e+00    1.4303003252e-01
    9.1999521255e+00    1.4458306134e-01
    9.2999505997e+00    1.4613296092e-01
    9.3999404907e+00    1.4768040180e-01
    9.4999961853e+00    1.4922606945e-01
    9.5999526978e+00    1.5076781809e-01
    9.6999683380e+00    1.5230762959e-01
    9.7999353409e+00    1.5384241939e-01
    9.8998928070e+00    1.5537515283e-01
    9.9999876022e+00    1.5690678358e-01
    1.0099958420e+01    1.6092146933e-01
    1.0199951172e+01    1.6493424773e-01
    1.0299942017e+01    1.6894415021e-01
    1.0399952888e+01    1.7295134068e-01
    1.0499897003e+01    1.7695418000e-01
    1.0599957466e+01    1.8095970154e-01
    1.0699904442e+01    1.8495829403e-01
    1.0799961090e+01    1.8895979226e-01
    1.0899909019e+01    1.9295425713e-01
    1.0999910355e+01    1.9694876671e-01
    1.1099945068e+01    2.0094336569e-01
    1.1199939728e+01    2.0493417978e-01
    1.1299942970e+01    2.0892414451e-01
    1.1399915695e+01    2.1291035414e-01
    1.1499931335e+01    2.1689680219e-01
    1.1599934578e+01    2.2088052332e-01
    1.1699994087e+01    2.2486540675e-01
    1.1799940109e+01    2.2884359956e-01
    1.1899902344e+01    2.3282089829e-01
    1.1999979019e+01    2.3680058122e-01
    1.2099975586e+01    2.4077591300e-01
    1.2199962616e+01    2.4475012720e-01
    1.2299979210e+01    2.4872398376e-01
    1.2399989128e+01    2.5269591808e-01
    1.2499971390e+01    2.5666326284e-01
    1.2599919319e+01    2.6062792540e-01
    1.2699973106e+01    2.6459318399e-01
    1.2799924850e+01    2.6855316758e-01
    1.2899955750e+01    2.7251687646e-01
    1.2999900818e+01    2.7647736669e-01
    1.3099960327e+01    2.8044390678e-01
    1.3199974060e+01    2.8440979123e-01
    1.3299920082e+01    2.8837394714e-01
    1.3399931908e+01    2.9234075546e-01
    1.3499981880e+01    2.9631099105e-01
    1.3600008011e+01    3.0027928948e-01
    1.3699955940e+01    3.0424427986e-01
    1.3799983025e+01    3.0821239948e-01
    1.3899989128e+01    3.1217733026e-01
    1.3999917030e+01    3.1613889337e-01
    1.4099946976e+01    3.2010173798e-01
    1.4199905396e+01    3.2406103611e-01
    1.4299902916e+01    3.2801973820e-01
    1.4399912834e+01    3.3197787404e-01
    1.4499910355e+01    3.3593356609e-01
    1.4599992752e+01    3.3989071846e-01
    1.4699989319e+01    3.4384426475e-01
    1.4799990654e+01    3.4779500961e-01
    1.4899990082e+01    3.5174357891e-01
    1.4999965668e+01    3.5568997264e-01
    1.5099946976e+01    3.5963317752e-01
    1.5199919701e+01    3.6357423663e-01
    1.5299959183e+01    3.6751616001e-01
    1.5399922371e+01    3.7145304680e-01
    1.5499902725e+01    3.7538892031e-01
    1.5599949837e+01    3.7932497263e-01
    1.5700012207e+01    3.8326025009e-01
    1.5799957275e+01    3.8718914986e-01
    1.5900018692e+01    3.9112073183e-01
    1.5999963760e+01    3.9504757524e-01
    1.6099910736e+01    3.9897474647e-01
    1.6199977875e+01    4.0290507674e-01
    1.6299922943e+01    4.0682995319e-01
    1.6399934769e+01    4.1075700521e-01
    1.6500015259e+01    4.1468513012e-01
    1.6599981308e+01    4.1860848665e-01
    1.6699926376e+01    4.2252993584e-01
    1.6799987793e+01    4.2645528913e-01
    1.6899959564e+01    4.3037563562e-01
    1.7000011444e+01    4.3429836631e-01
    1.7099922180e+01    4.3821221590e-01
    1.7199920654e+01    4.4212752581e-01
    1.7299938202e+01    4.4604116678e-01
    1.7400020599e+01    4.4995537400e-01
    1.7499965668e+01    4.5386180282e-01
    1.7600025177e+01    4.5777106285e-01
    1.7699996948e+01    4.6167448163e-01
    1.7799940109e+01    4.6557432413e-01
    1.7899919510e+01    4.6947172284e-01
    1.8000017166e+01    4.7337096930e-01
    1.8099939346e+01    4.7725820541e-01
    1.8199924469e+01    4.8114392161e-01
    1.8299953461e+01    4.8502638936e-01
    1.8399957657e+01    4.8890402913e-01
    1.8499948502e+01    4.9277818203e-01
    1.8599931717e+01    4.9664914608e-01
    1.8699991226e+01    5.0051999092e-01
    1.8799934387e+01    5.0438302755e-01
    1.8899972916e+01    5.0824582577e-01
    1.8999963760e+01    5.1210439205e-01
    1.9099973679e+01    5.1596009731e-01
    1.9199996948e+01    5.1981145144e-01
    1.9299995422e+01    5.2365785837e-01
    1.9399946213e+01    5.2749603987e-01
    1.9499996185e+01    5.3133201599e-01
    1.9599994659e+01    5.3516000509e-01
    1.9699935913e+01    5.3897988796e-01
    1.9799968719e+01    5.4279750586e-01
    1.9899974823e+01    5.4660838842e-01
    1.9999952316e+01    5.5041152239e-01
    2.0099998474e+01    5.5690360069e-01
    2.0200006485e+01    5.6338822842e-01
    2.0299951553e+01    5.6986337900e-01
    2.0400009155e+01    5.7634103298e-01
    2.0499977112e+01    5.8280652761e-01
    2.0600036621e+01    5.8927345276e-01
    2.0699979782e+01    5.9572768211e-01
    2.0800039291e+01    6.0218441486e-01
    2.0899959564e+01    6.0862648487e-01
    2.0999990463e+01    6.1507099867e-01
    2.1100013733e+01    6.2151032686e-01
    2.1199977875e+01    6.2793952227e-01
    2.1299930573e+01    6.3436377048e-01
    2.1399942398e+01    6.4078605175e-01
    2.1499925613e+01    6.4720225334e-01
    2.1600021362e+01    6.5362042189e-01
    2.1699964523e+01    6.6002392769e-01
    2.1800018311e+01    6.6642993689e-01
    2.1899980545e+01    6.7282390594e-01
    2.1999937057e+01    6.7921268940e-01
    2.2100044250e+01    6.8560588360e-01
    2.2199974060e+01    6.9198274612e-01
    2.2300033569e+01    6.9836246967e-01
    2.2399976730e+01    7.0472860336e-01
    2.2499940872e+01    7.1108818054e-01
    2.2599935532e+01    7.1744179726e-01
    2.2699979782e+01    7.2379142046e-01
    2.2799964905e+01    7.3013049364e-01
    2.2900024414e+01    7.3646879196e-01
    2.2999969482e+01    7.4279534817e-01
    2.3100027084e+01    7.4912589788e-01
    2.3199935913e+01    7.5544297695e-01
    2.3300001144e+01    7.6176702976e-01
    2.3400028229e+01    7.6808542013e-01
    2.3500007629e+01    7.7439582348e-01
    2.3599969864e+01    7.8070122004e-01
    2.3700029373e+01    7.8700578213e-01
    2.3799972534e+01    7.9329830408e-01
    2.3899986267e+01    7.9958951473e-01
    2.4000022888e+01    8.0587583780e-01
    2.4099994659e+01    8.1215262413e-01
    2.4200017929e+01    8.1842762232e-01
    2.4300050735e+01    8.2469707727e-01
    2.4399963379e+01    8.3095401525e-01
    2.4500024796e+01    8.3721494675e-01
    2.4599969864e+01    8.4346330166e-01
    2.4699968338e+01    8.4970879555e-01
    2.4799945831e+01    8.5594844818e-01
    2.4900024414e+01    8.6218720675e-01
    2.4999944687e+01    8.6840891838e-01
    2.5099998474e+01    8.7463295460e-01
    2.5199951172e+01    8.8084268570e-01
    2.5299957275e+01    8.8704937696e-01
    2.5400018692e+01    8.9325320721e-01
    2.5500009537e+01    8.9944618940e-01
    2.5599958420e+01    9.0563142300e-01
    2.5700046539e+01    9.1181898117e-01
    2.5800046921e+01    9.1799438000e-01
    2.5899991989e+01    9.2416268587e-01
    2.6000051498e+01    9.3033128977e-01
    2.6099996567e+01    9.3648874760e-01
    2.6199958801e+01    9.4264304638e-01
    2.6299968719e+01    9.4879400730e-01
    2.6400060654e+01    9.5494538546e-01
    2.6500003815e+01    9.6108222008e-01
    2.6600051880e+01    9.6721577644e-01
    2.6700040817e+01    9.7335094213e-01
    2.6800010681e+01    9.7947072983e-01
    2.6899951935e+01    9.8558491468e-01
    2.6999990463e+01    9.9170243740e-01
    2.7100057602e+01    9.9780297279e-01
    2.7200048447e+01    1.0039070845e+00
    2.7299993515e+01    1.0099941492e+00
    2.7400066376e+01    1.0160835981e+00
    2.7500011444e+01    1.0221571922e+00
    2.7600004196e+01    1.0282243490e+00
    2.7699985504e+01    1.0342854261e+00
    2.7800041199e+01    1.0403494835e+00
    2.7899955750e+01    1.0463970900e+00
    2.8000005722e+01    1.0524352789e+00
    2.8100065231e+01    1.0584741831e+00
    2.8199958801e+01    1.0644950867e+00
    2.8300006866e+01    1.0705156326e+00
    2.8400022507e+01    1.0765179396e+00
    2.8500055313e+01    1.0825220346e+00
    2.8600000381e+01    1.0885096788e+00
    2.8700059891e+01    1.0944896936e+00
    2.8800003052e+01    1.1004643440e+00
    2.8900062561e+01    1.1064416170e+00
    2.9000005722e+01    1.1124032736e+00
    2.9100063324e+01    1.1183671951e+00
    2.9199991226e+01    1.1243146658e+00
    2.9300069809e+01    1.1302624941e+00
    2.9400045395e+01    1.1361922026e+00
    2.9500024796e+01    1.1421122551e+00
    2.9600048065e+01    1.1480321884e+00
    2.9700048447e+01    1.1539325714e+00
    2.9800052643e+01    1.1598331928e+00
    2.9899972916e+01    1.1657054424e+00
    2.9999971390e+01    1.1715883017e+00
    3.0100044250e+01    1.1834415197e+00
    3.0200012207e+01    1.1952866316e+00
    3.0299964905e+01    1.2071129084e+00
    3.0400024414e+01    1.2189388275e+00
    3.0499967575e+01    1.2307565212e+00
    3.0600027084e+01    1.2425636053e+00
    3.0700054169e+01    1.2543615103e+00
    3.0800069809e+01    1.2661502361e+00
    3.0900022507e+01    1.2779198885e+00
    3.1000040054e+01    1.2896894217e+00
    3.1100063324e+01    1.3014595509e+00
    3.1200012207e+01    1.3132008314e+00
    3.1300024033e+01    1.3249423504e+00
    3.1399967194e+01    1.3366656303e+00
    3.1499969482e+01    1.3483797312e+00
    3.1600028992e+01    1.3601045609e+00
    3.1700004578e+01    1.3718014956e+00
    3.1800060272e+01    1.3835082054e+00
    3.1900005341e+01    1.3951864243e+00
    3.2000064850e+01    1.4068741798e+00
    3.2100002289e+01    1.4185339212e+00
    3.2200019836e+01    1.4301939011e+00
    3.2300067902e+01    1.4418439865e+00
    3.2400001526e+01    1.4534744024e+00
    3.2500068665e+01    1.4651107788e+00
    3.2599994659e+01    1.4767056704e+00
    3.2700050354e+01    1.4883170128e+00
    3.2800056458e+01    1.4999088049e+00
    3.2900001526e+01    1.5114839077e+00
    3.3000064850e+01    1.5230729580e+00
    3.3100006104e+01    1.5346401930e+00
    3.3199951172e+01    1.5462046862e+00
    3.3299949646e+01    1.5577657223e+00
    3.3400020599e+01    1.5693422556e+00
    3.3499973297e+01    1.5808949471e+00
    3.3600032806e+01    1.5924609900e+00
    3.3700016022e+01    1.6040009260e+00
    3.3799945831e+01    1.6155329943e+00
    3.3900016785e+01    1.6270749569e+00
    3.4000026703e+01    1.6385979652e+00
    3.4100048065e+01    1.6501109600e+00
    3.4200046539e+01    1.6616150141e+00
    3.4299957275e+01    1.6730899811e+00
    3.4400020599e+01    1.6845829487e+00
    3.4499965668e+01    1.6960489750e+00
    3.4600028992e+01    1.7075229883e+00
    3.4699993134e+01    1.7189689875e+00
    3.4799972534e+01    1.7304139137e+00
    3.4899971008e+01    1.7418359518e+00
    3.4999988556e+01    1.7532548904e+00
    3.5099937439e+01    1.7646510601e+00
    3.5200000763e+01    1.7760519981e+00
    3.5299976349e+01    1.7874310017e+00
    3.5399971008e+01    1.7987869978e+00
    3.5499912262e+01    1.8101310730e+00
    3.5599960327e+01    1.8214809895e+00
    3.5699920654e+01    1.8327990770e+00
    3.5799983978e+01    1.8441239595e+00
    3.5899929047e+01    1.8554168940e+00
    3.5999992371e+01    1.8667069674e+00
    3.6099937439e+01    1.8779780865e+00
    3.6200000763e+01    1.8892539740e+00
    3.6299945831e+01    1.9005010128e+00
    3.6400005341e+01    1.9117538929e+00
    3.6499950409e+01    1.9229750633e+00
    3.6600013733e+01    1.9341919422e+00
    3.6699954987e+01    1.9453880787e+00
    3.6799968719e+01    1.9565799236e+00
    3.6899906158e+01    1.9677510262e+00
    3.6999958038e+01    1.9789279699e+00
    3.7099903107e+01    1.9900730848e+00
    3.7199962616e+01    2.0012118816e+00
    3.7299903870e+01    2.0123281479e+00
    3.7399963379e+01    2.0234479904e+00
    3.7499908447e+01    2.0345361233e+00
    3.7599964142e+01    2.0456290245e+00
    3.7699909210e+01    2.0566911697e+00
    3.7799964905e+01    2.0677459240e+00
    3.7899909973e+01    2.0787761211e+00
    3.7999965668e+01    2.0898058414e+00
    3.8099906921e+01    2.1007981300e+00
    3.8199920654e+01    2.1117799282e+00
    3.8299953461e+01    2.1227421761e+00
    3.8399894714e+01    2.1336779594e+00
    3.8499973297e+01    2.1446139812e+00
    3.8599960327e+01    2.1555159092e+00
    3.8699901581e+01    2.1664040089e+00
    3.8799957275e+01    2.1772949696e+00
    3.8899898529e+01    2.1881539822e+00
    3.8999954224e+01    2.1990149021e+00
    3.9099903107e+01    2.2098410130e+00
    3.9199890137e+01    2.2206490040e+00
    3.9299903870e+01    2.2314479351e+00
    3.9399909973e+01    2.2422249317e+00
    3.9499927521e+01    2.2529799938e+00
    3.9599956512e+01    2.2637109756e+00
    3.9699901581e+01    2.2744109631e+00
    3.9799957275e+01    2.2851040363e+00
    3.9899902344e+01    2.2957580090e+00
    3.9999942780e+01    2.3063969612e+00
    4.0099853516e+01    2.3247880936e+00
    4.0199840546e+01    2.3431661129e+00
    4.0299846649e+01    2.3615319729e+00
    4.0399902344e+01    2.3798749447e+00
    4.0499847412e+01    2.3981900215e+00
    4.0599903107e+01    2.4164998531e+00
    4.0699890137e+01    2.4347720146e+00
    4.0799930573e+01    2.4530320168e+00
    4.0899845123e+01    2.4712541103e+00
    4.0999931335e+01    2.4894819260e+00
    4.1099922180e+01    2.5076830387e+00
    4.1199867249e+01    2.5258438587e+00
    4.1299922943e+01    2.5440139771e+00
    4.1399864197e+01    2.5621378422e+00
    4.1499923706e+01    2.5802721977e+00
    4.1599822998e+01    2.5983610153e+00
    4.1699928284e+01    2.6164669991e+00
    4.1799907684e+01    2.6345269680e+00
    4.1899887085e+01    2.6525678635e+00
    4.1999843597e+01    2.6705918312e+00
    4.2099887848e+01    2.6886048317e+00
    4.2199913025e+01    2.7065999508e+00
    4.2299922943e+01    2.7245781422e+00
    4.2399818420e+01    2.7425079346e+00
    4.2499847412e+01    2.7604529858e+00
    4.2599918365e+01    2.7783730030e+00
    4.2699867249e+01    2.7962448597e+00
    4.2799869537e+01    2.8141160011e+00
    4.2899909973e+01    2.8319699764e+00
    4.2999870300e+01    2.8498041630e+00
    4.3099910736e+01    2.8676350117e+00
    4.3199855804e+01    2.8854479790e+00
    4.3299827576e+01    2.9032499790e+00
    4.3399806976e+01    2.9210388660e+00
    4.3499809265e+01    2.9388248920e+00
    4.3599868774e+01    2.9566018581e+00
    4.3699874878e+01    2.9743440151e+00
    4.3799880981e+01    2.9920780659e+00
    4.3899784088e+01    3.0097739697e+00
    4.3999858856e+01    3.0274770260e+00
    4.4099884033e+01    3.0451500416e+00
    4.4199817657e+01    3.0627868176e+00
    4.4299839020e+01    3.0804231167e+00
    4.4399780273e+01    3.0980319977e+00
    4.4499843597e+01    3.1156301498e+00
    4.4599811554e+01    3.1332030296e+00
    4.4699859619e+01    3.1507759094e+00
    4.4799858093e+01    3.1683099270e+00
    4.4899803162e+01    3.1858239174e+00
    4.4999816895e+01    3.2033231258e+00
    4.5099811554e+01    3.2207889557e+00
    4.5199859619e+01    3.2382490635e+00
    4.5299812317e+01    3.2556579113e+00
    4.5399776459e+01    3.2730550766e+00
    4.5499870300e+01    3.2904560566e+00
    4.5599861145e+01    3.3078088760e+00
    4.5699859619e+01    3.3251509666e+00
    4.5799842834e+01    3.3424630165e+00
    4.5899772644e+01    3.3597469330e+00
    4.5999832153e+01    3.3770389557e+00
    4.6099773407e+01    3.3942859173e+00
    4.6199832916e+01    3.4115419388e+00
    4.6299766541e+01    3.4287538528e+00
    4.6399822235e+01    3.4459731579e+00
    4.6499763489e+01    3.4631459713e+00
    4.6599822998e+01    3.4803271294e+00
    4.6699764252e+01    3.4974720478e+00
    4.6799819946e+01    3.5146028996e+00
    4.6899810791e+01    3.5317180157e+00
    4.6999774933e+01    3.5488028526e+00
    4.7099758148e+01    3.5658659935e+00
    4.7199813843e+01    3.5829241276e+00
    4.7299755096e+01    3.5999319553e+00
    4.7399810791e+01    3.6169428825e+00
    4.7499752045e+01    3.6339058876e+00
    4.7599807739e+01    3.6508722305e+00
    4.7699748993e+01    3.6677889824e+00
    4.7799751282e+01    3.6847000122e+00
    4.7899826050e+01    3.7015898228e+00
    4.7999767303e+01    3.7184250355e+00
    4.8099819183e+01    3.7352547646e+00
    4.8199802399e+01    3.7520370483e+00
    4.8299747467e+01    3.7687892914e+00
    4.8399742126e+01    3.7855088711e+00
    4.8499797821e+01    3.8022191525e+00
    4.8599739075e+01    3.8188757896e+00
    4.8699794769e+01    3.8355340958e+00
    4.8799732208e+01    3.8521401882e+00
    4.8899787903e+01    3.8687469959e+00
    4.8999725342e+01    3.8853011131e+00
    4.9099777222e+01    3.9018528461e+00
    4.9199810028e+01    3.9183661938e+00
    4.9299709320e+01    3.9348318577e+00
    4.9399723053e+01    3.9512789249e+00
    4.9499710083e+01    3.9676821232e+00
    4.9599765778e+01    3.9840641022e+00
    4.9699741364e+01    4.0003919601e+00
    4.9799800873e+01    4.0167016983e+00
    4.9899738312e+01    4.0329513550e+00
    4.9999794006e+01    4.0491919518e+00
    5.0099708557e+01    4.0749464035e+00
    5.0199752808e+01    4.1007223129e+00
    5.0299758911e+01    4.1264457703e+00
    5.0399696350e+01    4.1521296501e+00
    5.0499748230e+01    4.1778039932e+00
    5.0599685669e+01    4.2034192085e+00
    5.0699733734e+01    4.2290248871e+00
    5.0799686432e+01    4.2545700073e+00
    5.0899738312e+01    4.2801060677e+00
    5.0999736786e+01    4.3056011200e+00
    5.1099685669e+01    4.3310432434e+00
    5.1199741364e+01    4.3564767838e+00
    5.1299678802e+01    4.3818516731e+00
    5.1399730682e+01    4.4072203636e+00
    5.1499782562e+01    4.4325561523e+00
    5.1599720001e+01    4.4578371048e+00
    5.1699691772e+01    4.4830927849e+00
    5.1799667358e+01    4.5083169937e+00
    5.1899719238e+01    4.5335230827e+00
    5.1999771118e+01    4.5586957932e+00
    5.2099662781e+01    4.5837926865e+00
    5.2199699402e+01    4.6089000702e+00
    5.2299709320e+01    4.6339640617e+00
    5.2399719238e+01    4.6589899063e+00
    5.2499736786e+01    4.6839761734e+00
    5.2599662781e+01    4.7088937759e+00
    5.2699726105e+01    4.7338142395e+00
    5.2799678802e+01    4.7586622238e+00
    5.2899730682e+01    4.7835021019e+00
    5.2999668121e+01    4.8082885742e+00
    5.3099720001e+01    4.8330740929e+00
    5.3199703217e+01    4.8578162193e+00
    5.3299713135e+01    4.8825387955e+00
    5.3399665833e+01    4.9072179794e+00
    5.3499713898e+01    4.9318923950e+00
    5.3599674225e+01    4.9565181732e+00
    5.3699729919e+01    4.9811239243e+00
    5.3799682617e+01    5.0056710243e+00
    5.3899738312e+01    5.0302057266e+00
    5.3999732971e+01    5.0546979904e+00
    5.4099700928e+01    5.0791459084e+00
    5.4199661255e+01    5.1035480499e+00
    5.4299709320e+01    5.1279420853e+00
    5.4399646759e+01    5.1522793770e+00
    5.4499694824e+01    5.1766061783e+00
    5.4599636078e+01    5.2008781433e+00
    5.4699661255e+01    5.2251310349e+00
    5.4799671173e+01    5.2493500710e+00
    5.4899696350e+01    5.2735309601e+00
    5.4999721527e+01    5.2976808548e+00
    5.5099655151e+01    5.3217568398e+00
    5.5199695587e+01    5.3458247185e+00
    5.5299678802e+01    5.3698363304e+00
    5.5399635315e+01    5.3937997818e+00
    5.5499702454e+01    5.4177589417e+00
    5.5599628448e+01    5.4416408539e+00
    5.5699623108e+01    5.4655122757e+00
    5.5799671173e+01    5.4893541336e+00
    5.5899715424e+01    5.5131611824e+00
    5.5999645233e+01    5.5369009972e+00
    5.6099693298e+01    5.5606398582e+00
    5.6199619293e+01    5.5843219757e+00
    5.6299652100e+01    5.6079821587e+00
    5.6399696350e+01    5.6316161156e+00
    5.6499622345e+01    5.6551899910e+00
    5.6599670410e+01    5.6787490845e+00
    5.6699596405e+01    5.7022390366e+00
    5.6799644470e+01    5.7257237434e+00
    5.6899631500e+01    5.7491559982e+00
    5.6999675751e+01    5.7725682259e+00
    5.7099594116e+01    5.7959098816e+00
    5.7199615479e+01    5.8192458153e+00
    5.7299659729e+01    5.8425297737e+00
    5.7399585724e+01    5.8657631874e+00
    5.7499626160e+01    5.8889789581e+00
    5.7599670410e+01    5.9121580124e+00
    5.7699596405e+01    5.9352660179e+00
    5.7799640656e+01    5.9583649635e+00
    5.7899585724e+01    5.9813971519e+00
    5.7999668121e+01    6.0044121742e+00
    5.8099613190e+01    6.0273480415e+00
    5.8199668884e+01    6.0502567291e+00
    5.8299598694e+01    6.0730972290e+00
    5.8399639130e+01    6.0959010124e+00
    5.8499565125e+01    6.1186499596e+00
    5.8599605560e+01    6.1413798332e+00
    5.8699649811e+01    6.1640596390e+00
    5.8799571991e+01    6.1866798401e+00
    5.8899612427e+01    6.2092900276e+00
    5.8999652863e+01    6.2318401337e+00
    5.9099575043e+01    6.2543497086e+00
    5.9199550629e+01    6.2768101692e+00
    5.9299568176e+01    6.2992401123e+00
    5.9399566650e+01    6.3215999603e+00
    5.9499584198e+01    6.3439397812e+00
    5.9599609375e+01    6.3662099838e+00
    5.9699600220e+01    6.3884201050e+00
    5.9799610138e+01    6.4105796814e+00
    5.9899650574e+01    6.4327096939e+00
    5.9999572754e+01    6.4547500610e+00
    6.0099624634e+01    6.4879703522e+00
    6.0199592590e+01    6.5211496353e+00
    6.0299594879e+01    6.5542998314e+00
    6.0399631500e+01    6.5874099731e+00
    6.0499553680e+01    6.6204299927e+00
    6.0599594116e+01    6.6534399986e+00
    6.0699630737e+01    6.6863999367e+00
    6.0799594879e+01    6.7192802429e+00
    6.0899559021e+01    6.7521100044e+00
    6.0999626160e+01    6.7849302292e+00
    6.1099628448e+01    6.8176603317e+00
    6.1199550629e+01    6.8503198624e+00
    6.1299587250e+01    6.8829693794e+00
    6.1399627686e+01    6.9155702591e+00
    6.1499549866e+01    6.9480895996e+00
    6.1599533081e+01    6.9805793762e+00
    6.1699592590e+01    7.0130400658e+00
    6.1799522400e+01    7.0454101562e+00
    6.1899562836e+01    7.0777602196e+00
    6.1999595642e+01    7.1100702286e+00
    6.2099517822e+01    7.1422805786e+00
    6.2199535370e+01    7.1744699478e+00
    6.2299610138e+01    7.2066397667e+00
    6.2399562836e+01    7.2386999130e+00
    6.2499576569e+01    7.2707200050e+00
    6.2599578857e+01    7.3026905060e+00
    6.2699569702e+01    7.3345899582e+00
    6.2799556732e+01    7.3664398193e+00
    6.2899578094e+01    7.3982396126e+00
    6.2999500275e+01    7.4299697876e+00
    6.3099540710e+01    7.4616994858e+00
    6.3199546814e+01    7.4933900833e+00
    6.3299488068e+01    7.5250000954e+00
    6.3399509430e+01    7.5566005707e+00
    6.3499549866e+01    7.5881605148e+00
    6.3599563599e+01    7.6196594238e+00
    6.3699489594e+01    7.6510801315e+00
    6.3799560547e+01    7.6825098991e+00
    6.3899589539e+01    7.7138500214e+00
    6.3999584198e+01    7.7451300621e+00
    6.4099563599e+01    7.7763500214e+00
    6.4199562073e+01    7.8075199127e+00
    6.4299484253e+01    7.8386101723e+00
    6.4399520874e+01    7.8696899414e+00
    6.4499557495e+01    7.9007201195e+00
    6.4599479675e+01    7.9316601753e+00
    6.4699493408e+01    7.9625797272e+00
    6.4799583435e+01    7.9934697151e+00
    6.4899559021e+01    8.0242700577e+00
    6.4999557495e+01    8.0550003052e+00
    6.5099487305e+01    8.0856599808e+00
    6.5199501038e+01    8.1162796021e+00
    6.5299484253e+01    8.1468200684e+00
    6.5399536133e+01    8.1773300171e+00
    6.5499496460e+01    8.2077493668e+00
    6.5599517822e+01    8.2381200790e+00
    6.5699562073e+01    8.2684402466e+00
    6.5799507141e+01    8.2986793518e+00
    6.5899543762e+01    8.3288698196e+00
    6.5999542236e+01    8.3590698242e+00
    6.6099456787e+01    8.3891201019e+00
    6.6199539185e+01    8.4192008972e+00
    6.6299491882e+01    8.4491300583e+00
    6.6399513245e+01    8.4790000916e+00
    6.6499504089e+01    8.5089101791e+00
    6.6599456787e+01    8.5386695862e+00
    6.6699440002e+01    8.5683593750e+00
    6.6799438477e+01    8.5980892181e+00
    6.6899444580e+01    8.6276607513e+00
    6.6999458313e+01    8.6572704315e+00
    6.7099494934e+01    8.6867303848e+00
    6.7199455261e+01    8.7162199020e+00
    6.7299453735e+01    8.7455596924e+00
    6.7399490356e+01    8.7749195099e+00
    6.7499465942e+01    8.8041400909e+00
    6.7599449158e+01    8.8332901001e+00
    6.7699424744e+01    8.8624801636e+00
    6.7799468994e+01    8.8915004730e+00
    6.7899467468e+01    8.9205598831e+00
    6.7999488831e+01    8.9494400024e+00
    6.8099426270e+01    8.9782600403e+00
    6.8199440002e+01    9.0071001053e+00
    6.8299446106e+01    9.0357599258e+00
    6.8399505615e+01    9.0644493103e+00
    6.8499488831e+01    9.0929899216e+00
    6.8599418640e+01    9.1215600967e+00
    6.8699440002e+01    9.1499595642e+00
    6.8799415588e+01    9.1783103943e+00
    6.8899505615e+01    9.2066698074e+00
    6.8999435425e+01    9.2348995209e+00
    6.9099510193e+01    9.2631397247e+00
    6.9199401855e+01    9.2912302017e+00
    6.9299438477e+01    9.3193407059e+00
    6.9399475098e+01    9.3472700119e+00
    6.9499443054e+01    9.3752202988e+00
    6.9599433899e+01    9.4029998779e+00
    6.9699417114e+01    9.4306898117e+00
    6.9799446106e+01    9.4583997726e+00
    6.9899452209e+01    9.4859294891e+00
    6.9999389648e+01    9.5135002136e+00
    7.0099388123e+01    9.5518894196e+00
    7.0199386597e+01    9.5904102325e+00
    7.0299385071e+01    9.6287498474e+00
    7.0399391174e+01    9.6671199799e+00
    7.0499488831e+01    9.7053995132e+00
    7.0599464417e+01    9.7435207367e+00
    7.0699409485e+01    9.7815599442e+00
    7.0799407959e+01    9.8196201324e+00
    7.0899406433e+01    9.8575105667e+00
    7.0999366760e+01    9.8953199387e+00
    7.1099403381e+01    9.9331398010e+00
    7.1199447632e+01    9.9708900452e+00
    7.1299415588e+01    1.0008480072e+01
    7.1399475098e+01    1.0046079636e+01
    7.1499412537e+01    1.0083539963e+01
    7.1599456787e+01    1.0121000290e+01
    7.1699417114e+01    1.0158309937e+01
    7.1799392700e+01    1.0195539474e+01
    7.1899375916e+01    1.0232800484e+01
    7.1999397278e+01    1.0269869804e+01
    7.2099388123e+01    1.0306980133e+01
    7.2199371338e+01    1.0343910217e+01
    7.2299362183e+01    1.0380769730e+01
    7.2399353027e+01    1.0417650223e+01
    7.2499359131e+01    1.0454350471e+01
    7.2599372864e+01    1.0491060257e+01
    7.2699455261e+01    1.0527679443e+01
    7.2799369812e+01    1.0564150810e+01
    7.2899368286e+01    1.0600540161e+01
    7.2999374390e+01    1.0636949539e+01
    7.3099357605e+01    1.0673210144e+01
    7.3199401855e+01    1.0709500313e+01
    7.3299430847e+01    1.0745619774e+01
    7.3399353027e+01    1.0781690598e+01
    7.3499366760e+01    1.0817770004e+01
    7.3599449158e+01    1.0853779793e+01
    7.3699432373e+01    1.0889619827e+01
    7.3799339294e+01    1.0925390244e+01
    7.3899368286e+01    1.0961159706e+01
    7.3999404907e+01    1.0996759415e+01
    7.4099342346e+01    1.1032390594e+01
    7.4199417114e+01    1.1067819595e+01
    7.4299346924e+01    1.1103300095e+01
    7.4399337769e+01    1.1138589859e+01
    7.4499382019e+01    1.1173900604e+01
    7.4599327087e+01    1.1209059715e+01
    7.4699409485e+01    1.1244219780e+01
    7.4799392700e+01    1.1279220581e+01
    7.4899353027e+01    1.1314149857e+01
    7.4999420166e+01    1.1349060059e+01
    7.5099311829e+01    1.1383830070e+01
    7.5199401855e+01    1.1418560028e+01
    7.5299385071e+01    1.1453130722e+01
    7.5399414062e+01    1.1487709999e+01
    7.5499366760e+01    1.1522119522e+01
    7.5599334717e+01    1.1556440353e+01
    7.5699356079e+01    1.1590780258e+01
    7.5799354553e+01    1.1625040054e+01
    7.5899391174e+01    1.1659119606e+01
    7.5999389648e+01    1.1693220139e+01
    7.6099327087e+01    1.1727159500e+01
    7.6199409485e+01    1.1761099815e+01
    7.6299339294e+01    1.1794890404e+01
    7.6399337769e+01    1.1828579903e+01
    7.6499382019e+01    1.1862289429e+01
    7.6599365234e+01    1.1895820618e+01
    7.6699363708e+01    1.1929369926e+01
    7.6799377441e+01    1.1962729454e+01
    7.6899322510e+01    1.1996030807e+01
    7.6999282837e+01    1.2029350281e+01
    7.7099357605e+01    1.2062560081e+01
    7.7199378967e+01    1.2095600128e+01
    7.7299346924e+01    1.2128570557e+01
    7.7399360657e+01    1.2161540031e+01
    7.7499305725e+01    1.2194339752e+01
    7.7599281311e+01    1.2227040291e+01
    7.7699295044e+01    1.2259759903e+01
    7.7799362183e+01    1.2292379379e+01
    7.7899261475e+01    1.2324840546e+01
    7.7999259949e+01    1.2357179642e+01
    7.8099372864e+01    1.2389499664e+01
    7.8199287415e+01    1.2421660423e+01
    7.8299339294e+01    1.2453789711e+01
    7.8399345398e+01    1.2485740662e+01
    7.8499305725e+01    1.2517710686e+01
    7.8599342346e+01    1.2549468994e+01
    7.8699325562e+01    1.2581251144e+01
    7.8799346924e+01    1.2612839699e+01
    7.8899276733e+01    1.2644359589e+01
    7.8999359131e+01    1.2675859451e+01
    7.9099296570e+01    1.2707190514e+01
    7.9199264526e+01    1.2738519669e+01
    7.9299308777e+01    1.2769640923e+01
    7.9399253845e+01    1.2800780296e+01
    7.9499298096e+01    1.2831688881e+01
    7.9599342346e+01    1.2862600327e+01
    7.9699249268e+01    1.2893320084e+01
    7.9799240112e+01    1.2923930168e+01
    7.9899345398e+01    1.2954509735e+01
    7.9999244690e+01    1.2984940529e+01
    8.0099258423e+01    1.3026941299e+01
    8.0199249268e+01    1.3068960190e+01
    8.0299339294e+01    1.3110950470e+01
    8.0399307251e+01    1.3152770042e+01
    8.0499244690e+01    1.3194400787e+01
    8.0599319458e+01    1.3236089706e+01
    8.0699241638e+01    1.3277509689e+01
    8.0799308777e+01    1.3319000244e+01
    8.0899314880e+01    1.3360288620e+01
    8.0999267578e+01    1.3401390076e+01
    8.1099281311e+01    1.3442470551e+01
    8.1199310303e+01    1.3483549118e+01
    8.1299247742e+01    1.3524349213e+01
    8.1399269104e+01    1.3565129280e+01
    8.1499275208e+01    1.3605820656e+01
    8.1599212646e+01    1.3646430016e+01
    8.1699295044e+01    1.3686899185e+01
    8.1799232483e+01    1.3727320671e+01
    8.1899314880e+01    1.3767590523e+01
    8.1999206543e+01    1.3807809830e+01
    8.2099311829e+01    1.3847869873e+01
    8.2199295044e+01    1.3887861252e+01
    8.2299217224e+01    1.3927760124e+01
    8.2399261475e+01    1.3967519760e+01
    8.2499229431e+01    1.4007190704e+01
    8.2599296570e+01    1.4046720505e+01
    8.2699241638e+01    1.4086170197e+01
    8.2799194336e+01    1.4125410080e+01
    8.2899276733e+01    1.4164720535e+01
    8.2999221802e+01    1.4203869820e+01
    8.3099281311e+01    1.4242889404e+01
    8.3199218750e+01    1.4281850815e+01
    8.3299247742e+01    1.4320699692e+01
    8.3399215698e+01    1.4359360695e+01
    8.3499267578e+01    1.4398109436e+01
    8.3599182129e+01    1.4436578751e+01
    8.3699256897e+01    1.4475110054e+01
    8.3799270630e+01    1.4513439178e+01
    8.3899208069e+01    1.4551589966e+01
    8.3999191284e+01    1.4589719772e+01
    8.4099266052e+01    1.4627809525e+01
    8.4199272156e+01    1.4665719032e+01
    8.4299209595e+01    1.4703439713e+01
    8.4399215698e+01    1.4741150856e+01
    8.4499183655e+01    1.4778759956e+01
    8.4599235535e+01    1.4816249847e+01
    8.4699165344e+01    1.4853679657e+01
    8.4799179077e+01    1.4890970230e+01
    8.4899200439e+01    1.4928159714e+01
    8.4999198914e+01    1.4965239525e+01
    8.5099243164e+01    1.5002190590e+01
    8.5199195862e+01    1.5039050102e+01
    8.5299240112e+01    1.5075759888e+01
    8.5399192810e+01    1.5112390518e+01
    8.5499153137e+01    1.5148910522e+01
    8.5599212646e+01    1.5185289383e+01
    8.5699188232e+01    1.5221589088e+01
    8.5799232483e+01    1.5257770538e+01
    8.5899162292e+01    1.5293869972e+01
    8.5999160767e+01    1.5329849243e+01
    8.6099182129e+01    1.5365720749e+01
    8.6199157715e+01    1.5401389122e+01
    8.6299171448e+01    1.5437149048e+01
    8.6399230957e+01    1.5472679138e+01
    8.6499160767e+01    1.5508039474e+01
    8.6599212646e+01    1.5543439865e+01
    8.6699180603e+01    1.5578559875e+01
    8.6799140930e+01    1.5613670349e+01
    8.6899215698e+01    1.5648740768e+01
    8.6999176025e+01    1.5683540344e+01
    8.7099243164e+01    1.5718399048e+01
    8.7199234009e+01    1.5753070831e+01
    8.7299186707e+01    1.5787540436e+01
    8.7399177551e+01    1.5821990013e+01
    8.7499198914e+01    1.5856319427e+01
    8.7599159241e+01    1.5890548706e+01
    8.7699127197e+01    1.5924671173e+01
    8.7799209595e+01    1.5958629608e+01
    8.7899192810e+01    1.5992509842e+01
    8.7999183655e+01    1.6026260376e+01
    8.8099136353e+01    1.6059890747e+01
    8.8199180603e+01    1.6093368530e+01
    8.8299156189e+01    1.6126749039e+01
    8.8399208069e+01    1.6159980774e+01
    8.8499206543e+01    1.6193109512e+01
    8.8599121094e+01    1.6226139069e+01
    8.8699150085e+01    1.6259031296e+01
    8.8799209595e+01    1.6291799545e+01
    8.8899208069e+01    1.6324470520e+01
    8.8999114990e+01    1.6357061386e+01
    8.9099174500e+01    1.6389480591e+01
    8.9199119568e+01    1.6421810150e+01
    8.9299133301e+01    1.6454010010e+01
    8.9399185181e+01    1.6486061096e+01
    8.9499122620e+01    1.6517910004e+01
    8.9599105835e+01    1.6549730301e+01
    8.9699195862e+01    1.6581470490e+01
    8.9799140930e+01    1.6613029480e+01
    8.9899169922e+01    1.6644430161e+01
    8.9999168396e+01    1.6675729752e+01
    9.0099174500e+01    1.6721298218e+01
    9.0199165344e+01    1.6766849518e+01
    9.0299156189e+01    1.6812278748e+01
    9.0399093628e+01    1.6857601166e+01
    9.0499145508e+01    1.6902851105e+01
    9.0599128723e+01    1.6947898865e+01
    9.0699134827e+01    1.6992900848e+01
    9.0799125671e+01    1.7037670135e+01
    9.0899169922e+01    1.7082389832e+01
    9.0999130249e+01    1.7126911163e+01
    9.1099159241e+01    1.7171279907e+01
    9.1199089050e+01    1.7215539932e+01
    9.1299148560e+01    1.7259740829e+01
    9.1399162292e+01    1.7303730011e+01
    9.1499099731e+01    1.7347620010e+01
    9.1599060059e+01    1.7391380310e+01
    9.1699058533e+01    1.7435100555e+01
    9.1799110413e+01    1.7478580475e+01
    9.1899085999e+01    1.7521949768e+01
    9.1999160767e+01    1.7565250397e+01
    9.2099105835e+01    1.7608360291e+01
    9.2199081421e+01    1.7651340485e+01
    9.2299079895e+01    1.7694271088e+01
    9.2399032593e+01    1.7736980438e+01
    9.2499122620e+01    1.7779609680e+01
    9.2599113464e+01    1.7822031021e+01
    9.2699058533e+01    1.7864339828e+01
    9.2799095154e+01    1.7906570435e+01
    9.2899139404e+01    1.7948589325e+01
    9.2999122620e+01    1.7990600586e+01
    9.3099060059e+01    1.8032320023e+01
    9.3199066162e+01    1.8074100494e+01
    9.3299133301e+01    1.8115730286e+01
    9.3399063110e+01    1.8157100677e+01
    9.3499130249e+01    1.8198490143e+01
    9.3599067688e+01    1.8239698410e+01
    9.3699050903e+01    1.8280750275e+01
    9.3799064636e+01    1.8321769714e+01
    9.3899047852e+01    1.8362548828e+01
    9.3999084473e+01    1.8403278351e+01
    9.4099029541e+01    1.8443820953e+01
    9.4199028015e+01    1.8484199524e+01
    9.4299018860e+01    1.8524452209e+01
    9.4399032593e+01    1.8564647675e+01
    9.4499015808e+01    1.8604650497e+01
    9.4599098206e+01    1.8644569397e+01
    9.4699028015e+01    1.8684329987e+01
    9.4799064636e+01    1.8723911285e+01
    9.4899070740e+01    1.8763462067e+01
    9.4999069214e+01    1.8802768707e+01
    9.5099113464e+01    1.8842020035e+01
    9.5199066162e+01    1.8881050110e+01
    9.5299102783e+01    1.8919898987e+01
    9.5399032593e+01    1.8958648682e+01
    9.5499092102e+01    1.8997299194e+01
    9.5599052429e+01    1.9035760880e+01
    9.5699089050e+01    1.9074150085e+01
    9.5799003601e+01    1.9112251282e+01
    9.5899101257e+01    1.9150449753e+01
    9.5999046326e+01    1.9188259125e+01
    9.6099075317e+01    1.9226100922e+01
    9.6199028015e+01    1.9263740540e+01
    9.6299072266e+01    1.9301300049e+01
    9.6399078369e+01    1.9338630676e+01
    9.6499038696e+01    1.9375839233e+01
    9.6599021912e+01    1.9412891388e+01
    9.6699073792e+01    1.9449859619e+01
    9.6799095154e+01    1.9486709595e+01
    9.6899070740e+01    1.9523340225e+01
    9.6999046326e+01    1.9559829712e+01
    9.7099082947e+01    1.9596260071e+01
    9.7199081421e+01    1.9632461548e+01
    9.7299041748e+01    1.9668529510e+01
    9.7399017334e+01    1.9704460144e+01
    9.7499015808e+01    1.9740230560e+01
    9.7599037170e+01    1.9775939941e+01
    9.7698982239e+01    1.9811450958e+01
    9.7798957825e+01    1.9846790314e+01
    9.7899040222e+01    1.9882030487e+01
    9.7999015808e+01    1.9917068481e+01
    9.8098991394e+01    1.9951940536e+01
    9.8198989868e+01    1.9986740112e+01
    9.8299034119e+01    2.0021259308e+01
    9.8399040222e+01    2.0055749893e+01
    9.8498954773e+01    2.0089929581e+01
    9.8599021912e+01    2.0124099731e+01
    9.8698959351e+01    2.0158100128e+01
    9.8799003601e+01    2.0191999435e+01
    9.8899055481e+01    2.0225700378e+01
    9.8999046326e+01    2.0259201050e+01
    9.9099006653e+01    2.0292598724e+01
    9.9198966980e+01    2.0325801849e+01
    9.9299049377e+01    2.0358901978e+01
    9.9399002075e+01    2.0391799927e+01
    9.9498992920e+01    2.0424499512e+01
    9.9598937988e+01    2.0457099915e+01
    9.9698951721e+01    2.0489500046e+01
    9.9799018860e+01    2.0521697998e+01
    9.9898986816e+01    2.0553798676e+01
    9.9999023438e+01    2.0585700989e+01
    1.0009895325e+02    2.0634799957e+01
    1.0019902039e+02    2.0684000015e+01
    1.0029898071e+02    2.0733100891e+01
    1.0039891052e+02    2.0781801224e+01
    1.0049893951e+02    2.0830600739e+01
    1.0059896088e+02    2.0879100800e+01
    1.0069899750e+02    2.0927499771e+01
    1.0079898834e+02    2.0975601196e+01
    1.0089895630e+02    2.1023700714e+01
    1.0099893951e+02    2.1071502686e+01
    1.0109896851e+02    2.1119298935e+01
    1.0119895172e+02    2.1166801453e+01
    1.0129898834e+02    2.1214099884e+01
    1.0139897156e+02    2.1261400223e+01
    1.0149896240e+02    2.1308399200e+01
    1.0159893799e+02    2.1355300903e+01
    1.0169896698e+02    2.1402000427e+01
    1.0179895020e+02    2.1448600769e+01
    1.0189891815e+02    2.1494998932e+01
    1.0199894714e+02    2.1541301727e+01
    1.0209900665e+02    2.1587501526e+01
    1.0219895935e+02    2.1633399963e+01
    1.0229889679e+02    2.1679100037e+01
    1.0239891052e+02    2.1724700928e+01
    1.0249899292e+02    2.1770202637e+01
    1.0259896088e+02    2.1815399170e+01
    1.0269898987e+02    2.1860601425e+01
    1.0279895782e+02    2.1905500412e+01
    1.0289891815e+02    2.1950298309e+01
    1.0299896240e+02    2.1994800568e+01
    1.0309893799e+02    2.2039402008e+01
    1.0319898224e+02    2.2083698273e+01
    1.0329898071e+02    2.2127902985e+01
    1.0339894867e+02    2.2171899796e+01
    1.0349890137e+02    2.2215797424e+01
    1.0359886932e+02    2.2259500504e+01
    1.0369893646e+02    2.2303100586e+01
    1.0379891968e+02    2.2346500397e+01
    1.0389894867e+02    2.2389801025e+01
    1.0399891663e+02    2.2432899475e+01
    1.0409886932e+02    2.2475702286e+01
    1.0419898224e+02    2.2518497467e+01
    1.0429885864e+02    2.2561000824e+01
    1.0439891815e+02    2.2603498459e+01
    1.0449889374e+02    2.2645700455e+01
    1.0459893799e+02    2.2687698364e+01
    1.0469891357e+02    2.2729600906e+01
    1.0479891968e+02    2.2771499634e+01
    1.0489893341e+02    2.2812999725e+01
    1.0499893951e+02    2.2854398727e+01
    1.0509896088e+02    2.2895599365e+01
    1.0519895935e+02    2.2936702728e+01
    1.0529894257e+02    2.2977500916e+01
    1.0539885712e+02    2.3018198013e+01
    1.0549896240e+02    2.3058700562e+01
    1.0559893036e+02    2.3099002838e+01
    1.0569888306e+02    2.3139200211e+01
    1.0579895020e+02    2.3179101944e+01
    1.0589891052e+02    2.3218999863e+01
    1.0599889374e+02    2.3258598328e+01
    1.0609883881e+02    2.3298099518e+01
    1.0619892883e+02    2.3337501526e+01
    1.0629882812e+02    2.3376699448e+01
    1.0639890289e+02    2.3415700912e+01
    1.0649890900e+02    2.3454498291e+01
    1.0659884644e+02    2.3493202209e+01
    1.0669883728e+02    2.3531599045e+01
    1.0679885864e+02    2.3569900513e+01
    1.0689882660e+02    2.3607999802e+01
    1.0699889374e+02    2.3645999908e+01
    1.0709886169e+02    2.3683698654e+01
    1.0719891357e+02    2.3721401215e+01
    1.0729888916e+02    2.3758798599e+01
    1.0739882660e+02    2.3796001434e+01
    1.0749884796e+02    2.3833099365e+01
    1.0759887695e+02    2.3870000839e+01
    1.0769883728e+02    2.3906700134e+01
    1.0779884338e+02    2.3943201065e+01
    1.0789890289e+02    2.3979598999e+01
    1.0799890137e+02    2.4015899658e+01
    1.0809883881e+02    2.4051698685e+01
    1.0819889832e+02    2.4087499619e+01
    1.0829879761e+02    2.4122999191e+01
    1.0839887238e+02    2.4158401489e+01
    1.0849884796e+02    2.4193599701e+01
    1.0859882355e+02    2.4228599548e+01
    1.0869882202e+02    2.4263500214e+01
    1.0879882812e+02    2.4298099518e+01
    1.0889887238e+02    2.4332601547e+01
    1.0899884796e+02    2.4366899490e+01
    1.0909886169e+02    2.4400901794e+01
    1.0919885254e+02    2.4434799194e+01
    1.0929888153e+02    2.4468502045e+01
    1.0939888000e+02    2.4501899719e+01
    1.0949880219e+02    2.4535102844e+01
    1.0959883118e+02    2.4568199158e+01
    1.0969882202e+02    2.4601001740e+01
    1.0979882812e+02    2.4633699417e+01
    1.0989878845e+02    2.4666101456e+01
    1.0999883270e+02    2.4698398590e+01
    1.1009886169e+02    2.4751499176e+01
    1.1019886780e+02    2.4804700851e+01
    1.1029882812e+02    2.4857799530e+01
    1.1039884186e+02    2.4910598755e+01
    1.1049884033e+02    2.4963201523e+01
    1.1059883881e+02    2.5015600204e+01
    1.1069876862e+02    2.5067699432e+01
    1.1079885101e+02    2.5119701385e+01
    1.1089882660e+02    2.5171499252e+01
    1.1099881744e+02    2.5223098755e+01
    1.1109879303e+02    2.5274501801e+01
    1.1119880676e+02    2.5325599670e+01
    1.1129885101e+02    2.5376602173e+01
    1.1139875793e+02    2.5427400589e+01
    1.1149881744e+02    2.5477899551e+01
    1.1159883118e+02    2.5528400421e+01
    1.1169879150e+02    2.5578500748e+01
    1.1179879761e+02    2.5628499985e+01
    1.1189878082e+02    2.5678197861e+01
    1.1199874878e+02    2.5727800369e+01
    1.1209874725e+02    2.5777198792e+01
    1.1219879150e+02    2.5826301575e+01
    1.1229885864e+02    2.5875299454e+01
    1.1239875031e+02    2.5923999786e+01
    1.1249878693e+02    2.5972600937e+01
    1.1259877014e+02    2.6020799637e+01
    1.1269879913e+02    2.6068998337e+01
    1.1279873657e+02    2.6116802216e+01
    1.1289882660e+02    2.6164499283e+01
    1.1299881744e+02    2.6212001801e+01
    1.1309882355e+02    2.6259300232e+01
    1.1319883728e+02    2.6306598663e+01
    1.1329884338e+02    2.6353500366e+01
    1.1339882660e+02    2.6400299072e+01
    1.1349880219e+02    2.6446699142e+01
    1.1359880066e+02    2.6493101120e+01
    1.1369879150e+02    2.6539199829e+01
    1.1379879761e+02    2.6585201263e+01
    1.1389878845e+02    2.6630901337e+01
    1.1399877167e+02    2.6676399231e+01
    1.1409873199e+02    2.6721698761e+01
    1.1419877625e+02    2.6766901016e+01
    1.1429872131e+02    2.6811698914e+01
    1.1439874268e+02    2.6856397629e+01
    1.1449874878e+02    2.6900901794e+01
    1.1459873962e+02    2.6945199966e+01
    1.1469882202e+02    2.6989301682e+01
    1.1479876709e+02    2.7033199310e+01
    1.1489874268e+02    2.7076898575e+01
    1.1499880219e+02    2.7120300293e+01
    1.1509873199e+02    2.7163499832e+01
    1.1519876862e+02    2.7206499100e+01
    1.1529872894e+02    2.7249300003e+01
    1.1539869690e+02    2.7291799545e+01
    1.1549880219e+02    2.7334300995e+01
    1.1559870911e+02    2.7376399994e+01
    1.1569869995e+02    2.7418298721e+01
    1.1579878235e+02    2.7460000992e+01
    1.1589868164e+02    2.7501401901e+01
    1.1599871826e+02    2.7542798996e+01
    1.1609873962e+02    2.7583902359e+01
    1.1619870758e+02    2.7624799728e+01
    1.1629878998e+02    2.7665498734e+01
    1.1639874268e+02    2.7706001282e+01
    1.1649873352e+02    2.7746099472e+01
    1.1659877777e+02    2.7786201477e+01
    1.1669869995e+02    2.7826002121e+01
    1.1679876709e+02    2.7865598679e+01
    1.1689866638e+02    2.7904998779e+01
    1.1699867249e+02    2.7944101334e+01
    1.1709873962e+02    2.7983098984e+01
    1.1719869995e+02    2.8021902084e+01
    1.1729876709e+02    2.8060400009e+01
    1.1739871979e+02    2.8098699570e+01
    1.1749877167e+02    2.8136899948e+01
    1.1759874725e+02    2.8174600601e+01
    1.1769872284e+02    2.8212299347e+01
    1.1779865265e+02    2.8249698639e+01
    1.1789866638e+02    2.8287000656e+01
    1.1799874115e+02    2.8323799133e+01
    1.1809873199e+02    2.8360601425e+01
    1.1819873810e+02    2.8397098541e+01
    1.1829875183e+02    2.8433301926e+01
    1.1839869690e+02    2.8469200134e+01
    1.1849867249e+02    2.8504999161e+01
    1.1859868622e+02    2.8540498734e+01
    1.1869867706e+02    2.8575901031e+01
    1.1879872131e+02    2.8610998154e+01
    1.1889871216e+02    2.8645900726e+01
    1.1899870300e+02    2.8680599213e+01
    1.1909868622e+02    2.8714998245e+01
    1.1919875336e+02    2.8749101639e+01
    1.1929869843e+02    2.8783100128e+01
    1.1939871216e+02    2.8816801071e+01
    1.1949864960e+02    2.8850101471e+01
    1.1959871674e+02    2.8883399963e+01
    1.1969870758e+02    2.8916301727e+01
    1.1979866028e+02    2.8949001312e+01
    1.1989871216e+02    2.8981399536e+01
    1.1999864960e+02    2.9013601303e+01
    1.2009867859e+02    2.9068799973e+01
    1.2019863129e+02    2.9124101639e+01
    1.2029866028e+02    2.9179101944e+01
    1.2039862823e+02    2.9233798981e+01
    1.2049873352e+02    2.9288501740e+01
    1.2059866333e+02    2.9342599869e+01
    1.2069870758e+02    2.9396799088e+01
    1.2079866028e+02    2.9450500488e+01
    1.2089869690e+02    2.9503999710e+01
    1.2099864960e+02    2.9557201385e+01
    1.2109863281e+02    2.9610301971e+01
    1.2119870758e+02    2.9663101196e+01
    1.2129862976e+02    2.9715497971e+01
    1.2139859772e+02    2.9767799377e+01
    1.2149871063e+02    2.9819902420e+01
    1.2159870148e+02    2.9871599197e+01
    1.2169867706e+02    2.9923198700e+01
    1.2179863739e+02    2.9974500656e+01
    1.2189869690e+02    3.0025600433e+01
    1.2199865723e+02    3.0076400757e+01
    1.2209867096e+02    3.0126901627e+01
    1.2219862366e+02    3.0177202225e+01
    1.2229863739e+02    3.0227197647e+01
    1.2239868927e+02    3.0276998520e+01
    1.2249867249e+02    3.0326498032e+01
    1.2259866333e+02    3.0375799179e+01
    1.2269860077e+02    3.0424699783e+01
    1.2279860687e+02    3.0473400116e+01
    1.2289865112e+02    3.0521999359e+01
    1.2299859619e+02    3.0570201874e+01
    1.2309864807e+02    3.0618202209e+01
    1.2319862366e+02    3.0666002274e+01
    1.2329859161e+02    3.0713499069e+01
    1.2339864349e+02    3.0760799408e+01
    1.2349864197e+02    3.0807899475e+01
    1.2359864807e+02    3.0854799271e+01
    1.2369860840e+02    3.0901300430e+01
    1.2379866028e+02    3.0947700500e+01
    1.2389862061e+02    3.0993700027e+01
    1.2399867249e+02    3.1039600372e+01
    1.2409857178e+02    3.1085098267e+01
    1.2419859314e+02    3.1130298615e+01
    1.2429866791e+02    3.1175401688e+01
    1.2439865875e+02    3.1220098495e+01
    1.2449858856e+02    3.1264699936e+01
    1.2459863281e+02    3.1309000015e+01
    1.2469864655e+02    3.1353000641e+01
    1.2479865265e+02    3.1396800995e+01
    1.2489855957e+02    3.1440301895e+01
    1.2499861908e+02    3.1483501434e+01
    1.2509861755e+02    3.1526397705e+01
    1.2519862366e+02    3.1569097519e+01
    1.2529856110e+02    3.1611499786e+01
    1.2539856720e+02    3.1653598785e+01
    1.2549854279e+02    3.1695400238e+01
    1.2559864807e+02    3.1737100601e+01
    1.2569854736e+02    3.1778400421e+01
    1.2579859924e+02    3.1819400787e+01
    1.2589862061e+02    3.1860301971e+01
    1.2599855042e+02    3.1900798798e+01
    1.2609853363e+02    3.1941099167e+01
    1.2619857025e+02    3.1981098175e+01
    1.2629856110e+02    3.2020896912e+01
    1.2639853668e+02    3.2060401917e+01
    1.2649854279e+02    3.2099601746e+01
    1.2659863281e+02    3.2138599396e+01
    1.2669853210e+02    3.2177200317e+01
    1.2679853058e+02    3.2215702057e+01
    1.2689861298e+02    3.2253898621e+01
    1.2699862671e+02    3.2291801453e+01
    1.2709860229e+02    3.2329399109e+01
    1.2719853210e+02    3.2366699219e+01
    1.2729857635e+02    3.2403900146e+01
    1.2739852142e+02    3.2440601349e+01
    1.2749851990e+02    3.2477203369e+01
    1.2759858704e+02    3.2513500214e+01
    1.2769854736e+02    3.2549499512e+01
    1.2779859161e+02    3.2585300446e+01
    1.2789856720e+02    3.2620697021e+01
    1.2799855042e+02    3.2655799866e+01
    1.2809857178e+02    3.2690795898e+01
    1.2819859314e+02    3.2725303650e+01
    1.2829850769e+02    3.2759498596e+01
    1.2839859009e+02    3.2793601990e+01
    1.2849862671e+02    3.2827301025e+01
    1.2859863281e+02    3.2860694885e+01
    1.2869856262e+02    3.2893901825e+01
    1.2879852295e+02    3.2926696777e+01
    1.2889865112e+02    3.2959499359e+01
    1.2899858093e+02    3.2991798401e+01
    1.2909863281e+02    3.3023803711e+01
    1.2919865417e+02    3.3055599213e+01
    1.2929864502e+02    3.3087100983e+01
    1.2939862061e+02    3.3118198395e+01
    1.2949862671e+02    3.3149105072e+01
    1.2959860229e+02    3.3179599762e+01
    1.2969863892e+02    3.3209896088e+01
    1.2979864502e+02    3.3239799500e+01
    1.2989871216e+02    3.3269397736e+01
    1.2999867249e+02    3.3298702240e+01
    1.3009872437e+02    3.3353096008e+01
    1.3019862366e+02    3.3407398224e+01
    1.3029873657e+02    3.3461498260e+01
    1.3039868164e+02    3.3515399933e+01
    1.3049870300e+02    3.3568798065e+01
    1.3059872437e+02    3.3621997833e+01
    1.3069869995e+02    3.3674800873e+01
    1.3079876709e+02    3.3727397919e+01
    1.3089868164e+02    3.3779602051e+01
    1.3099871826e+02    3.3831501007e+01
    1.3109878540e+02    3.3883201599e+01
    1.3119868469e+02    3.3934501648e+01
    1.3129876709e+02    3.3985504150e+01
    1.3139872742e+02    3.4036197662e+01
    1.3149876404e+02    3.4086704254e+01
    1.3159881592e+02    3.4136901855e+01
    1.3169880676e+02    3.4186798096e+01
    1.3179878235e+02    3.4236396790e+01
    1.3189875793e+02    3.4285598755e+01
    1.3199873352e+02    3.4334499359e+01
    1.3209878540e+02    3.4383197784e+01
    1.3219877625e+02    3.4431598663e+01
    1.3229884338e+02    3.4479698181e+01
    1.3239886475e+02    3.4527500153e+01
    1.3249882507e+02    3.4574802399e+01
    1.3259877014e+02    3.4621902466e+01
    1.3269877625e+02    3.4668800354e+01
    1.3279888916e+02    3.4715301514e+01
    1.3289884949e+02    3.4761402130e+01
    1.3299879456e+02    3.4807403564e+01
    1.3309883118e+02    3.4853004456e+01
    1.3319885254e+02    3.4898403168e+01
    1.3329890442e+02    3.4943397522e+01
    1.3339883423e+02    3.4988197327e+01
    1.3349891663e+02    3.5032798767e+01
    1.3359892273e+02    3.5076896667e+01
    1.3369885254e+02    3.5120800018e+01
    1.3379893494e+02    3.5164299011e+01
    1.3389888000e+02    3.5207698822e+01
    1.3399891663e+02    3.5250598907e+01
    1.3409886169e+02    3.5293300629e+01
    1.3419892883e+02    3.5335601807e+01
    1.3429898071e+02    3.5377700806e+01
    1.3439897156e+02    3.5419399261e+01
    1.3449897766e+02    3.5460800171e+01
    1.3459890747e+02    3.5501903534e+01
    1.3469892883e+02    3.5542697906e+01
    1.3479901123e+02    3.5583301544e+01
    1.3489895630e+02    3.5623397827e+01
    1.3499897766e+02    3.5663196564e+01
    1.3509898376e+02    3.5702796936e+01
    1.3519898987e+02    3.5741996765e+01
    1.3529898071e+02    3.5780799866e+01
    1.3539903259e+02    3.5819396973e+01
    1.3549896240e+02    3.5857601166e+01
    1.3559895325e+02    3.5895401001e+01
    1.3569905090e+02    3.5932998657e+01
    1.3579896545e+02    3.5970203400e+01
    1.3589898682e+02    3.6007202148e+01
    1.3599908447e+02    3.6043800354e+01
    1.3609906006e+02    3.6080200195e+01
    1.3619906616e+02    3.6116203308e+01
    1.3629908752e+02    3.6151802063e+01
    1.3639903259e+02    3.6187202454e+01
    1.3649906921e+02    3.6222305298e+01
    1.3659906006e+02    3.6256996155e+01
    1.3669911194e+02    3.6291397095e+01
    1.3679905701e+02    3.6325496674e+01
    1.3689909363e+02    3.6359199524e+01
    1.3699908447e+02    3.6392696381e+01
    1.3709906006e+02    3.6425800323e+01
    1.3719906616e+02    3.6458599091e+01
    1.3729916382e+02    3.6491199493e+01
    1.3739907837e+02    3.6523300171e+01
    1.3749917603e+02    3.6555099487e+01
    1.3759913635e+02    3.6586700439e+01
    1.3769915771e+02    3.6617801666e+01
    1.3779910278e+02    3.6648601532e+01
    1.3789909363e+02    3.6679096222e+01
    1.3799916077e+02    3.6709403992e+01
    1.3809918213e+02    3.6739105225e+01
    1.3819912720e+02    3.6768497467e+01
    1.3829916382e+02    3.6797595978e+01
    1.3839921570e+02    3.6826396942e+01
    1.3849920654e+02    3.6854797363e+01
    1.3859919739e+02    3.6882900238e+01
    1.3869914246e+02    3.6910598755e+01
    1.3879920959e+02    3.6937999725e+01
    1.3889915466e+02    3.6965099335e+01
    1.3899919128e+02    3.6991802216e+01
    1.3909927368e+02    3.7018299103e+01
    1.3919917297e+02    3.7044200897e+01
    1.3929917908e+02    3.7069904327e+01
    1.3939923096e+02    3.7095203400e+01
    1.3949920654e+02    3.7120204926e+01
    1.3959925842e+02    3.7144802094e+01
    1.3969920349e+02    3.7168998718e+01
    1.3979931641e+02    3.7192901611e+01
    1.3989927673e+02    3.7216396332e+01
    1.3999925232e+02    3.7239398956e+01
    1.4009933472e+02    3.7287002563e+01
    1.4019931030e+02    3.7334297180e+01
    1.4029933167e+02    3.7381298065e+01
    1.4039932251e+02    3.7427902222e+01
    1.4049926758e+02    3.7474098206e+01
    1.4059934998e+02    3.7520099640e+01
    1.4069934082e+02    3.7565502167e+01
    1.4079931641e+02    3.7610599518e+01
    1.4089936829e+02    3.7655399323e+01
    1.4099938965e+02    3.7699802399e+01
    1.4109931946e+02    3.7743797302e+01
    1.4119937134e+02    3.7787502289e+01
    1.4129930115e+02    3.7830795288e+01
    1.4139930725e+02    3.7873699188e+01
    1.4149932861e+02    3.7916400909e+01
    1.4159939575e+02    3.7958698273e+01
    1.4169932556e+02    3.8000698090e+01
    1.4179934692e+02    3.8042301178e+01
    1.4189935303e+02    3.8083496094e+01
    1.4199943542e+02    3.8124401093e+01
    1.4209941101e+02    3.8164901733e+01
    1.4219935608e+02    3.8204998016e+01
    1.4229942322e+02    3.8244701385e+01
    1.4239945984e+02    3.8284103394e+01
    1.4249937439e+02    3.8323097229e+01
    1.4259945679e+02    3.8361801147e+01
    1.4269938660e+02    3.8399997711e+01
    1.4279939270e+02    3.8437900543e+01
    1.4289945984e+02    3.8475402832e+01
    1.4299948120e+02    3.8512702942e+01
    1.4309945679e+02    3.8549499512e+01
    1.4319949341e+02    3.8586002350e+01
    1.4329953003e+02    3.8622196198e+01
    1.4339950562e+02    3.8658000946e+01
    1.4349946594e+02    3.8693405151e+01
    1.4359950256e+02    3.8728599548e+01
    1.4369952393e+02    3.8763301849e+01
    1.4379954529e+02    3.8797702789e+01
    1.4389953613e+02    3.8831699371e+01
    1.4399952698e+02    3.8865402222e+01
    1.4409951782e+02    3.8898605347e+01
    1.4419955444e+02    3.8931499481e+01
    1.4429953003e+02    3.8964000702e+01
    1.4439955139e+02    3.8996196747e+01
    1.4449952698e+02    3.9027999878e+01
    1.4459953308e+02    3.9059501648e+01
    1.4469961548e+02    3.9090602875e+01
    1.4479951477e+02    3.9121299744e+01
    1.4489961243e+02    3.9151702881e+01
    1.4499952698e+02    3.9181697845e+01
    1.4509954834e+02    3.9211200714e+01
    1.4519958496e+02    3.9240402222e+01
    1.4529956055e+02    3.9269298553e+01
    1.4539956665e+02    3.9297702789e+01
    1.4549957275e+02    3.9325801849e+01
    1.4559965515e+02    3.9353397369e+01
    1.4569964600e+02    3.9380802155e+01
    1.4579960632e+02    3.9407695770e+01
    1.4589962769e+02    3.9434299469e+01
    1.4599967957e+02    3.9460601807e+01
    1.4609959412e+02    3.9486396790e+01
    1.4619961548e+02    3.9511802673e+01
    1.4629966736e+02    3.9537002563e+01
    1.4639967346e+02    3.9561798096e+01
    1.4649966431e+02    3.9586200714e+01
    1.4659965515e+02    3.9610103607e+01
    1.4669970703e+02    3.9633697510e+01
    1.4679968262e+02    3.9657001495e+01
    1.4689971924e+02    3.9679904938e+01
    1.4699975586e+02    3.9702396393e+01
    1.4709971619e+02    3.9724502563e+01
    1.4719967651e+02    3.9746295929e+01
    1.4729966736e+02    3.9767700195e+01
    1.4739979553e+02    3.9788700104e+01
    1.4749972534e+02    3.9809398651e+01
    1.4759971619e+02    3.9829601288e+01
    1.4769975281e+02    3.9849601746e+01
    1.4779969788e+02    3.9868999481e+01
    1.4789979553e+02    3.9888099670e+01
    1.4799975586e+02    3.9906803131e+01
    1.4809979248e+02    3.9925098419e+01
    1.4819981384e+02    3.9942901611e+01
    1.4829972839e+02    3.9960395813e+01
    1.4839982605e+02    3.9977497101e+01
    1.4849983215e+02    3.9994102478e+01
    1.4859982300e+02    4.0010395050e+01
    1.4869975281e+02    4.0026397705e+01
    1.4879983521e+02    4.0041900635e+01
    1.4889985657e+02    4.0057201385e+01
    1.4899984741e+02    4.0072204590e+01
    1.4909980774e+02    4.0085796356e+01
    1.4919979858e+02    4.0099899292e+01
    1.4929986572e+02    4.0113498688e+01
    1.4939985657e+02    4.0126903534e+01
    1.4949980164e+02    4.0139904022e+01
    1.4959986877e+02    4.0152194977e+01
    1.4969992065e+02    4.0163200378e+01
    1.4979991150e+02    4.0174800873e+01
    1.4989985657e+02    4.0186100006e+01
    1.4999987793e+02    4.0196903229e+01
    1.5009994507e+02    4.0231296539e+01
    1.5019990540e+02    4.0264400482e+01
    1.5029992676e+02    4.0297897339e+01
    1.5039991760e+02    4.0331100464e+01
    1.5049987793e+02    4.0363998413e+01
    1.5059985352e+02    4.0395301819e+01
    1.5069995117e+02    4.0427097321e+01
    1.5079997253e+02    4.0458499908e+01
    1.5089991760e+02    4.0489799500e+01
    1.5099992371e+02    4.0520401001e+01
    1.5110000610e+02    4.0550506592e+01
    1.5119998169e+02    4.0579399109e+01
    1.5129997253e+02    4.0608802795e+01
    1.5140002441e+02    4.0637695312e+01
    1.5149993896e+02    4.0665504456e+01
    1.5160003662e+02    4.0693595886e+01
    1.5169993591e+02    4.0721603394e+01
    1.5179997253e+02    4.0748901367e+01
    1.5189997864e+02    4.0775901794e+01
    1.5200001526e+02    4.0802398682e+01
    1.5209997559e+02    4.0827598572e+01
    1.5219999695e+02    4.0853294373e+01
    1.5230003357e+02    4.0878501892e+01
    1.5239999390e+02    4.0903503418e+01
    1.5249998474e+02    4.0926902771e+01
    1.5260005188e+02    4.0950805664e+01
    1.5270010376e+02    4.0974296570e+01
    1.5280001831e+02    4.0997604370e+01
    1.5290007019e+02    4.1020301819e+01
    1.5300007629e+02    4.1041603088e+01
    1.5310009766e+02    4.1063598633e+01
    1.5320007324e+02    4.1085205078e+01
    1.5330003357e+02    4.1106399536e+01
    1.5340014648e+02    4.1126998901e+01
    1.5350007629e+02    4.1146499634e+01
    1.5360015869e+02    4.1166297913e+01
    1.5370014954e+02    4.1185806274e+01
    1.5380009460e+02    4.1205001831e+01
    1.5390017700e+02    4.1222503662e+01
    1.5400010681e+02    4.1240898132e+01
    1.5410015869e+02    4.1258605957e+01
    1.5420018005e+02    4.1276000977e+01
    1.5430018616e+02    4.1292900085e+01
    1.5440011597e+02    4.1308700562e+01
    1.5450010681e+02    4.1324798584e+01
    1.5460020447e+02    4.1340400696e+01
    1.5470019531e+02    4.1355804443e+01
    1.5480012512e+02    4.1369796753e+01
    1.5490022278e+02    4.1384201050e+01
    1.5500015259e+02    4.1398300171e+01
    1.5510014343e+02    4.1411903381e+01
    1.5520022583e+02    4.1425003052e+01
    1.5530020142e+02    4.1436698914e+01
    1.5540017700e+02    4.1449005127e+01
    1.5550019836e+02    4.1460899353e+01
    1.5560020447e+02    4.1472305298e+01
    1.5570025635e+02    4.1483200073e+01
    1.5580026245e+02    4.1492805481e+01
    1.5590023804e+02    4.1502998352e+01
    1.5600022888e+02    4.1512802124e+01
    1.5610029602e+02    4.1521995544e+01
    1.5620021057e+02    4.1529998779e+01
    1.5630032349e+02    4.1538299561e+01
    1.5640031433e+02    4.1546302795e+01
    1.5650030518e+02    4.1553901672e+01
    1.5660029602e+02    4.1561096191e+01
    1.5670033264e+02    4.1566802979e+01
    1.5680030823e+02    4.1573097229e+01
    1.5690025330e+02    4.1579101562e+01
    1.5700027466e+02    4.1584594727e+01
    1.5710026550e+02    4.1588600159e+01
    1.5720031738e+02    4.1593200684e+01
    1.5730035400e+02    4.1597305298e+01
    1.5740037537e+02    4.1600997925e+01
    1.5750038147e+02    4.1604400635e+01
    1.5760031128e+02    4.1606399536e+01
    1.5770039368e+02    4.1608703613e+01
    1.5780036926e+02    4.1610794067e+01
    1.5790037537e+02    4.1612396240e+01
    1.5800041199e+02    4.1613502502e+01
    1.5810038757e+02    4.1613296509e+01
    1.5820042419e+02    4.1613403320e+01
    1.5830032349e+02    4.1613395691e+01
    1.5840034485e+02    4.1612701416e+01
    1.5850036621e+02    4.1610595703e+01
    1.5860044861e+02    4.1608901978e+01
    1.5870036316e+02    4.1607093811e+01
    1.5880047607e+02    4.1604499817e+01
    1.5890037537e+02    4.1600898743e+01
    1.5900047302e+02    4.1597404480e+01
    1.5910049438e+02    4.1593696594e+01
    1.5920039368e+02    4.1589797974e+01
    1.5930043030e+02    4.1585105896e+01
    1.5940042114e+02    4.1579101562e+01
    1.5950047302e+02    4.1573402405e+01
    1.5960052490e+02    4.1567298889e+01
    1.5970053101e+02    4.1560905457e+01
    1.5980053711e+02    4.1553901672e+01
    1.5990049744e+02    4.1545700073e+01
    1.6000045776e+02    4.1537895203e+01
    1.6010049438e+02    4.1551597595e+01
    1.6020046997e+02    4.1564903259e+01
    1.6030052185e+02    4.1576705933e+01
    1.6040048218e+02    4.1589202881e+01
    1.6050054932e+02    4.1600898743e+01
    1.6060049438e+02    4.1611503601e+01
    1.6070048523e+02    4.1622497559e+01
    1.6080056763e+02    4.1632797241e+01
    1.6090049744e+02    4.1641998291e+01
    1.6100057983e+02    4.1651397705e+01
    1.6110055542e+02    4.1660606384e+01
    1.6120051575e+02    4.1668403625e+01
    1.6130055237e+02    4.1676498413e+01
    1.6140057373e+02    4.1684303284e+01
    1.6150057983e+02    4.1691596985e+01
    1.6160055542e+02    4.1697509766e+01
    1.6170054626e+02    4.1703994751e+01
    1.6180055237e+02    4.1710006714e+01
    1.6190063477e+02    4.1714401245e+01
    1.6200057983e+02    4.1719596863e+01
    1.6210064697e+02    4.1724105835e+01
    1.6220062256e+02    4.1727302551e+01
    1.6230064392e+02    4.1730895996e+01
    1.6240063477e+02    4.1734199524e+01
    1.6250061035e+02    4.1736000061e+01
    1.6260064697e+02    4.1738304138e+01
    1.6270060730e+02    4.1740196228e+01
    1.6280061340e+02    4.1741600037e+01
    1.6290072632e+02    4.1741302490e+01
    1.6300065613e+02    4.1741897583e+01
    1.6310072327e+02    4.1741897583e+01
    1.6320071411e+02    4.1740501404e+01
    1.6330064392e+02    4.1739906311e+01
    1.6340066528e+02    4.1738700867e+01
    1.6350073242e+02    4.1736808777e+01
    1.6360075378e+02    4.1733604431e+01
    1.6370065308e+02    4.1731193542e+01
    1.6380067444e+02    4.1727096558e+01
    1.6390072632e+02    4.1723503113e+01
    1.6400076294e+02    4.1719390869e+01
    1.6410072327e+02    4.1714996338e+01
    1.6420074463e+02    4.1709098816e+01
    1.6430081177e+02    4.1703506470e+01
    1.6440081787e+02    4.1697700500e+01
    1.6450073242e+02    4.1690696716e+01
    1.6460072327e+02    4.1683906555e+01
    1.6470074463e+02    4.1676696777e+01
    1.6480076599e+02    4.1668090820e+01
    1.6490077209e+02    4.1660003662e+01
    1.6500077820e+02    4.1651390076e+01
    1.6510084534e+02    4.1642097473e+01
    1.6520083618e+02    4.1631599426e+01
    1.6530078125e+02    4.1621704102e+01
    1.6540083313e+02    4.1611000061e+01
    1.6550085449e+02    4.1598999023e+01
    1.6560078430e+02    4.1587799072e+01
    1.6570080566e+02    4.1575897217e+01
    1.6580087280e+02    4.1562393188e+01
    1.6590087891e+02    4.1549598694e+01
    1.6600083923e+02    4.1536407471e+01
    1.6610086060e+02    4.1521705627e+01
    1.6620086670e+02    4.1507400513e+01
    1.6630090332e+02    4.1492706299e+01
    1.6640092468e+02    4.1477493286e+01
    1.6650088501e+02    4.1460998535e+01
    1.6660093689e+02    4.1444900513e+01
    1.6670091248e+02    4.1428390503e+01
    1.6680088806e+02    4.1410408020e+01
    1.6690092468e+02    4.1392898560e+01
    1.6700097656e+02    4.1374908447e+01
    1.6710096741e+02    4.1355506897e+01
    1.6720089722e+02    4.1336997986e+01
    1.6730087280e+02    4.1318000793e+01
    1.6740092468e+02    4.1297004700e+01
    1.6750097656e+02    4.1276992798e+01
    1.6760099792e+02    4.1255996704e+01
    1.6770101929e+02    4.1235008240e+01
    1.6780101013e+02    4.1212005615e+01
    1.6790098572e+02    4.1189994812e+01
    1.6800102234e+02    4.1167007446e+01
    1.6810104370e+02    4.1143005371e+01
    1.6820094299e+02    4.1119995117e+01
    1.6830096436e+02    4.1096000671e+01
    1.6840101624e+02    4.1069999695e+01
    1.6850100708e+02    4.1044990540e+01
    1.6860104370e+02    4.1019996643e+01
    1.6870101929e+02    4.0992996216e+01
    1.6880102539e+02    4.0966003418e+01
    1.6890104675e+02    4.0939994812e+01
    1.6900109863e+02    4.0912002563e+01
    1.6910110474e+02    4.0883003235e+01
    1.6920109558e+02    4.0854995728e+01
    1.6930108643e+02    4.0826004028e+01
    1.6940104675e+02    4.0795997620e+01
    1.6950109863e+02    4.0766006470e+01
    1.6960104370e+02    4.0736000061e+01
    1.6970103455e+02    4.0703994751e+01
    1.6980105591e+02    4.0673004150e+01
    1.6990113831e+02    4.0640998840e+01
    1.7000112915e+02    4.0609001160e+01
    1.7010112000e+02    4.0596000671e+01
    1.7020114136e+02    4.0582992554e+01
    1.7030111694e+02    4.0569007874e+01
    1.7040115356e+02    4.0555000305e+01
    1.7050119019e+02    4.0539993286e+01
    1.7060113525e+02    4.0525009155e+01
    1.7070112610e+02    4.0509002686e+01
    1.7080108643e+02    4.0492996216e+01
    1.7090118408e+02    4.0475990295e+01
    1.7100115967e+02    4.0459007263e+01
    1.7110116577e+02    4.0442001343e+01
    1.7120118713e+02    4.0423995972e+01
    1.7130119324e+02    4.0405006409e+01
    1.7140113831e+02    4.0386001587e+01
    1.7150120544e+02    4.0365997314e+01
    1.7160122681e+02    4.0345993042e+01
    1.7170126343e+02    4.0326004028e+01
    1.7180119324e+02    4.0305000305e+01
    1.7190122986e+02    4.0283996582e+01
    1.7200123596e+02    4.0262008667e+01
    1.7210128784e+02    4.0239990234e+01
    1.7220129395e+02    4.0217002869e+01
    1.7230122375e+02    4.0192993164e+01
    1.7240121460e+02    4.0170005798e+01
    1.7250120544e+02    4.0144996643e+01
    1.7260130310e+02    4.0121002197e+01
    1.7270127869e+02    4.0096000671e+01
    1.7280125427e+02    4.0069992065e+01
    1.7290126038e+02    4.0044006348e+01
    1.7300132751e+02    4.0016998291e+01
    1.7310130310e+02    3.9989997864e+01
    1.7320129395e+02    3.9963005066e+01
    1.7330125427e+02    3.9935005188e+01
    1.7340130615e+02    3.9905998230e+01
    1.7350128174e+02    3.9876991272e+01
    1.7360136414e+02    3.9848007202e+01
    1.7370129395e+02    3.9818000793e+01
    1.7380130005e+02    3.9786994934e+01
    1.7390133667e+02    3.9756004333e+01
    1.7400135803e+02    3.9724998474e+01
    1.7410136414e+02    3.9692993164e+01
    1.7420133972e+02    3.9660995483e+01
    1.7430136108e+02    3.9628005981e+01
    1.7440133667e+02    3.9595001221e+01
    1.7450135803e+02    3.9560997009e+01
    1.7460136414e+02    3.9527008057e+01
    1.7470143127e+02    3.9492004395e+01
    1.7480136108e+02    3.9456993103e+01
    1.7490138245e+02    3.9421005249e+01
    1.7500143433e+02    3.9385993958e+01
    1.7510142517e+02    3.9349006653e+01
    1.7520144653e+02    3.9312004089e+01
    1.7530148315e+02    3.9273994446e+01
    1.7540142822e+02    3.9236991882e+01
    1.7550138855e+02    3.9198005676e+01
    1.7560144043e+02    3.9158996582e+01
    1.7570140076e+02    3.9119995117e+01
    1.7580145264e+02    3.9079002380e+01
    1.7590147400e+02    3.9039001465e+01
    1.7600146484e+02    3.8997993469e+01
    1.7610144043e+02    3.8956993103e+01
    1.7620147705e+02    3.8915000916e+01
    1.7630143738e+02    3.8873001099e+01
    1.7640147400e+02    3.8829994202e+01
    1.7650144958e+02    3.8786003113e+01
    1.7660148621e+02    3.8743003845e+01
    1.7670156860e+02    3.8697998047e+01
    1.7680151367e+02    3.8653007507e+01
    1.7690147400e+02    3.8608001709e+01
    1.7700157166e+02    3.8561996460e+01
    1.7710156250e+02    3.8515991211e+01
    1.7720158386e+02    3.8470001221e+01
    1.7730155945e+02    3.8423004150e+01
    1.7740155029e+02    3.8375000000e+01
    1.7750152588e+02    3.8327011108e+01
    1.7760162354e+02    3.8279998779e+01
    1.7770158386e+02    3.8231002808e+01
    1.7780152893e+02    3.8180999756e+01
    1.7790158081e+02    3.8132003784e+01
    1.7800163269e+02    3.8081008911e+01
    1.7810162354e+02    3.8029998779e+01
    1.7820158386e+02    3.7979003906e+01
    1.7830160522e+02    3.7927001953e+01
    1.7840159607e+02    3.7874008179e+01
    1.7850163269e+02    3.7822006226e+01
    1.7860165405e+02    3.7767990112e+01
    1.7870164490e+02    3.7714004517e+01
    1.7880168152e+02    3.7660003662e+01
    1.7890164185e+02    3.7604995728e+01
    1.7900161743e+02    3.7549987793e+01
    1.7910168457e+02    3.7494003296e+01
    1.7920170593e+02    3.7438003540e+01
    1.7930162048e+02    3.7382003784e+01
    1.7940165710e+02    3.7324005127e+01
    1.7950169373e+02    3.7266998291e+01
    1.7960171509e+02    3.7207992554e+01
    1.7970167542e+02    3.7149993896e+01
    1.7980174255e+02    3.7090011597e+01
    1.7990176392e+02    3.7031005859e+01
    1.8000172424e+02    3.6971008301e+01
    1.8010168457e+02    3.6927993774e+01
    1.8020173645e+02    3.6884994507e+01
    1.8030177307e+02    3.6840011597e+01
    1.8040176392e+02    3.6795989990e+01
    1.8050169373e+02    3.6751007080e+01
    1.8060173035e+02    3.6703994751e+01
    1.8070175171e+02    3.6658996582e+01
    1.8080180359e+02    3.6611007690e+01
    1.8090173340e+02    3.6565002441e+01
    1.8100181580e+02    3.6516998291e+01
    1.8110183716e+02    3.6469009399e+01
    1.8120181274e+02    3.6419998169e+01
    1.8130180359e+02    3.6371994019e+01
    1.8140182495e+02    3.6322006226e+01
    1.8150178528e+02    3.6272003174e+01
    1.8160180664e+02    3.6221008301e+01
    1.8170181274e+02    3.6171005249e+01
    1.8180178833e+02    3.6118988037e+01
    1.8190188599e+02    3.6067001343e+01
    1.8200183105e+02    3.6014999390e+01
    1.8210185242e+02    3.5960998535e+01
    1.8220187378e+02    3.5908004761e+01
    1.8230183411e+02    3.5853988647e+01
    1.8240188599e+02    3.5800003052e+01
    1.8250183105e+02    3.5745010376e+01
    1.8260186768e+02    3.5690002441e+01
    1.8270191956e+02    3.5634002686e+01
    1.8280183411e+02    3.5578002930e+01
    1.8290191650e+02    3.5520996094e+01
    1.8300192261e+02    3.5463989258e+01
    1.8310188293e+02    3.5406005859e+01
    1.8320190430e+02    3.5348007202e+01
    1.8330195618e+02    3.5289001465e+01
    1.8340190125e+02    3.5229995728e+01
    1.8350192261e+02    3.5170989990e+01
    1.8360197449e+02    3.5110992432e+01
    1.8370188904e+02    3.5050003052e+01
    1.8380192566e+02    3.4988998413e+01
    1.8390199280e+02    3.4927993774e+01
    1.8400198364e+02    3.4864990234e+01
    1.8410194397e+02    3.4804000854e+01
    1.8420199585e+02    3.4740005493e+01
    1.8430201721e+02    3.4677001953e+01
    1.8440193176e+02    3.4612991333e+01
    1.8450204468e+02    3.4548995972e+01
    1.8460197449e+02    3.4483993530e+01
    1.8470205688e+02    3.4419998169e+01
    1.8480204773e+02    3.4354003906e+01
    1.8490199280e+02    3.4287994385e+01
    1.8500199890e+02    3.4222000122e+01
    1.8510203552e+02    3.4154006958e+01
    1.8520199585e+02    3.4087997437e+01
    1.8530198669e+02    3.4018997192e+01
    1.8540206909e+02    3.3951004028e+01
    1.8550205994e+02    3.3882003784e+01
    1.8560209656e+02    3.3813995361e+01
    1.8570208740e+02    3.3744003296e+01
    1.8580206299e+02    3.3673995972e+01
    1.8590205383e+02    3.3604003906e+01
    1.8600204468e+02    3.3531997681e+01
    1.8610209656e+02    3.3461990356e+01
    1.8620207214e+02    3.3389999390e+01
    1.8630206299e+02    3.3318008423e+01
    1.8640211487e+02    3.3244995117e+01
    1.8650210571e+02    3.3173004150e+01
    1.8660217285e+02    3.3098999023e+01
    1.8670211792e+02    3.3026000977e+01
    1.8680206299e+02    3.2952011108e+01
    1.8690208435e+02    3.2877014160e+01
    1.8700212097e+02    3.2802001953e+01
    1.8710218811e+02    3.2727005005e+01
    1.8720219421e+02    3.2651000977e+01
    1.8730221558e+02    3.2574996948e+01
    1.8740216064e+02    3.2498001099e+01
    1.8750219727e+02    3.2422012329e+01
    1.8760221863e+02    3.2343994141e+01
    1.8770213318e+02    3.2265991211e+01
    1.8780223083e+02    3.2187988281e+01
    1.8790220642e+02    3.2109008789e+01
    1.8800221252e+02    3.2029998779e+01
    1.8810220337e+02    3.1949996948e+01
    1.8820216370e+02    3.1871002197e+01
    1.8830226135e+02    3.1789993286e+01
    1.8840219116e+02    3.1709991455e+01
    1.8850224304e+02    3.1628005981e+01
    1.8860223389e+02    3.1546005249e+01
    1.8870225525e+02    3.1464004517e+01
    1.8880221558e+02    3.1380996704e+01
    1.8890226746e+02    3.1297988892e+01
    1.8900221252e+02    3.1214004517e+01
    1.8910224915e+02    3.1130004883e+01
    1.8920222473e+02    3.1046005249e+01
    1.8930224609e+02    3.0960998535e+01
    1.8940228271e+02    3.0875000000e+01
    1.8950231934e+02    3.0789993286e+01
    1.8960231018e+02    3.0704010010e+01
    1.8970231628e+02    3.0618011475e+01
    1.8980236816e+02    3.0529998779e+01
    1.8990229797e+02    3.0442993164e+01
    1.9000227356e+02    3.0354995728e+01
    1.9010227966e+02    3.0281997681e+01
    1.9020233154e+02    3.0208999634e+01
    1.9030233765e+02    3.0134002686e+01
    1.9040235901e+02    3.0059005737e+01
    1.9050239563e+02    2.9983993530e+01
    1.9060241699e+02    2.9908004761e+01
    1.9070234680e+02    2.9832992554e+01
    1.9080239868e+02    2.9757003784e+01
    1.9090234375e+02    2.9680999756e+01
    1.9100241089e+02    2.9602996826e+01
    1.9110238647e+02    2.9526000977e+01
    1.9120240784e+02    2.9447998047e+01
    1.9130241394e+02    2.9369003296e+01
    1.9140243530e+02    2.9291000366e+01
    1.9150239563e+02    2.9212005615e+01
    1.9160237122e+02    2.9132995605e+01
    1.9170245361e+02    2.9053009033e+01
    1.9180244446e+02    2.8973007202e+01
    1.9190237427e+02    2.8892990112e+01
    1.9200250244e+02    2.8811004639e+01
    1.9210243225e+02    2.8729995728e+01
    1.9220249939e+02    2.8649002075e+01
    1.9230242920e+02    2.8567001343e+01
    1.9240243530e+02    2.8485000610e+01
    1.9250247192e+02    2.8402008057e+01
    1.9260249329e+02    2.8319000244e+01
    1.9270254517e+02    2.8234985352e+01
    1.9280252075e+02    2.8151000977e+01
    1.9290252686e+02    2.8068008423e+01
    1.9300245667e+02    2.7983993530e+01
    1.9310247803e+02    2.7899002075e+01
    1.9320249939e+02    2.7813995361e+01
    1.9330253601e+02    2.7728012085e+01
    1.9340252686e+02    2.7641998291e+01
    1.9350250244e+02    2.7555999756e+01
    1.9360249329e+02    2.7470001221e+01
    1.9370248413e+02    2.7384002686e+01
    1.9380250549e+02    2.7296997070e+01
    1.9390258789e+02    2.7208999634e+01
    1.9400256348e+02    2.7121994019e+01
    1.9410258484e+02    2.7034011841e+01
    1.9420263672e+02    2.6945999146e+01
    1.9430256653e+02    2.6857009888e+01
    1.9440257263e+02    2.6769012451e+01
[...]
    2.5130607605e+02    1.3795013428e+01
    2.5140608215e+02    1.3852996826e+01
    2.5150602722e+02    1.3908996582e+01
    2.5160603333e+02    1.3967010498e+01
    2.5170605469e+02    1.4023986816e+01
    2.5180613708e+02    1.4082000732e+01
    2.5190614319e+02    1.4139007568e+01
    2.5200607300e+02    1.4196990967e+01
    2.5210610962e+02    1.4253997803e+01
    2.5220608521e+02    1.4309997559e+01
    2.5230612183e+02    1.4367980957e+01
    2.5240609741e+02    1.4424987793e+01
    2.5250613403e+02    1.4481994629e+01
    2.5260618591e+02    1.4540008545e+01
    2.5270611572e+02    1.4596984863e+01
    2.5280613708e+02    1.4654998779e+01
    2.5290618896e+02    1.4712005615e+01
    2.5300621033e+02    1.4768981934e+01
    2.5310612488e+02    1.4825988770e+01
    2.5320617676e+02    1.4884002686e+01
    2.5330613708e+02    1.4941009521e+01
    2.5340620422e+02    1.4998992920e+01
    2.5350624084e+02    1.5055999756e+01
    2.5360624695e+02    1.5112976074e+01
    2.5370623779e+02    1.5170989990e+01
    2.5380618286e+02    1.5229003906e+01
    2.5390621948e+02    1.5285980225e+01
    2.5400625610e+02    1.5343994141e+01
    2.5410621643e+02    1.5402008057e+01
    2.5420622253e+02    1.5457977295e+01
    2.5430627441e+02    1.5515991211e+01
    2.5440623474e+02    1.5573974609e+01
    2.5450622559e+02    1.5631988525e+01
    2.5460627747e+02    1.5688995361e+01
    2.5470628357e+02    1.5746978760e+01
    2.5480628967e+02    1.5803985596e+01
    2.5490631104e+02    1.5860992432e+01
    2.5500633240e+02    1.5917999268e+01
    2.5510626221e+02    1.5975982666e+01
    2.5520626831e+02    1.6032989502e+01
    2.5530630493e+02    1.6089996338e+01
    2.5540634155e+02    1.6147003174e+01
    2.5550634766e+02    1.6203002930e+01
    2.5560629272e+02    1.6259002686e+01
    2.5570628357e+02    1.6316009521e+01
    2.5580636597e+02    1.6371978760e+01
    2.5590632629e+02    1.6427978516e+01
    2.5600634766e+02    1.6483978271e+01
    2.5610635376e+02    1.6538024902e+01
    2.5620635986e+02    1.6594024658e+01
    2.5630639648e+02    1.6649017334e+01
    2.5640634155e+02    1.6704010010e+01
    2.5650631714e+02    1.6758026123e+01
    2.5660635376e+02    1.6813018799e+01
    2.5670635986e+02    1.6865997314e+01
    2.5680636597e+02    1.6919006348e+01
    2.5690643311e+02    1.6973022461e+01
    2.5700634766e+02    1.7026000977e+01
    2.5710641479e+02    1.7079010010e+01
    2.5720639038e+02    1.7132019043e+01
    2.5730642700e+02    1.7184020996e+01
    2.5740640259e+02    1.7235992432e+01
    2.5750643921e+02    1.7287994385e+01
    2.5760641479e+02    1.7339019775e+01
    2.5770639038e+02    1.7391021729e+01
    2.5780639648e+02    1.7442016602e+01
    2.5790649414e+02    1.7493011475e+01
    2.5800650024e+02    1.7542999268e+01
    2.5810647583e+02    1.7593017578e+01
    2.5820642090e+02    1.7644012451e+01
    2.5830648804e+02    1.7692993164e+01
    2.5840649414e+02    1.7743011475e+01
    2.5850646973e+02    1.7792999268e+01
    2.5860641479e+02    1.7842010498e+01
    2.5870654297e+02    1.7891998291e+01
    2.5880648804e+02    1.7941009521e+01
    2.5890652466e+02    1.7989990234e+01
    2.5900653076e+02    1.8039001465e+01
    2.5910656738e+02    1.8088012695e+01
    2.5920648193e+02    1.8136993408e+01
    2.5930657959e+02    1.8184997559e+01
    2.5940649414e+02    1.8233001709e+01
    2.5950659180e+02    1.8279998779e+01
    2.5960659790e+02    1.8328002930e+01
    2.5970654297e+02    1.8376007080e+01
    2.5980651855e+02    1.8424011230e+01
    2.5990655518e+02    1.8471008301e+01
    2.6000656128e+02    1.8516998291e+01
    2.6010653687e+02    1.8565002441e+01
    2.6020660400e+02    1.8611999512e+01
    2.6030654907e+02    1.8658020020e+01
    2.6040655518e+02    1.8704986572e+01
    2.6050665283e+02    1.8750000000e+01
    2.6060662842e+02    1.8796997070e+01
    2.6070657349e+02    1.8842010498e+01
    2.6080667114e+02    1.8886993408e+01
    2.6090664673e+02    1.8932006836e+01
    2.6100662231e+02    1.8976989746e+01
    2.6110665894e+02    1.9020996094e+01
    2.6120666504e+02    1.9063995361e+01
    2.6130667114e+02    1.9108001709e+01
    2.6140664673e+02    1.9151000977e+01
    2.6150665283e+02    1.9194000244e+01
    2.6160665894e+02    1.9236022949e+01
    2.6170666504e+02    1.9278991699e+01
    2.6180664062e+02    1.9319976807e+01
    2.6190673828e+02    1.9361999512e+01
    2.6200665283e+02    1.9403015137e+01
    2.6210665894e+02    1.9444000244e+01
    2.6220666504e+02    1.9485015869e+01
    2.6230670166e+02    1.9524017334e+01
    2.6240670776e+02    1.9563995361e+01
    2.6250668335e+02    1.9604003906e+01
    2.6260678101e+02    1.9643005371e+01
    2.6270669556e+02    1.9683013916e+01
    2.6280670166e+02    1.9721008301e+01
    2.6290676880e+02    1.9758972168e+01
    2.6300671387e+02    1.9796997070e+01
    2.6310678101e+02    1.9833984375e+01
    2.6320678711e+02    1.9872009277e+01
    2.6330682373e+02    1.9908996582e+01
    2.6340682983e+02    1.9946014404e+01
    2.6350680542e+02    1.9981018066e+01
    2.6360675049e+02    2.0017974854e+01
    2.6370678711e+02    2.0052978516e+01
    2.6380685425e+02    2.0087982178e+01
    2.6390679932e+02    2.0122985840e+01
    2.6400680542e+02    2.0158020020e+01
    2.6410687256e+02    2.0192016602e+01
    2.6420678711e+02    2.0225006104e+01
    2.6430679321e+02    2.0258026123e+01
    2.6440686035e+02    2.0290985107e+01
    2.6450686646e+02    2.0324005127e+01
    2.6460684204e+02    2.0355987549e+01
    2.6470684814e+02    2.0388000488e+01
    2.6480682373e+02    2.0419006348e+01
    2.6490682983e+02    2.0449981689e+01
    2.6500686646e+02    2.0480987549e+01
    2.6510693359e+02    2.0510009766e+01
    2.6520687866e+02    2.0540008545e+01
    2.6530685425e+02    2.0569000244e+01
    2.6540689087e+02    2.0598022461e+01
    2.6550689697e+02    2.0625000000e+01
    2.6560690308e+02    2.0652984619e+01
    2.6570687866e+02    2.0679992676e+01
    2.6580694580e+02    2.0707000732e+01
    2.6590698242e+02    2.0733001709e+01
    2.6600695801e+02    2.0757995605e+01
    2.6610696411e+02    2.0784027100e+01
    2.6620690918e+02    2.0808013916e+01
    2.6630694580e+02    2.0832977295e+01
    2.6640698242e+02    2.0855987549e+01
    2.6650692749e+02    2.0878997803e+01
    2.6660696411e+02    2.0902008057e+01
    2.6670703125e+02    2.0924011230e+01
    2.6680691528e+02    2.0946014404e+01
    2.6690698242e+02    2.0966979980e+01
    2.6700704956e+02    2.0988006592e+01
    2.6710702515e+02    2.1007995605e+01
    2.6720697021e+02    2.1028991699e+01
    2.6730706787e+02    2.1048004150e+01
    2.6740707397e+02    2.1067016602e+01
    2.6750701904e+02    2.1085998535e+01
    2.6760705566e+02    2.1104003906e+01
    2.6770700073e+02    2.1122009277e+01
    2.6780709839e+02    2.1139007568e+01
    2.6790710449e+02    2.1156005859e+01
    2.6800704956e+02    2.1171997070e+01
    2.6810702515e+02    2.1188995361e+01
    2.6820712280e+02    2.1204986572e+01
    2.6830706787e+02    2.1220001221e+01
    2.6840710449e+02    2.1235015869e+01
    2.6850714111e+02    2.1248992920e+01
    2.6860708618e+02    2.1264007568e+01
    2.6870712280e+02    2.1276000977e+01
    2.6880706787e+02    2.1289978027e+01
    2.6890713501e+02    2.1302001953e+01
    2.6900714111e+02    2.1315002441e+01
    2.6910711670e+02    2.1326995850e+01
    2.6920709229e+02    2.1338012695e+01
    2.6930712891e+02    2.1348999023e+01
    2.6940710449e+02    2.1359008789e+01
    2.6950711060e+02    2.1368988037e+01
    2.6960714722e+02    2.1377990723e+01
    2.6970721436e+02    2.1386993408e+01
    2.6980712891e+02    2.1394989014e+01
    2.6990716553e+02    2.1403015137e+01
    2.7000717163e+02    2.1410003662e+01
    2.7010723877e+02    2.1416015625e+01
    2.7020724487e+02    2.1419006348e+01
    2.7030722046e+02    2.1423004150e+01
    2.7040719604e+02    2.1427001953e+01
    2.7050726318e+02    2.1429992676e+01
    2.7060717773e+02    2.1432006836e+01
    2.7070727539e+02    2.1433990479e+01
    2.7080722046e+02    2.1435974121e+01
    2.7090725708e+02    2.1436004639e+01
    2.7100726318e+02    2.1437011719e+01
    2.7110729980e+02    2.1436004639e+01
    2.7120724487e+02    2.1434997559e+01
    2.7130725098e+02    2.1434020996e+01
    2.7140725708e+02    2.1432006836e+01
    2.7150726318e+02    2.1429992676e+01
    2.7160729980e+02    2.1427001953e+01
    2.7170724487e+02    2.1423980713e+01
    2.7180731201e+02    2.1420013428e+01
    2.7190725708e+02    2.1416015625e+01
    2.7200735474e+02    2.1411010742e+01
    2.7210733032e+02    2.1405975342e+01
    2.7220733643e+02    2.1400024414e+01
    2.7230734253e+02    2.1394012451e+01
    2.7240734863e+02    2.1388000488e+01
    2.7250729370e+02    2.1379974365e+01
    2.7260739136e+02    2.1372985840e+01
    2.7270733643e+02    2.1364013672e+01
    2.7280740356e+02    2.1355987549e+01
    2.7290740967e+02    2.1346984863e+01
    2.7300732422e+02    2.1337982178e+01
    2.7310733032e+02    2.1328002930e+01
    2.7320733643e+02    2.1317016602e+01
    2.7330743408e+02    2.1305999756e+01
    2.7340740967e+02    2.1294982910e+01
    2.7350744629e+02    2.1282989502e+01
    2.7360745239e+02    2.1270996094e+01
    2.7370745850e+02    2.1259002686e+01
    2.7380740356e+02    2.1244995117e+01
    2.7390747070e+02    2.1231018066e+01
    2.7400747681e+02    2.1217010498e+01
    2.7410745239e+02    2.1203002930e+01
    2.7420742798e+02    2.1187988281e+01
    2.7430749512e+02    2.1171997070e+01
    2.7440747070e+02    2.1157012939e+01
    2.7450744629e+02    2.1141021729e+01
    2.7460748291e+02    2.1123992920e+01
    2.7470739746e+02    2.1105987549e+01
    2.7480749512e+02    2.1088989258e+01
    2.7490753174e+02    2.1072021484e+01
    2.7500747681e+02    2.1053009033e+01
    2.7510745239e+02    2.1033996582e+01
    2.7520751953e+02    2.1014984131e+01
    2.7530749512e+02    2.0996002197e+01
    2.7540756226e+02    2.0976013184e+01
    2.7550747681e+02    2.0955993652e+01
    2.7560754395e+02    2.0934997559e+01
    2.7570755005e+02    2.0915008545e+01
    2.7580752563e+02    2.0894012451e+01
    2.7590750122e+02    2.0872009277e+01
    2.7600753784e+02    2.0850006104e+01
    2.7610751343e+02    2.0827026367e+01
    2.7620755005e+02    2.0804992676e+01
    2.7630755615e+02    2.0782012939e+01
    2.7640759277e+02    2.0759002686e+01
    2.7650762939e+02    2.0735992432e+01
    2.7660754395e+02    2.0712005615e+01
    2.7670755005e+02    2.0688018799e+01
    2.7680761719e+02    2.0664001465e+01
    2.7690762329e+02    2.0639984131e+01
    2.7700765991e+02    2.0614990234e+01
    2.7710760498e+02    2.0589996338e+01
    2.7720761108e+02    2.0565002441e+01
    2.7730761719e+02    2.0537994385e+01
    2.7740759277e+02    2.0512023926e+01
    2.7750769043e+02    2.0486999512e+01
    2.7760766602e+02    2.0459991455e+01
    2.7770770264e+02    2.0432983398e+01
    2.7780770874e+02    2.0405975342e+01
    2.7790771484e+02    2.0379028320e+01
    2.7800772095e+02    2.0352020264e+01
    2.7810772705e+02    2.0325012207e+01
    2.7820773315e+02    2.0296997070e+01
    2.7830770874e+02    2.0268981934e+01
    2.7840774536e+02    2.0241027832e+01
    2.7850769043e+02    2.0212005615e+01
    2.7860772705e+02    2.0183013916e+01
    2.7870770264e+02    2.0153991699e+01
    2.7880770874e+02    2.0124023438e+01
    2.7890771484e+02    2.0095001221e+01
    2.7900778198e+02    2.0065002441e+01
    2.7910772705e+02    2.0035980225e+01
    2.7920770264e+02    2.0005981445e+01
    2.7930776978e+02    1.9975006104e+01
    2.7940771484e+02    1.9945007324e+01
    2.7950781250e+02    1.9914001465e+01
    2.7960772705e+02    1.9882995605e+01
    2.7970773315e+02    1.9851013184e+01
    2.7980780029e+02    1.9820007324e+01
    2.7990774536e+02    1.9786987305e+01
    2.8000778198e+02    1.9754974365e+01
    2.8010781860e+02    1.9719024658e+01
    2.8020776367e+02    1.9683990479e+01
    2.8030786133e+02    1.9647003174e+01
    2.8040777588e+02    1.9611022949e+01
    2.8050778198e+02    1.9574005127e+01
    2.8060781860e+02    1.9537994385e+01
    2.8070779419e+02    1.9501007080e+01
    2.8080786133e+02    1.9464019775e+01
    2.8090789795e+02    1.9427001953e+01
    2.8100790405e+02    1.9389007568e+01
    2.8110781860e+02    1.9351989746e+01
    2.8120782471e+02    1.9315002441e+01
    2.8130789185e+02    1.9277008057e+01
    2.8140789795e+02    1.9238983154e+01
    2.8150790405e+02    1.9200988770e+01
    2.8160794067e+02    1.9162994385e+01
    2.8170785522e+02    1.9124023438e+01
    2.8180795288e+02    1.9085998535e+01
    2.8190792847e+02    1.9048004150e+01
    2.8200796509e+02    1.9009979248e+01
    2.8210794067e+02    1.8971008301e+01
    2.8220785522e+02    1.8932006836e+01
    2.8230792236e+02    1.8893005371e+01
    2.8240792847e+02    1.8855010986e+01
    2.8250790405e+02    1.8815002441e+01
    2.8260791016e+02    1.8776000977e+01
    2.8270800781e+02    1.8736999512e+01
    2.8280798340e+02    1.8697998047e+01
    2.8290795898e+02    1.8657989502e+01
    2.8300799561e+02    1.8618988037e+01
    2.8310797119e+02    1.8578979492e+01
    2.8320794678e+02    1.8539978027e+01
    2.8330798340e+02    1.8500000000e+01
    2.8340805054e+02    1.8459991455e+01
    2.8350799561e+02    1.8420013428e+01
    2.8360797119e+02    1.8381011963e+01
    2.8370803833e+02    1.8341003418e+01
    2.8380807495e+02    1.8300994873e+01
    2.8390805054e+02    1.8261016846e+01
    2.8400808716e+02    1.8222015381e+01
    2.8410806274e+02    1.8180999756e+01
    2.8420803833e+02    1.8140991211e+01
    2.8430807495e+02    1.8101989746e+01
    2.8440811157e+02    1.8062011719e+01
    2.8450811768e+02    1.8022003174e+01
    2.8460812378e+02    1.7981994629e+01
    2.8470806885e+02    1.7942993164e+01
    2.8480810547e+02    1.7901977539e+01
    2.8490805054e+02    1.7863006592e+01
    2.8500805664e+02    1.7823974609e+01
    2.8510815430e+02    1.7783020020e+01
    2.8520809937e+02    1.7744018555e+01
    2.8530807495e+02    1.7705017090e+01
    2.8540814209e+02    1.7665008545e+01
    2.8550817871e+02    1.7626007080e+01
    2.8560809326e+02    1.7585998535e+01
    2.8570816040e+02    1.7546997070e+01
    2.8580816650e+02    1.7507995605e+01
    2.8590820312e+02    1.7467987061e+01
    2.8600820923e+02    1.7428985596e+01
    2.8610815430e+02    1.7389984131e+01
    2.8620812988e+02    1.7351989746e+01
    2.8630819702e+02    1.7311981201e+01
    2.8640820312e+02    1.7272979736e+01
    2.8650814819e+02    1.7234985352e+01
    2.8660818481e+02    1.7195983887e+01
    2.8670816040e+02    1.7157012939e+01
    2.8680816650e+02    1.7118011475e+01
    2.8690817261e+02    1.7080017090e+01
    2.8700823975e+02    1.7041015625e+01
    2.8710824585e+02    1.7003997803e+01
    2.8720822144e+02    1.6964965820e+01
    2.8730822754e+02    1.6927001953e+01
    2.8740820312e+02    1.6889038086e+01
    2.8750820923e+02    1.6851043701e+01
    2.8760818481e+02    1.6812988281e+01
    2.8770822144e+02    1.6775024414e+01
    2.8780831909e+02    1.6738037109e+01
    2.8790832520e+02    1.6699981689e+01
    2.8800830078e+02    1.6662017822e+01
    2.8810827637e+02    1.6625030518e+01
    2.8820825195e+02    1.6586975098e+01
    2.8830825806e+02    1.6550018311e+01
    2.8840832520e+02    1.6513000488e+01
    2.8850830078e+02    1.6474975586e+01
    2.8860836792e+02    1.6437011719e+01
    2.8870831299e+02    1.6401000977e+01
    2.8880831909e+02    1.6362976074e+01
    2.8890838623e+02    1.6325012207e+01
    2.8900830078e+02    1.6288024902e+01
    2.8910833740e+02    1.6252044678e+01
    2.8920837402e+02    1.6213989258e+01
    2.8930831909e+02    1.6177032471e+01
    2.8940841675e+02    1.6141021729e+01
    2.8950833130e+02    1.6104003906e+01
    2.8960836792e+02    1.6066009521e+01
    2.8970837402e+02    1.6030029297e+01
    2.8980841064e+02    1.5992980957e+01
    2.8990841675e+02    1.5957000732e+01
    2.9000839233e+02    1.5919982910e+01
    2.9010842896e+02    1.5878967285e+01
    2.9020846558e+02    1.5837005615e+01
    2.9030838013e+02    1.5796020508e+01
    2.9040838623e+02    1.5756011963e+01
    2.9050845337e+02    1.5713989258e+01
    2.9060848999e+02    1.5673980713e+01
    2.9070849609e+02    1.5632995605e+01
    2.9080850220e+02    1.5592010498e+01
    2.9090850830e+02    1.5552001953e+01
    2.9100848389e+02    1.5511962891e+01
    2.9110852051e+02    1.5471008301e+01
    2.9120846558e+02    1.5431030273e+01
    2.9130850220e+02    1.5391021729e+01
    2.9140853882e+02    1.5350982666e+01
    2.9150845337e+02    1.5311004639e+01
    2.9160852051e+02    1.5272003174e+01
    2.9170852661e+02    1.5232025146e+01
    2.9180853271e+02    1.5194030762e+01
    2.9190856934e+02    1.5153991699e+01
    2.9200854492e+02    1.5114990234e+01
    2.9210858154e+02    1.5076965332e+01
    2.9220852661e+02    1.5038024902e+01
    2.9230853271e+02    1.5000000000e+01
    2.9240856934e+02    1.4961975098e+01
    2.9250857544e+02    1.4924011230e+01
    2.9260855103e+02    1.4886047363e+01
    2.9270852661e+02    1.4848999023e+01
    2.9280856323e+02    1.4810974121e+01
    2.9290856934e+02    1.4773010254e+01
    2.9300863647e+02    1.4736022949e+01
    2.9310858154e+02    1.4699035645e+01
    2.9320861816e+02    1.4661987305e+01
    2.9330859375e+02    1.4625976562e+01
    2.9340863037e+02    1.4588989258e+01
    2.9350863647e+02    1.4554016113e+01
    2.9360861206e+02    1.4518005371e+01
    2.9370858765e+02    1.4481994629e+01
    2.9380862427e+02    1.4445983887e+01
    2.9390869141e+02    1.4411010742e+01
    2.9400866699e+02    1.4375000000e+01
    2.9410870361e+02    1.4341003418e+01
    2.9420861816e+02    1.4305969238e+01
    2.9430868530e+02    1.4270996094e+01
    2.9440869141e+02    1.4236999512e+01
    2.9450866699e+02    1.4202026367e+01
    2.9460867310e+02    1.4167968750e+01
    2.9470874023e+02    1.4134948730e+01
    2.9480865479e+02    1.4101013184e+01
    2.9490872192e+02    1.4067016602e+01
    2.9500872803e+02    1.4035034180e+01
    2.9510876465e+02    1.4001953125e+01
    2.9520870972e+02    1.3968994141e+01
    2.9530874634e+02    1.3937011719e+01
    2.9540872192e+02    1.3905029297e+01
    2.9550872803e+02    1.3872985840e+01
    2.9560879517e+02    1.3841003418e+01
    2.9570874023e+02    1.3809997559e+01
    2.9580868530e+02    1.3778991699e+01
    2.9590881348e+02    1.3748046875e+01
    2.9600872803e+02    1.3716979980e+01
    2.9610879517e+02    1.3687011719e+01
    2.9620874023e+02    1.3656982422e+01
    2.9630874634e+02    1.3627014160e+01
    2.9640881348e+02    1.3598022461e+01
    2.9650875854e+02    1.3567993164e+01
    2.9660879517e+02    1.3539001465e+01
    2.9670880127e+02    1.3509033203e+01
    2.9680880737e+02    1.3481018066e+01
    2.9690887451e+02    1.3451965332e+01
    2.9700888062e+02    1.3423950195e+01
    2.9710885620e+02    1.3395996094e+01
    2.9720886230e+02    1.3367004395e+01
    2.9730886841e+02    1.3340026855e+01
    2.9740881348e+02    1.3311950684e+01
    2.9750891113e+02    1.3283996582e+01
    2.9760888672e+02    1.3257995605e+01
    2.9770883179e+02    1.3231018066e+01
    2.9780889893e+02    1.3203002930e+01
    2.9790890503e+02    1.3177001953e+01
    2.9800888062e+02    1.3151000977e+01
    2.9810885620e+02    1.3124023438e+01
    2.9820889282e+02    1.3098999023e+01
    2.9830889893e+02    1.3071960449e+01
    2.9840893555e+02    1.3046020508e+01
    2.9850891113e+02    1.3021972656e+01
    2.9860894775e+02    1.2996032715e+01
    2.9870898438e+02    1.2972045898e+01
    2.9880899048e+02    1.2946960449e+01
    2.9890896606e+02    1.2922973633e+01
    2.9900900269e+02    1.2898986816e+01
    2.9910900879e+02    1.2875000000e+01
    2.9920895386e+02    1.2850952148e+01
    2.9930899048e+02    1.2828979492e+01
    2.9940896606e+02    1.2804992676e+01
    2.9950894165e+02    1.2782043457e+01
    2.9960900879e+02    1.2760009766e+01
    2.9970895386e+02    1.2737976074e+01
    2.9980895996e+02    1.2715026855e+01
    2.9990899658e+02    1.2694030762e+01
endcurve
