Curveplot
LS-DYNA keyword deck by LS-PrePost
Abscissa
Ordinate
XY data
CHOP_EAMZ_mo-1 #pts=3000
* Minval=    -4.8787700653e+01 at time=       237.9052429199
* Maxval=     8.9978901669e-03 at time=        30.9000225067
    0.0000000000e+00    0.0000000000e+00
    9.9943503737e-02    1.1381599482e-37
    1.9988700747e-01    1.6398300419e-30
    2.9994606972e-01    3.9364699047e-25
    3.9988955855e-01    1.3048900179e-20
    4.9994862080e-01    2.7282299265e-17
    5.9989213943e-01    6.1801898234e-13
    6.9991886616e-01    8.0873398645e-08
    7.9997789860e-01    1.6885400100e-06
    8.9992153645e-01    4.4379498831e-06
    9.9998134375e-01    6.0667798607e-06
    1.0999338627e+00    6.5328099481e-06
    1.1999901533e+00    7.2788498073e-06
    1.2999490499e+00    8.7224998424e-06
    1.3999032974e+00    1.0254299923e-05
    1.4998972416e+00    1.1395500223e-05
    1.5999922752e+00    1.2613600120e-05
    1.6998958588e+00    1.4043699593e-05
    1.7999031544e+00    1.5997400624e-05
    1.8999958038e+00    1.7828999262e-05
    1.9998879433e+00    1.9618499209e-05
    2.0999808311e+00    2.1884799935e-05
    2.1999180317e+00    2.4025399398e-05
    2.2999393940e+00    2.5890300094e-05
    2.3999960423e+00    2.8081500204e-05
    2.4999492168e+00    3.0359000448e-05
    2.5999567509e+00    3.2876898331e-05
    2.6999063492e+00    3.5692999518e-05
    2.7999629974e+00    3.8794900320e-05
    2.8999724388e+00    4.2256499000e-05
    2.9999170303e+00    4.6295699576e-05
    3.0998952389e+00    5.0958100474e-05
    3.1999557018e+00    5.6056000176e-05
    3.2999453545e+00    6.1781101977e-05
    3.3999445438e+00    6.7806897277e-05
    3.4998834133e+00    7.4085801316e-05
    3.5999081135e+00    8.0507503299e-05
    3.6999166012e+00    8.7039501523e-05
    3.7999978065e+00    9.3632203061e-05
    3.8999550343e+00    1.0014599684e-04
    3.9999179840e+00    1.0697000107e-04
    4.0999603271e+00    1.1392700253e-04
    4.1999402046e+00    1.2110499665e-04
    4.2999968529e+00    1.2822699500e-04
    4.3999152184e+00    1.3530600700e-04
    4.4999217987e+00    1.4263800404e-04
    4.5999255180e+00    1.5040500148e-04
    4.6999697685e+00    1.5831099881e-04
    4.7999444008e+00    1.6641999537e-04
    4.8998894691e+00    1.7519200628e-04
    4.9999098778e+00    1.8417900719e-04
    5.0999464989e+00    1.9318799605e-04
    5.1998920441e+00    2.0247399516e-04
    5.2999529839e+00    2.1244000527e-04
    5.3999128342e+00    2.2262700077e-04
    5.4998979568e+00    2.3304400383e-04
    5.5998950005e+00    2.4392599880e-04
    5.6999144554e+00    2.5523200748e-04
    5.7999897003e+00    2.6677298592e-04
    5.8999600410e+00    2.7854600921e-04
    5.9998917580e+00    2.9070800520e-04
    6.0999193192e+00    3.0322000384e-04
    6.1998848915e+00    3.1623800169e-04
    6.2999567986e+00    3.2952299807e-04
    6.3999934196e+00    3.4321899875e-04
    6.4999384880e+00    3.5744399065e-04
    6.5999288559e+00    3.7187000271e-04
    6.6999893188e+00    3.8633801159e-04
    6.7999343872e+00    4.0111699491e-04
    6.8999943733e+00    4.1637700633e-04
    6.9999389648e+00    4.3208900024e-04
    7.0999641418e+00    4.4798100134e-04
    7.1999254227e+00    4.6428799396e-04
    7.2999334335e+00    4.8102499568e-04
    7.3999934196e+00    4.9808702897e-04
    7.4999380112e+00    5.1573599922e-04
    7.5998821259e+00    5.3369102534e-04
    7.6999416351e+00    5.5184302619e-04
    7.7998857498e+00    5.7063001441e-04
    7.8999204636e+00    5.8971397812e-04
    7.9999794960e+00    6.0874497285e-04
    8.0999231339e+00    6.2761199661e-04
    8.1999826431e+00    6.4707401907e-04
    8.2999277115e+00    6.6686898936e-04
    8.3999128342e+00    6.8680202821e-04
    8.4999303818e+00    7.0728699211e-04
    8.5999898911e+00    7.2844198439e-04
    8.6999330521e+00    7.4972497532e-04
    8.7999925613e+00    7.7104801312e-04
    8.8999776840e+00    7.9309201101e-04
    8.9999942780e+00    8.1543100532e-04
    9.0999450684e+00    8.3793600788e-04
    9.1999521255e+00    8.6060899775e-04
    9.2999505997e+00    8.8375899941e-04
    9.3999404907e+00    9.0709497454e-04
    9.4999961853e+00    9.3023298541e-04
    9.5999526978e+00    9.5366401365e-04
    9.6999683380e+00    9.7770395223e-04
    9.7999353409e+00    1.0018299799e-03
    9.8998928070e+00    1.0263000149e-03
    9.9999876022e+00    1.0513999732e-03
    1.0099958420e+01    1.0770299705e-03
    1.0199951172e+01    1.1031499598e-03
    1.0299942017e+01    1.1295200093e-03
    1.0399952888e+01    1.1562500149e-03
    1.0499897003e+01    1.1835700134e-03
    1.0599957466e+01    1.2115800055e-03
    1.0699904442e+01    1.2397899991e-03
    1.0799961090e+01    1.2684899848e-03
    1.0899909019e+01    1.2978799641e-03
    1.0999910355e+01    1.3277200051e-03
    1.1099945068e+01    1.3576799538e-03
    1.1199939728e+01    1.3878799509e-03
    1.1299942970e+01    1.4185899636e-03
    1.1399915695e+01    1.4494899660e-03
    1.1499931335e+01    1.4804999810e-03
    1.1599934578e+01    1.5119799646e-03
    1.1699994087e+01    1.5434799716e-03
    1.1799940109e+01    1.5752499457e-03
    1.1899902344e+01    1.6073200386e-03
    1.1999979019e+01    1.6398800071e-03
    1.2099975586e+01    1.6726700123e-03
    1.2199962616e+01    1.7055299832e-03
    1.2299979210e+01    1.7383799423e-03
    1.2399989128e+01    1.7713200068e-03
    1.2499971390e+01    1.8048799830e-03
    1.2599919319e+01    1.8386900192e-03
    1.2699973106e+01    1.8729500007e-03
    1.2799924850e+01    1.9075300079e-03
    1.2899955750e+01    1.9427699735e-03
    1.2999900818e+01    1.9782499876e-03
    1.3099960327e+01    2.0142600406e-03
    1.3199974060e+01    2.0508500747e-03
    1.3299920082e+01    2.0875199698e-03
    1.3399931908e+01    2.1242098883e-03
    1.3499981880e+01    2.1608299576e-03
    1.3600008011e+01    2.1977201104e-03
    1.3699955940e+01    2.2345599718e-03
    1.3799983025e+01    2.2718401160e-03
    1.3899989128e+01    2.3096399382e-03
    1.3999917030e+01    2.3478500079e-03
    1.4099946976e+01    2.3865199182e-03
    1.4199905396e+01    2.4250301067e-03
    1.4299902916e+01    2.4635700975e-03
    1.4399912834e+01    2.5028700475e-03
    1.4499910355e+01    2.5426601060e-03
    1.4599992752e+01    2.5825400371e-03
    1.4699989319e+01    2.6228900533e-03
    1.4799990654e+01    2.6640999131e-03
    1.4899990082e+01    2.7055400424e-03
    1.4999965668e+01    2.7472600341e-03
    1.5099946976e+01    2.7893099468e-03
    1.5199919701e+01    2.8318900149e-03
    1.5299959183e+01    2.8746300377e-03
    1.5399922371e+01    2.9175500385e-03
    1.5499902725e+01    2.9607200995e-03
    1.5599949837e+01    3.0037399847e-03
    1.5700012207e+01    3.0470700003e-03
    1.5799957275e+01    3.0905799940e-03
    1.5900018692e+01    3.1341700815e-03
    1.5999963760e+01    3.1776700635e-03
    1.6099910736e+01    3.2214100938e-03
    1.6199977875e+01    3.2655599061e-03
    1.6299922943e+01    3.3101199660e-03
    1.6399934769e+01    3.3550600056e-03
    1.6500015259e+01    3.4001399763e-03
    1.6599981308e+01    3.4448700026e-03
    1.6699926376e+01    3.4895099234e-03
    1.6799987793e+01    3.5345600918e-03
    1.6899959564e+01    3.5796600860e-03
    1.7000011444e+01    3.6248799879e-03
    1.7099922180e+01    3.6702901125e-03
    1.7199920654e+01    3.7160599604e-03
    1.7299938202e+01    3.7619299255e-03
    1.7400020599e+01    3.8077300414e-03
    1.7499965668e+01    3.8535599597e-03
    1.7600025177e+01    3.8999700919e-03
    1.7699996948e+01    3.9467900060e-03
    1.7799940109e+01    3.9936997928e-03
    1.7899919510e+01    4.0409401990e-03
    1.8000017166e+01    4.0884101763e-03
    1.8099939346e+01    4.1358200833e-03
    1.8199924469e+01    4.1832798161e-03
    1.8299953461e+01    4.2309900746e-03
    1.8399957657e+01    4.2792498134e-03
    1.8499948502e+01    4.3278699741e-03
    1.8599931717e+01    4.3765800074e-03
    1.8699991226e+01    4.4252402149e-03
    1.8799934387e+01    4.4741798192e-03
    1.8899972916e+01    4.5231701806e-03
    1.8999963760e+01    4.5723500662e-03
    1.9099973679e+01    4.6212999150e-03
    1.9199996948e+01    4.6701100655e-03
    1.9299995422e+01    4.7193397768e-03
    1.9399946213e+01    4.7686100006e-03
    1.9499996185e+01    4.8178900033e-03
    1.9599994659e+01    4.8673697747e-03
    1.9699935913e+01    4.9170497805e-03
    1.9799968719e+01    4.9667498097e-03
    1.9899974823e+01    5.0167399459e-03
    1.9999952316e+01    5.0669298507e-03
    2.0099998474e+01    5.1173102111e-03
    2.0200006485e+01    5.1676700823e-03
    2.0299951553e+01    5.2180998027e-03
    2.0400009155e+01    5.2692000754e-03
    2.0499977112e+01    5.3201201372e-03
    2.0600036621e+01    5.3704702295e-03
    2.0699979782e+01    5.4210098460e-03
    2.0800039291e+01    5.4719401523e-03
    2.0899959564e+01    5.5221598595e-03
    2.0999990463e+01    5.5720801465e-03
    2.1100013733e+01    5.6221000850e-03
    2.1199977875e+01    5.6716799736e-03
    2.1299930573e+01    5.7206898928e-03
    2.1399942398e+01    5.7693799026e-03
    2.1499925613e+01    5.8182599023e-03
    2.1600021362e+01    5.8675701730e-03
    2.1699964523e+01    5.9166299179e-03
    2.1800018311e+01    5.9663099237e-03
    2.1899980545e+01    6.0160798021e-03
    2.1999937057e+01    6.0659898445e-03
    2.2100044250e+01    6.1161201447e-03
    2.2199974060e+01    6.1662201770e-03
    2.2300033569e+01    6.2164799310e-03
    2.2399976730e+01    6.2668700702e-03
    2.2499940872e+01    6.3171000220e-03
    2.2599935532e+01    6.3670501113e-03
    2.2699979782e+01    6.4169899561e-03
    2.2799964905e+01    6.4667901024e-03
    2.2900024414e+01    6.5165399574e-03
    2.2999969482e+01    6.5658199601e-03
    2.3100027084e+01    6.6150198691e-03
    2.3199935913e+01    6.6643799655e-03
    2.3300001144e+01    6.7137600854e-03
    2.3400028229e+01    6.7624798976e-03
    2.3500007629e+01    6.8105501123e-03
    2.3599969864e+01    6.8583199754e-03
    2.3700029373e+01    6.9060800597e-03
    2.3799972534e+01    6.9535300136e-03
    2.3899986267e+01    7.0004900917e-03
    2.4000022888e+01    7.0479898714e-03
    2.4099994659e+01    7.0955301635e-03
    2.4200017929e+01    7.1422001347e-03
    2.4300050735e+01    7.1884999052e-03
    2.4399963379e+01    7.2346897796e-03
    2.4500024796e+01    7.2809201665e-03
    2.4599969864e+01    7.3262802325e-03
    2.4699968338e+01    7.3714200407e-03
    2.4799945831e+01    7.4165998958e-03
    2.4900024414e+01    7.4613401666e-03
    2.4999944687e+01    7.5048198923e-03
    2.5099998474e+01    7.5478898361e-03
    2.5199951172e+01    7.5904801488e-03
    2.5299957275e+01    7.6321898960e-03
    2.5400018692e+01    7.6735801995e-03
    2.5500009537e+01    7.7146501280e-03
    2.5599958420e+01    7.7556199394e-03
    2.5700046539e+01    7.7960398048e-03
    2.5800046921e+01    7.8357495368e-03
    2.5899991989e+01    7.8750802204e-03
    2.6000051498e+01    7.9136900604e-03
    2.6099996567e+01    7.9514402896e-03
    2.6199958801e+01    7.9894997180e-03
    2.6299968719e+01    8.0280601978e-03
    2.6400060654e+01    8.0661196262e-03
    2.6500003815e+01    8.1033799797e-03
    2.6600051880e+01    8.1400498748e-03
    2.6700040817e+01    8.1758899614e-03
    2.6800010681e+01    8.2111395895e-03
    2.6899951935e+01    8.2456702366e-03
    2.6999990463e+01    8.2801897079e-03
    2.7100057602e+01    8.3145303652e-03
    2.7200048447e+01    8.3476500586e-03
    2.7299993515e+01    8.3801699802e-03
    2.7400066376e+01    8.4124403074e-03
    2.7500011444e+01    8.4436098114e-03
    2.7600004196e+01    8.4742503241e-03
    2.7699985504e+01    8.5045397282e-03
    2.7800041199e+01    8.5343401879e-03
    2.7899955750e+01    8.5633900017e-03
    2.8000005722e+01    8.5910996422e-03
    2.8100065231e+01    8.6176199839e-03
    2.8199958801e+01    8.6434502155e-03
    2.8300006866e+01    8.6683798581e-03
    2.8400022507e+01    8.6925495416e-03
    2.8500055313e+01    8.7158400565e-03
    2.8600000381e+01    8.7384199724e-03
    2.8700059891e+01    8.7601896375e-03
    2.8800003052e+01    8.7807895616e-03
    2.8900062561e+01    8.8006397709e-03
    2.9000005722e+01    8.8195297867e-03
    2.9100063324e+01    8.8371699676e-03
    2.9199991226e+01    8.8538201526e-03
    2.9300069809e+01    8.8694998994e-03
    2.9400045395e+01    8.8845295832e-03
    2.9500024796e+01    8.8988002390e-03
    2.9600048065e+01    8.9119402692e-03
    2.9700048447e+01    8.9240502566e-03
    2.9800052643e+01    8.9355399832e-03
    2.9899972916e+01    8.9468797669e-03
    2.9999971390e+01    8.9572500437e-03
    3.0100044250e+01    8.9667895809e-03
    3.0200012207e+01    8.9752096683e-03
    3.0299964905e+01    8.9825596660e-03
    3.0400024414e+01    8.9882100001e-03
    3.0499967575e+01    8.9921597391e-03
    3.0600027084e+01    8.9949499816e-03
    3.0700054169e+01    8.9967697859e-03
    3.0800069809e+01    8.9977104217e-03
    3.0900022507e+01    8.9978901669e-03
    3.1000040054e+01    8.9977597818e-03
    3.1100063324e+01    8.9966403320e-03
    3.1200012207e+01    8.9937997982e-03
    3.1300024033e+01    8.9890500531e-03
    3.1399967194e+01    8.9831501245e-03
    3.1499969482e+01    8.9764399454e-03
    3.1600028992e+01    8.9686904103e-03
    3.1700004578e+01    8.9601799846e-03
    3.1800060272e+01    8.9505398646e-03
    3.1900005341e+01    8.9400904253e-03
    3.2000064850e+01    8.9280596003e-03
    3.2100002289e+01    8.9142499492e-03
    3.2200019836e+01    8.8991103694e-03
    3.2300067902e+01    8.8825896382e-03
    3.2400001526e+01    8.8638495654e-03
    3.2500068665e+01    8.8435895741e-03
    3.2599994659e+01    8.8221300393e-03
    3.2700050354e+01    8.7986104190e-03
    3.2800056458e+01    8.7731499225e-03
    3.2900001526e+01    8.7457699701e-03
    3.3000064850e+01    8.7168896571e-03
    3.3100006104e+01    8.6868498474e-03
    3.3199951172e+01    8.6556496099e-03
    3.3299949646e+01    8.6231501773e-03
    3.3400020599e+01    8.5890898481e-03
    3.3499973297e+01    8.5533503443e-03
    3.3600032806e+01    8.5159400478e-03
    3.3700016022e+01    8.4770498797e-03
    3.3799945831e+01    8.4365196526e-03
    3.3900016785e+01    8.3948401734e-03
    3.4000026703e+01    8.3524500951e-03
    3.4100048065e+01    8.3085196093e-03
    3.4200046539e+01    8.2624601200e-03
    3.4299957275e+01    8.2140797749e-03
    3.4400020599e+01    8.1634400412e-03
    3.4499965668e+01    8.1111304462e-03
    3.4600028992e+01    8.0573400483e-03
    3.4699993134e+01    8.0021396279e-03
    3.4799972534e+01    7.9452395439e-03
    3.4899971008e+01    7.8863603994e-03
    3.4999988556e+01    7.8256903216e-03
    3.5099937439e+01    7.7630300075e-03
    3.5200000763e+01    7.6981801540e-03
    3.5299976349e+01    7.6317600906e-03
    3.5399971008e+01    7.5643900782e-03
    3.5499912262e+01    7.4953800067e-03
    3.5599960327e+01    7.4242302217e-03
    3.5699920654e+01    7.3508298956e-03
    3.5799983978e+01    7.2745899670e-03
    3.5899929047e+01    7.1955700405e-03
    3.5999992371e+01    7.1139498614e-03
    3.6099937439e+01    7.0309098810e-03
    3.6200000763e+01    6.9461399689e-03
    3.6299945831e+01    6.8595898338e-03
    3.6400005341e+01    6.7714499310e-03
    3.6499950409e+01    6.6809901036e-03
    3.6600013733e+01    6.5869698301e-03
    3.6699954987e+01    6.4903101884e-03
    3.6799968719e+01    6.3916100189e-03
    3.6899906158e+01    6.2907198444e-03
    3.6999958038e+01    6.1876000836e-03
    3.7099903107e+01    6.0826800764e-03
    3.7199962616e+01    5.9755397961e-03
    3.7299903870e+01    5.8660497889e-03
    3.7399963379e+01    5.7537099347e-03
    3.7499908447e+01    5.6392601691e-03
    3.7599964142e+01    5.5224299431e-03
    3.7699909210e+01    5.4033799097e-03
    3.7799964905e+01    5.2824402228e-03
    3.7899909973e+01    5.1599498838e-03
    3.7999965668e+01    5.0345999189e-03
    3.8099906921e+01    4.9067498185e-03
    3.8199920654e+01    4.7764298506e-03
    3.8299953461e+01    4.6434700489e-03
    3.8399894714e+01    4.5083798468e-03
    3.8499973297e+01    4.3712100014e-03
    3.8599960327e+01    4.2319898494e-03
    3.8699901581e+01    4.0907901712e-03
    3.8799957275e+01    3.9475001395e-03
    3.8899898529e+01    3.8017600309e-03
    3.8999954224e+01    3.6533600651e-03
    3.9099903107e+01    3.5028799903e-03
    3.9199890137e+01    3.3501300495e-03
    3.9299903870e+01    3.1954499427e-03
    3.9399909973e+01    3.0385099817e-03
    3.9499927521e+01    2.8788500931e-03
    3.9599956512e+01    2.7157498989e-03
    3.9699901581e+01    2.5496799499e-03
    3.9799957275e+01    2.3807699326e-03
    3.9899902344e+01    2.2091700230e-03
    3.9999942780e+01    2.0345998928e-03
    4.0099853516e+01    1.8575999420e-03
    4.0199840546e+01    1.6778500285e-03
    4.0299846649e+01    1.4945700532e-03
    4.0399902344e+01    1.3081600191e-03
    4.0499847412e+01    1.1186000193e-03
    4.0599903107e+01    9.2543399660e-04
    4.0699890137e+01    7.3012802750e-04
    4.0799930573e+01    5.3276802646e-04
    4.0899845123e+01    3.3360699308e-04
    4.0999931335e+01    1.3096799375e-04
    4.1099922180e+01   -7.4899697211e-05
    4.1199867249e+01   -2.8373498935e-04
    4.1299922943e+01   -4.9631099682e-04
    4.1399864197e+01   -7.1258598473e-04
    4.1499923706e+01   -9.3169201864e-04
    4.1599822998e+01   -1.1529299663e-03
    4.1699928284e+01   -1.3775399420e-03
    4.1799907684e+01   -1.6045500524e-03
    4.1899887085e+01   -1.8346300349e-03
    4.1999843597e+01   -2.0682299510e-03
    4.2099887848e+01   -2.3061300162e-03
    4.2199913025e+01   -2.5476398878e-03
    4.2299922943e+01   -2.7921600267e-03
    4.2399818420e+01   -3.0395300128e-03
    4.2499847412e+01   -3.2901798841e-03
    4.2599918365e+01   -3.5437799525e-03
    4.2699867249e+01   -3.8003900554e-03
    4.2799869537e+01   -4.0609398857e-03
    4.2899909973e+01   -4.3251398019e-03
    4.2999870300e+01   -4.5923502184e-03
    4.3099910736e+01   -4.8629301600e-03
    4.3199855804e+01   -5.1365802065e-03
    4.3299827576e+01   -5.4142898880e-03
    4.3399806976e+01   -5.6959302165e-03
    4.3499809265e+01   -5.9818797745e-03
    4.3599868774e+01   -6.2724500895e-03
    4.3699874878e+01   -6.5674101934e-03
    4.3799880981e+01   -6.8666399457e-03
    4.3899784088e+01   -7.1692001075e-03
    4.3999858856e+01   -7.4752601795e-03
    4.4099884033e+01   -7.7855400741e-03
    4.4199817657e+01   -8.1008002162e-03
    4.4299839020e+01   -8.4209004417e-03
    4.4399780273e+01   -8.7451301515e-03
    4.4499843597e+01   -9.0741897002e-03
    4.4599811554e+01   -9.4065396115e-03
    4.4699859619e+01   -9.7424797714e-03
    4.4799858093e+01   -1.0082299821e-02
    4.4899803162e+01   -1.0426499881e-02
    4.4999816895e+01   -1.0775499977e-02
    4.5099811554e+01   -1.1129200459e-02
    4.5199859619e+01   -1.1487499811e-02
    4.5299812317e+01   -1.1850300245e-02
    4.5399776459e+01   -1.2217300013e-02
    4.5499870300e+01   -1.2588799931e-02
    4.5599861145e+01   -1.2964800000e-02
    4.5699859619e+01   -1.3345699757e-02
    4.5799842834e+01   -1.3731599785e-02
    4.5899772644e+01   -1.4123399742e-02
    4.5999832153e+01   -1.4520900324e-02
    4.6099773407e+01   -1.4921999536e-02
    4.6199832916e+01   -1.5327399597e-02
    4.6299766541e+01   -1.5735799447e-02
    4.6399822235e+01   -1.6148699448e-02
    4.6499763489e+01   -1.6566300765e-02
    4.6599822998e+01   -1.6990300268e-02
    4.6699764252e+01   -1.7419900745e-02
    4.6799819946e+01   -1.7854800448e-02
    4.6899810791e+01   -1.8293399364e-02
    4.6999774933e+01   -1.8736500293e-02
    4.7099758148e+01   -1.9184200093e-02
    4.7199813843e+01   -1.9636699930e-02
    4.7299755096e+01   -2.0094800740e-02
    4.7399810791e+01   -2.0559400320e-02
    4.7499752045e+01   -2.1028999239e-02
    4.7599807739e+01   -2.1505100653e-02
    4.7699748993e+01   -2.1985599771e-02
    4.7799751282e+01   -2.2470900789e-02
    4.7899826050e+01   -2.2961100563e-02
    4.7999767303e+01   -2.3455400020e-02
    4.8099819183e+01   -2.3955900222e-02
    4.8199802399e+01   -2.4461800233e-02
    4.8299747467e+01   -2.4973200634e-02
    4.8399742126e+01   -2.5490300730e-02
    4.8499797821e+01   -2.6012599468e-02
    4.8599739075e+01   -2.6539100334e-02
    4.8699794769e+01   -2.7072099969e-02
    4.8799732208e+01   -2.7610199526e-02
    4.8899787903e+01   -2.8154699132e-02
    4.8999725342e+01   -2.8705099598e-02
    4.9099777222e+01   -2.9261900112e-02
    4.9199810028e+01   -2.9824400321e-02
    4.9299709320e+01   -3.0391700566e-02
    4.9399723053e+01   -3.0964499339e-02
    4.9499710083e+01   -3.1542699784e-02
    4.9599765778e+01   -3.2127801329e-02
    4.9699741364e+01   -3.2718800008e-02
    4.9799800873e+01   -3.3315800130e-02
    4.9899738312e+01   -3.3917598426e-02
    4.9999794006e+01   -3.4525599331e-02
    5.0099708557e+01   -3.5138398409e-02
    5.0199752808e+01   -3.5757001489e-02
    5.0299758911e+01   -3.6381401122e-02
    5.0399696350e+01   -3.7012200803e-02
    5.0499748230e+01   -3.7650298327e-02
    5.0599685669e+01   -3.8293298334e-02
    5.0699733734e+01   -3.8942500949e-02
    5.0799686432e+01   -3.9596401155e-02
    5.0899738312e+01   -4.0256399661e-02
    5.0999736786e+01   -4.0922001004e-02
    5.1099685669e+01   -4.1593499482e-02
    5.1199741364e+01   -4.2272899300e-02
    5.1299678802e+01   -4.2958501726e-02
    5.1399730682e+01   -4.3651901186e-02
    5.1499782562e+01   -4.4351801276e-02
    5.1599720001e+01   -4.5057300478e-02
    5.1699691772e+01   -4.5769099146e-02
    5.1799667358e+01   -4.6486400068e-02
    5.1899719238e+01   -4.7210000455e-02
    5.1999771118e+01   -4.7941200435e-02
    5.2099662781e+01   -4.8679001629e-02
    5.2199699402e+01   -4.9424499273e-02
    5.2299709320e+01   -5.0176899880e-02
    5.2399719238e+01   -5.0936099142e-02
    5.2499736786e+01   -5.1701199263e-02
    5.2599662781e+01   -5.2471499890e-02
    5.2699726105e+01   -5.3250301629e-02
    5.2799678802e+01   -5.4037000984e-02
    5.2899730682e+01   -5.4832998663e-02
    5.2999668121e+01   -5.5635698140e-02
    5.3099720001e+01   -5.6446999311e-02
    5.3199703217e+01   -5.7265799493e-02
    5.3299713135e+01   -5.8092199266e-02
    5.3399665833e+01   -5.8926600963e-02
    5.3499713898e+01   -5.9771001339e-02
    5.3599674225e+01   -6.0623701662e-02
    5.3699729919e+01   -6.1485901475e-02
    5.3799682617e+01   -6.2355998904e-02
    5.3899738312e+01   -6.3234396279e-02
    5.3999732971e+01   -6.4119398594e-02
    5.4099700928e+01   -6.5012000501e-02
    5.4199661255e+01   -6.5913103521e-02
    5.4299709320e+01   -6.6823996603e-02
    5.4399646759e+01   -6.7742496729e-02
    5.4499694824e+01   -6.8670697510e-02
    5.4599636078e+01   -6.9605998695e-02
    5.4699661255e+01   -7.0550203323e-02
    5.4799671173e+01   -7.1502000093e-02
    5.4899696350e+01   -7.2462700307e-02
    5.4999721527e+01   -7.3431603611e-02
    5.5099655151e+01   -7.4408397079e-02
    5.5199695587e+01   -7.5395897031e-02
    5.5299678802e+01   -7.6392002404e-02
    5.5399635315e+01   -7.7396899462e-02
    5.5499702454e+01   -7.8410901129e-02
    5.5599628448e+01   -7.9432599247e-02
    5.5699623108e+01   -8.0465100706e-02
    5.5799671173e+01   -8.1508800387e-02
    5.5899715424e+01   -8.2562997937e-02
    5.5999645233e+01   -8.3626501262e-02
    5.6099693298e+01   -8.4699697793e-02
    5.6199619293e+01   -8.5778996348e-02
    5.6299652100e+01   -8.6867496371e-02
    5.6399696350e+01   -8.7964199483e-02
    5.6499622345e+01   -8.9069403708e-02
    5.6599670410e+01   -9.0187601745e-02
    5.6699596405e+01   -9.1316796839e-02
    5.6799644470e+01   -9.2458002269e-02
    5.6899631500e+01   -9.3608103693e-02
    5.6999675751e+01   -9.4768397510e-02
    5.7099594116e+01   -9.5937103033e-02
    5.7199615479e+01   -9.7116403282e-02
    5.7299659729e+01   -9.8306700587e-02
    5.7399585724e+01   -9.9507197738e-02
    5.7499626160e+01   -1.0072100163e-01
    5.7599670410e+01   -1.0194399953e-01
    5.7699596405e+01   -1.0317599773e-01
    5.7799640656e+01   -1.0441800207e-01
    5.7899585724e+01   -1.0566899925e-01
    5.7999668121e+01   -1.0693100095e-01
    5.8099613190e+01   -1.0820099711e-01
    5.8199668884e+01   -1.0948400199e-01
    5.8299598694e+01   -1.1077500135e-01
    5.8399639130e+01   -1.1207800359e-01
    5.8499565125e+01   -1.1338800192e-01
    5.8599605560e+01   -1.1470899731e-01
    5.8699649811e+01   -1.1603999883e-01
    5.8799571991e+01   -1.1737900227e-01
    5.8899612427e+01   -1.1873099953e-01
    5.8999652863e+01   -1.2009499967e-01
    5.9099575043e+01   -1.2146899849e-01
    5.9199550629e+01   -1.2285500020e-01
    5.9299568176e+01   -1.2425199896e-01
    5.9399566650e+01   -1.2565900385e-01
    5.9499584198e+01   -1.2707599998e-01
    5.9599609375e+01   -1.2850299478e-01
    5.9699600220e+01   -1.2994100153e-01
    5.9799610138e+01   -1.3139000535e-01
    5.9899650574e+01   -1.3285000622e-01
    5.9999572754e+01   -1.3431900740e-01
    6.0099624634e+01   -1.3580000401e-01
    6.0199592590e+01   -1.3729199767e-01
    6.0299594879e+01   -1.3879500329e-01
    6.0399631500e+01   -1.4031100273e-01
    6.0499553680e+01   -1.4183799922e-01
    6.0599594116e+01   -1.4337800443e-01
    6.0699630737e+01   -1.4492799342e-01
    6.0799594879e+01   -1.4648799598e-01
    6.0899559021e+01   -1.4805999398e-01
    6.0999626160e+01   -1.4964500070e-01
    6.1099628448e+01   -1.5124100447e-01
    6.1199550629e+01   -1.5284800529e-01
    6.1299587250e+01   -1.5447099507e-01
    6.1399627686e+01   -1.5610800683e-01
    6.1499549866e+01   -1.5775300562e-01
    6.1599533081e+01   -1.5941099823e-01
    6.1699592590e+01   -1.6108000278e-01
    6.1799522400e+01   -1.6275799274e-01
    6.1899562836e+01   -1.6444900632e-01
    6.1999595642e+01   -1.6615299881e-01
    6.2099517822e+01   -1.6786900163e-01
    6.2199535370e+01   -1.6960099339e-01
    6.2299610138e+01   -1.7134599388e-01
    6.2399562836e+01   -1.7310200632e-01
    6.2499576569e+01   -1.7487199605e-01
    6.2599578857e+01   -1.7665299773e-01
    6.2699569702e+01   -1.7844599485e-01
    6.2799556732e+01   -1.8025499582e-01
    6.2899578094e+01   -1.8207900226e-01
    6.2999500275e+01   -1.8391500413e-01
    6.3099540710e+01   -1.8576599658e-01
    6.3199546814e+01   -1.8762999773e-01
    6.3299488068e+01   -1.8950699270e-01
    6.3399509430e+01   -1.9140000641e-01
    6.3499549866e+01   -1.9330899417e-01
    6.3599563599e+01   -1.9523200393e-01
    6.3699489594e+01   -1.9717000425e-01
    6.3799560547e+01   -1.9912399352e-01
    6.3899589539e+01   -2.0109200478e-01
    6.3999584198e+01   -2.0307099819e-01
    6.4099563599e+01   -2.0506399870e-01
    6.4199562073e+01   -2.0707200468e-01
    6.4299484253e+01   -2.0909500122e-01
    6.4399520874e+01   -2.1113499999e-01
    6.4499557495e+01   -2.1319000423e-01
    6.4599479675e+01   -2.1525900066e-01
    6.4699493408e+01   -2.1734499931e-01
    6.4799583435e+01   -2.1944700181e-01
    6.4899559021e+01   -2.2156199813e-01
    6.4999557495e+01   -2.2369299829e-01
    6.5099487305e+01   -2.2583700716e-01
    6.5199501038e+01   -2.2799900174e-01
    6.5299484253e+01   -2.3017500341e-01
    6.5399536133e+01   -2.3236800730e-01
    6.5499496460e+01   -2.3457300663e-01
    6.5599517822e+01   -2.3679499328e-01
    6.5699562073e+01   -2.3903299868e-01
    6.5799507141e+01   -2.4128699303e-01
    6.5899543762e+01   -2.4356000125e-01
    6.5999542236e+01   -2.4584800005e-01
    6.6099456787e+01   -2.4815100431e-01
    6.6199539185e+01   -2.5047200918e-01
    6.6299491882e+01   -2.5280401111e-01
    6.6399513245e+01   -2.5515401363e-01
    6.6499504089e+01   -2.5751999021e-01
    6.6599456787e+01   -2.5990301371e-01
    6.6699440002e+01   -2.6230698824e-01
    6.6799438477e+01   -2.6472800970e-01
    6.6899444580e+01   -2.6716598868e-01
    6.6999458313e+01   -2.6961898804e-01
    6.7099494934e+01   -2.7208799124e-01
    6.7199455261e+01   -2.7457299829e-01
    6.7299453735e+01   -2.7707499266e-01
    6.7399490356e+01   -2.7959600091e-01
    6.7499465942e+01   -2.8213301301e-01
    6.7599449158e+01   -2.8468900919e-01
    6.7699424744e+01   -2.8725999594e-01
    6.7799468994e+01   -2.8984901309e-01
    6.7899467468e+01   -2.9245099425e-01
    6.7999488831e+01   -2.9506999254e-01
    6.8099426270e+01   -2.9770299792e-01
    6.8199440002e+01   -3.0035400391e-01
    6.8299446106e+01   -3.0302199721e-01
    6.8399505615e+01   -3.0570799112e-01
    6.8499488831e+01   -3.0840700865e-01
    6.8599418640e+01   -3.1112098694e-01
    6.8699440002e+01   -3.1385299563e-01
    6.8799415588e+01   -3.1659999490e-01
    6.8899505615e+01   -3.1936800480e-01
    6.8999435425e+01   -3.2214999199e-01
    6.9099510193e+01   -3.2495599985e-01
    6.9199401855e+01   -3.2777500153e-01
    6.9299438477e+01   -3.3061400056e-01
    6.9399475098e+01   -3.3347100019e-01
    6.9499443054e+01   -3.3634099364e-01
    6.9599433899e+01   -3.3922898769e-01
    6.9699417114e+01   -3.4213399887e-01
    6.9799446106e+01   -3.4505701065e-01
    6.9899452209e+01   -3.4799399972e-01
    6.9999389648e+01   -3.5094699264e-01
    7.0099388123e+01   -3.5391798615e-01
    7.0199386597e+01   -3.5690701008e-01
    7.0299385071e+01   -3.5991200805e-01
    7.0399391174e+01   -3.6293700337e-01
    7.0499488831e+01   -3.6598300934e-01
    7.0599464417e+01   -3.6904200912e-01
    7.0699409485e+01   -3.7211701274e-01
    7.0799407959e+01   -3.7521100044e-01
    7.0899406433e+01   -3.7832099199e-01
    7.0999366760e+01   -3.8144698739e-01
    7.1099403381e+01   -3.8459399343e-01
    7.1199447632e+01   -3.8776001334e-01
    7.1299415588e+01   -3.9094200730e-01
    7.1399475098e+01   -3.9414799213e-01
    7.1499412537e+01   -3.9736700058e-01
    7.1599456787e+01   -4.0060698986e-01
    7.1699417114e+01   -4.0386199951e-01
    7.1799392700e+01   -4.0713399649e-01
    7.1899375916e+01   -4.1042399406e-01
    7.1999397278e+01   -4.1373500228e-01
    7.2099388123e+01   -4.1706499457e-01
    7.2199371338e+01   -4.2041501403e-01
    7.2299362183e+01   -4.2378500104e-01
    7.2399353027e+01   -4.2717298865e-01
    7.2499359131e+01   -4.3057900667e-01
    7.2599372864e+01   -4.3400400877e-01
    7.2699455261e+01   -4.3744999170e-01
    7.2799369812e+01   -4.4091099501e-01
    7.2899368286e+01   -4.4439598918e-01
    7.2999374390e+01   -4.4790199399e-01
    7.3099357605e+01   -4.5142599940e-01
    7.3199401855e+01   -4.5497301221e-01
    7.3299430847e+01   -4.5854100585e-01
    7.3399353027e+01   -4.6212500334e-01
    7.3499366760e+01   -4.6573400497e-01
    7.3599449158e+01   -4.6936801076e-01
    7.3699432373e+01   -4.7301900387e-01
    7.3799339294e+01   -4.7668999434e-01
    7.3899368286e+01   -4.8038399220e-01
    7.3999404907e+01   -4.8409900069e-01
    7.4099342346e+01   -4.8783001304e-01
    7.4199417114e+01   -4.9158701301e-01
    7.4299346924e+01   -4.9536100030e-01
    7.4399337769e+01   -4.9915799499e-01
    7.4499382019e+01   -5.0297898054e-01
    7.4599327087e+01   -5.0681799650e-01
    7.4699409485e+01   -5.1068300009e-01
    7.4799392700e+01   -5.1456701756e-01
    7.4899353027e+01   -5.1846998930e-01
    7.4999420166e+01   -5.2239900827e-01
    7.5099311829e+01   -5.2634197474e-01
    7.5199401855e+01   -5.3031402826e-01
    7.5299385071e+01   -5.3430199623e-01
    7.5399414062e+01   -5.3831398487e-01
    7.5499366760e+01   -5.4234200716e-01
    7.5599334717e+01   -5.4639101028e-01
    7.5699356079e+01   -5.5046397448e-01
    7.5799354553e+01   -5.5456101894e-01
    7.5899391174e+01   -5.5868297815e-01
    7.5999389648e+01   -5.6282597780e-01
    7.6099327087e+01   -5.6699001789e-01
    7.6199409485e+01   -5.7117998600e-01
    7.6299339294e+01   -5.7538402081e-01
    7.6399337769e+01   -5.7961297035e-01
    7.6499382019e+01   -5.8386701345e-01
    7.6599365234e+01   -5.8814197779e-01
    7.6699363708e+01   -5.9244197607e-01
    7.6799377441e+01   -5.9676802158e-01
    7.6899322510e+01   -6.0111302137e-01
    7.6999282837e+01   -6.0548001528e-01
    7.7099357605e+01   -6.0987299681e-01
    7.7199378967e+01   -6.1428600550e-01
    7.7299346924e+01   -6.1871898174e-01
    7.7399360657e+01   -6.2317699194e-01
    7.7499305725e+01   -6.2765502930e-01
    7.7599281311e+01   -6.3215798140e-01
    7.7699295044e+01   -6.3668298721e-01
    7.7799362183e+01   -6.4123100042e-01
    7.7899261475e+01   -6.4579200745e-01
    7.7999259949e+01   -6.5037798882e-01
    7.8099372864e+01   -6.5499001741e-01
    7.8199287415e+01   -6.5961599350e-01
    7.8299339294e+01   -6.6426897049e-01
    7.8399345398e+01   -6.6894102097e-01
    7.8499305725e+01   -6.7363101244e-01
    7.8599342346e+01   -6.7834502459e-01
    7.8699325562e+01   -6.8307697773e-01
    7.8799346924e+01   -6.8783098459e-01
    7.8899276733e+01   -6.9260299206e-01
    7.8999359131e+01   -6.9740599394e-01
    7.9099296570e+01   -7.0222502947e-01
    7.9199264526e+01   -7.0706897974e-01
    7.9299308777e+01   -7.1193802357e-01
    7.9399253845e+01   -7.1682399511e-01
    7.9499298096e+01   -7.2173601389e-01
    7.9599342346e+01   -7.2666800022e-01
    7.9699249268e+01   -7.3161399364e-01
    7.9799240112e+01   -7.3658400774e-01
    7.9899345398e+01   -7.4158102274e-01
    7.9999244690e+01   -7.4658697844e-01
    8.0099258423e+01   -7.5161999464e-01
    8.0199249268e+01   -7.5667399168e-01
    8.0299339294e+01   -7.6175498962e-01
    8.0399307251e+01   -7.6685202122e-01
    8.0499244690e+01   -7.7197098732e-01
    8.0599319458e+01   -7.7711999416e-01
    8.0699241638e+01   -7.8228098154e-01
    8.0799308777e+01   -7.8747099638e-01
    8.0899314880e+01   -7.9267799854e-01
    8.0999267578e+01   -7.9790300131e-01
    8.1099281311e+01   -8.0315399170e-01
    8.1199310303e+01   -8.0842798948e-01
    8.1299247742e+01   -8.1371998787e-01
    8.1399269104e+01   -8.1904101372e-01
    8.1499275208e+01   -8.2438200712e-01
    8.1599212646e+01   -8.2974100113e-01
    8.1699295044e+01   -8.3512902260e-01
    8.1799232483e+01   -8.4052801132e-01
    8.1899314880e+01   -8.4595698118e-01
    8.1999206543e+01   -8.5139697790e-01
    8.2099311829e+01   -8.5687202215e-01
    8.2199295044e+01   -8.6236399412e-01
    8.2299217224e+01   -8.6787497997e-01
    8.2399261475e+01   -8.7341499329e-01
    8.2499229431e+01   -8.7897098064e-01
    8.2599296570e+01   -8.8455301523e-01
    8.2699241638e+01   -8.9015001059e-01
    8.2799194336e+01   -8.9577102661e-01
    8.2899276733e+01   -9.0142399073e-01
    8.2999221802e+01   -9.0709400177e-01
    8.3099281311e+01   -9.1279298067e-01
    8.3199218750e+01   -9.1851001978e-01
    8.3299247742e+01   -9.2425698042e-01
    8.3399215698e+01   -9.3002402782e-01
    8.3499267578e+01   -9.3582201004e-01
    8.3599182129e+01   -9.4163799286e-01
    8.3699256897e+01   -9.4748902321e-01
    8.3799270630e+01   -9.5336198807e-01
    8.3899208069e+01   -9.5925301313e-01
    8.3999191284e+01   -9.6517002583e-01
    8.4099266052e+01   -9.7111600637e-01
    8.4199272156e+01   -9.7707998753e-01
    8.4299209595e+01   -9.8306500912e-01
    8.4399215698e+01   -9.8907899857e-01
    8.4499183655e+01   -9.9511498213e-01
    8.4599235535e+01   -1.0011800528e+00
    8.4699165344e+01   -1.0072599649e+00
    8.4799179077e+01   -1.0133800507e+00
    8.4899200439e+01   -1.0195100307e+00
    8.4999198914e+01   -1.0256700516e+00
    8.5099243164e+01   -1.0318599939e+00
    8.5199195862e+01   -1.0380599499e+00
    8.5299240112e+01   -1.0442999601e+00
    8.5399192810e+01   -1.0505499840e+00
    8.5499153137e+01   -1.0568200350e+00
    8.5599212646e+01   -1.0631200075e+00
    8.5699188232e+01   -1.0694400072e+00
    8.5799232483e+01   -1.0757900476e+00
    8.5899162292e+01   -1.0821599960e+00
    8.5999160767e+01   -1.0885599852e+00
    8.6099182129e+01   -1.0949900150e+00
    8.6199157715e+01   -1.1014300585e+00
    8.6299171448e+01   -1.1079100370e+00
    8.6399230957e+01   -1.1144000292e+00
    8.6499160767e+01   -1.1209199429e+00
    8.6599212646e+01   -1.1274600029e+00
    8.6699180603e+01   -1.1340299845e+00
    8.6799140930e+01   -1.1406300068e+00
    8.6899215698e+01   -1.1472500563e+00
    8.6999176025e+01   -1.1538900137e+00
    8.7099243164e+01   -1.1605600119e+00
    8.7199234009e+01   -1.1672500372e+00
    8.7299186707e+01   -1.1739599705e+00
    8.7399177551e+01   -1.1806999445e+00
    8.7499198914e+01   -1.1874699593e+00
    8.7599159241e+01   -1.1942600012e+00
    8.7699127197e+01   -1.2010699511e+00
    8.7799209595e+01   -1.2079099417e+00
    8.7899192810e+01   -1.2147599459e+00
    8.7999183655e+01   -1.2216399908e+00
    8.8099136353e+01   -1.2285300493e+00
    8.8199180603e+01   -1.2354500294e+00
    8.8299156189e+01   -1.2424000502e+00
    8.8399208069e+01   -1.2493599653e+00
    8.8499206543e+01   -1.2563500404e+00
    8.8599121094e+01   -1.2633500099e+00
    8.8699150085e+01   -1.2703800201e+00
    8.8799209595e+01   -1.2774399519e+00
    8.8899208069e+01   -1.2845100164e+00
    8.8999114990e+01   -1.2915999889e+00
    8.9099174500e+01   -1.2987200022e+00
    8.9199119568e+01   -1.3058600426e+00
    8.9299133301e+01   -1.3130300045e+00
    8.9399185181e+01   -1.3202199936e+00
    8.9499122620e+01   -1.3274300098e+00
    8.9599105835e+01   -1.3346500397e+00
    8.9699195862e+01   -1.3419100046e+00
    8.9799140930e+01   -1.3491799831e+00
    8.9899169922e+01   -1.3564699888e+00
    8.9999168396e+01   -1.3637800217e+00
    9.0099174500e+01   -1.3711099625e+00
    9.0199165344e+01   -1.3784600496e+00
    9.0299156189e+01   -1.3858400583e+00
    9.0399093628e+01   -1.3932299614e+00
    9.0499145508e+01   -1.4006600380e+00
    9.0599128723e+01   -1.4081000090e+00
    9.0699134827e+01   -1.4155600071e+00
    9.0799125671e+01   -1.4230400324e+00
    9.0899169922e+01   -1.4305499792e+00
    9.0999130249e+01   -1.4380700588e+00
    9.1099159241e+01   -1.4456100464e+00
    9.1199089050e+01   -1.4531699419e+00
    9.1299148560e+01   -1.4607599974e+00
    9.1399162292e+01   -1.4683699608e+00
    9.1499099731e+01   -1.4759999514e+00
    9.1599060059e+01   -1.4836499691e+00
    9.1699058533e+01   -1.4913200140e+00
    9.1799110413e+01   -1.4990199804e+00
    9.1899085999e+01   -1.5067299604e+00
    9.1999160767e+01   -1.5144699812e+00
    9.2099105835e+01   -1.5222300291e+00
    9.2199081421e+01   -1.5300099850e+00
    9.2299079895e+01   -1.5378099680e+00
    9.2399032593e+01   -1.5456399918e+00
    9.2499122620e+01   -1.5534900427e+00
    9.2599113464e+01   -1.5613499880e+00
    9.2699058533e+01   -1.5692399740e+00
    9.2799095154e+01   -1.5771600008e+00
    9.2899139404e+01   -1.5851000547e+00
    9.2999122620e+01   -1.5930600166e+00
    9.3099060059e+01   -1.6010500193e+00
    9.3199066162e+01   -1.6090600491e+00
    9.3299133301e+01   -1.6171100140e+00
    9.3399063110e+01   -1.6251699924e+00
    9.3499130249e+01   -1.6332700253e+00
    9.3599067688e+01   -1.6413799524e+00
    9.3699050903e+01   -1.6495300531e+00
    9.3799064636e+01   -1.6576999426e+00
    9.3899047852e+01   -1.6658999920e+00
    9.3999084473e+01   -1.6741199493e+00
    9.4099029541e+01   -1.6823600531e+00
    9.4199028015e+01   -1.6906199455e+00
    9.4299018860e+01   -1.6989099979e+00
    9.4399032593e+01   -1.7072299719e+00
    9.4499015808e+01   -1.7155699730e+00
    9.4599098206e+01   -1.7239400148e+00
    9.4699028015e+01   -1.7323199511e+00
    9.4799064636e+01   -1.7407300472e+00
    9.4899070740e+01   -1.7491699457e+00
    9.4999069214e+01   -1.7576299906e+00
    9.5099113464e+01   -1.7661199570e+00
    9.5199066162e+01   -1.7746299505e+00
    9.5299102783e+01   -1.7831699848e+00
    9.5399032593e+01   -1.7917200327e+00
    9.5499092102e+01   -1.8003100157e+00
    9.5599052429e+01   -1.8089100122e+00
    9.5699089050e+01   -1.8175400496e+00
    9.5799003601e+01   -1.8261899948e+00
    9.5899101257e+01   -1.8348900080e+00
    9.5999046326e+01   -1.8435900211e+00
    9.6099075317e+01   -1.8523299694e+00
    9.6199028015e+01   -1.8610899448e+00
    9.6299072266e+01   -1.8698799610e+00
    9.6399078369e+01   -1.8786900043e+00
    9.6499038696e+01   -1.8875199556e+00
    9.6599021912e+01   -1.8963799477e+00
    9.6699073792e+01   -1.9052699804e+00
    9.6799095154e+01   -1.9141900539e+00
    9.6899070740e+01   -1.9231300354e+00
    9.6999046326e+01   -1.9320900440e+00
    9.7099082947e+01   -1.9410799742e+00
    9.7199081421e+01   -1.9500900507e+00
    9.7299041748e+01   -1.9591200352e+00
    9.7399017334e+01   -1.9681799412e+00
    9.7499015808e+01   -1.9772700071e+00
    9.7599037170e+01   -1.9863899946e+00
    9.7698982239e+01   -1.9955199957e+00
    9.7798957825e+01   -2.0046799183e+00
    9.7899040222e+01   -2.0138700008e+00
    9.7999015808e+01   -2.0230700970e+00
    9.8098991394e+01   -2.0322899818e+00
    9.8198989868e+01   -2.0415298939e+00
    9.8299034119e+01   -2.0508000851e+00
    9.8399040222e+01   -2.0600800514e+00
    9.8498954773e+01   -2.0693800449e+00
    9.8599021912e+01   -2.0787100792e+00
    9.8698959351e+01   -2.0880498886e+00
    9.8799003601e+01   -2.0974199772e+00
    9.8899055481e+01   -2.1068100929e+00
    9.8999046326e+01   -2.1162199974e+00
    9.9099006653e+01   -2.1256499290e+00
    9.9198966980e+01   -2.1351099014e+00
    9.9299049377e+01   -2.1445999146e+00
    9.9399002075e+01   -2.1540999413e+00
    9.9498992920e+01   -2.1636199951e+00
    9.9598937988e+01   -2.1731600761e+00
    9.9698951721e+01   -2.1827299595e+00
    9.9799018860e+01   -2.1923201084e+00
    9.9898986816e+01   -2.2019200325e+00
    9.9999023438e+01   -2.2115399837e+00
    1.0009895325e+02   -2.2211799622e+00
    1.0019902039e+02   -2.2308499813e+00
    1.0029898071e+02   -2.2405300140e+00
    1.0039891052e+02   -2.2502400875e+00
    1.0049893951e+02   -2.2599699497e+00
    1.0059896088e+02   -2.2697300911e+00
    1.0069899750e+02   -2.2795200348e+00
    1.0079898834e+02   -2.2893099785e+00
    1.0089895630e+02   -2.2991299629e+00
    1.0099893951e+02   -2.3089699745e+00
    1.0109896851e+02   -2.3188400269e+00
    1.0119895172e+02   -2.3287200928e+00
    1.0129898834e+02   -2.3386399746e+00
    1.0139897156e+02   -2.3485701084e+00
    1.0149896240e+02   -2.3585300446e+00
    1.0159893799e+02   -2.3685100079e+00
    1.0169896698e+02   -2.3785099983e+00
    1.0179895020e+02   -2.3885300159e+00
    1.0189891815e+02   -2.3985700607e+00
    1.0199894714e+02   -2.4086399078e+00
    1.0209900665e+02   -2.4187400341e+00
    1.0219895935e+02   -2.4288499355e+00
    1.0229889679e+02   -2.4389801025e+00
    1.0239891052e+02   -2.4491400719e+00
    1.0249899292e+02   -2.4593300819e+00
    1.0259896088e+02   -2.4695301056e+00
    1.0269898987e+02   -2.4797599316e+00
    1.0279895782e+02   -2.4900100231e+00
    1.0289891815e+02   -2.5002899170e+00
    1.0299896240e+02   -2.5106000900e+00
    1.0309893799e+02   -2.5209300518e+00
    1.0319898224e+02   -2.5313000679e+00
    1.0329898071e+02   -2.5416998863e+00
    1.0339894867e+02   -2.5521199703e+00
    1.0349890137e+02   -2.5625700951e+00
    1.0359886932e+02   -2.5730500221e+00
    1.0369893646e+02   -2.5835700035e+00
    1.0379891968e+02   -2.5941100121e+00
    1.0389894867e+02   -2.6046800613e+00
    1.0399891663e+02   -2.6152698994e+00
    1.0409886932e+02   -2.6258900166e+00
    1.0419898224e+02   -2.6365499496e+00
    1.0429885864e+02   -2.6472198963e+00
    1.0439891815e+02   -2.6579298973e+00
    1.0449889374e+02   -2.6686599255e+00
    1.0459893799e+02   -2.6794300079e+00
    1.0469891357e+02   -2.6902101040e+00
    1.0479891968e+02   -2.7010300159e+00
    1.0489893341e+02   -2.7118799686e+00
    1.0499893951e+02   -2.7227599621e+00
    1.0509896088e+02   -2.7336699963e+00
    1.0519895935e+02   -2.7446100712e+00
    1.0529894257e+02   -2.7555699348e+00
    1.0539885712e+02   -2.7665500641e+00
    1.0549896240e+02   -2.7775800228e+00
    1.0559893036e+02   -2.7886199951e+00
    1.0569888306e+02   -2.7996900082e+00
    1.0579895020e+02   -2.8108000755e+00
    1.0589891052e+02   -2.8219399452e+00
    1.0599889374e+02   -2.8331000805e+00
    1.0609883881e+02   -2.8443000317e+00
    1.0619892883e+02   -2.8555300236e+00
    1.0629882812e+02   -2.8667800426e+00
    1.0639890289e+02   -2.8780701160e+00
    1.0649890900e+02   -2.8893799782e+00
    1.0659884644e+02   -2.9007198811e+00
    1.0669883728e+02   -2.9121000767e+00
    1.0679885864e+02   -2.9235200882e+00
    1.0689882660e+02   -2.9349501133e+00
    1.0699889374e+02   -2.9464299679e+00
    1.0709886169e+02   -2.9579300880e+00
    1.0719891357e+02   -2.9694700241e+00
    1.0729888916e+02   -2.9810299873e+00
    1.0739882660e+02   -2.9926099777e+00
    1.0749884796e+02   -3.0042400360e+00
    1.0759887695e+02   -3.0158898830e+00
    1.0769883728e+02   -3.0275700092e+00
    1.0779884338e+02   -3.0392799377e+00
    1.0789890289e+02   -3.0510199070e+00
    1.0799890137e+02   -3.0627799034e+00
    1.0809883881e+02   -3.0745599270e+00
    1.0819889832e+02   -3.0863800049e+00
    1.0829879761e+02   -3.0982000828e+00
    1.0839887238e+02   -3.1100699902e+00
    1.0849884796e+02   -3.1219499111e+00
    1.0859882355e+02   -3.1338601112e+00
    1.0869882202e+02   -3.1458098888e+00
    1.0879882812e+02   -3.1577699184e+00
    1.0889887238e+02   -3.1697800159e+00
    1.0899884796e+02   -3.1817998886e+00
    1.0909886169e+02   -3.1938600540e+00
    1.0919885254e+02   -3.2059400082e+00
    1.0929888153e+02   -3.2180600166e+00
    1.0939888000e+02   -3.2302000523e+00
    1.0949880219e+02   -3.2423601151e+00
    1.0959883118e+02   -3.2545599937e+00
    1.0969882202e+02   -3.2667698860e+00
    1.0979882812e+02   -3.2790200710e+00
    1.0989878845e+02   -3.2912900448e+00
    1.0999883270e+02   -3.3035800457e+00
    1.1009886169e+02   -3.3159101009e+00
    1.1019886780e+02   -3.3282499313e+00
    1.1029882812e+02   -3.3406200409e+00
    1.1039884186e+02   -3.3530299664e+00
    1.1049884033e+02   -3.3654599190e+00
    1.1059883881e+02   -3.3779299259e+00
    1.1069876862e+02   -3.3904099464e+00
    1.1079885101e+02   -3.4029300213e+00
    1.1089882660e+02   -3.4154698849e+00
    1.1099881744e+02   -3.4280400276e+00
    1.1109879303e+02   -3.4406399727e+00
    1.1119880676e+02   -3.4532699585e+00
    1.1129885101e+02   -3.4659299850e+00
    1.1139875793e+02   -3.4786100388e+00
    1.1149881744e+02   -3.4913299084e+00
    1.1159883118e+02   -3.5040800571e+00
    1.1169879150e+02   -3.5168399811e+00
    1.1179879761e+02   -3.5296399593e+00
    1.1189878082e+02   -3.5424699783e+00
    1.1199874878e+02   -3.5553200245e+00
    1.1209874725e+02   -3.5682098866e+00
    1.1219879150e+02   -3.5811400414e+00
    1.1229885864e+02   -3.5940999985e+00
    1.1239875031e+02   -3.6070699692e+00
    1.1249878693e+02   -3.6200900078e+00
    1.1259877014e+02   -3.6331300735e+00
    1.1269879913e+02   -3.6462099552e+00
    1.1279873657e+02   -3.6593101025e+00
    1.1289882660e+02   -3.6724700928e+00
    1.1299881744e+02   -3.6856501102e+00
    1.1309882355e+02   -3.6988799572e+00
    1.1319883728e+02   -3.7121400833e+00
    1.1329884338e+02   -3.7254500389e+00
    1.1339882660e+02   -3.7388000488e+00
    1.1349880219e+02   -3.7521800995e+00
    1.1359880066e+02   -3.7656099796e+00
    1.1369879150e+02   -3.7790799141e+00
    1.1379879761e+02   -3.7925899029e+00
    1.1389878845e+02   -3.8061399460e+00
    1.1399877167e+02   -3.8197200298e+00
    1.1409873199e+02   -3.8333399296e+00
    1.1419877625e+02   -3.8470098972e+00
    1.1429872131e+02   -3.8607099056e+00
    1.1439874268e+02   -3.8744499683e+00
    1.1449874878e+02   -3.8882400990e+00
    1.1459873962e+02   -3.9020500183e+00
    1.1469882202e+02   -3.9159200191e+00
    1.1479876709e+02   -3.9298200607e+00
    1.1489874268e+02   -3.9437499046e+00
    1.1499880219e+02   -3.9577400684e+00
    1.1509873199e+02   -3.9717500210e+00
    1.1519876862e+02   -3.9858100414e+00
    1.1529872894e+02   -3.9999001026e+00
    1.1539869690e+02   -4.0140299797e+00
    1.1549880219e+02   -4.0282201767e+00
    1.1559870911e+02   -4.0424199104e+00
    1.1569869995e+02   -4.0566701889e+00
    1.1579878235e+02   -4.0709800720e+00
    1.1589868164e+02   -4.0853099823e+00
    1.1599871826e+02   -4.0996999741e+00
    1.1609873962e+02   -4.1141300201e+00
    1.1619870758e+02   -4.1285901070e+00
    1.1629878998e+02   -4.1431097984e+00
    1.1639874268e+02   -4.1576499939e+00
    1.1649873352e+02   -4.1722497940e+00
    1.1659877777e+02   -4.1868901253e+00
    1.1669869995e+02   -4.2015700340e+00
    1.1679876709e+02   -4.2163200378e+00
    1.1689866638e+02   -4.2310800552e+00
    1.1699867249e+02   -4.2459001541e+00
    1.1709873962e+02   -4.2607698441e+00
    1.1719869995e+02   -4.2756700516e+00
    1.1729876709e+02   -4.2906298637e+00
    1.1739871979e+02   -4.3056101799e+00
    1.1749877167e+02   -4.3206501007e+00
    1.1759874725e+02   -4.3357200623e+00
    1.1769872284e+02   -4.3508400917e+00
    1.1779865265e+02   -4.3659901619e+00
    1.1789866638e+02   -4.3811898232e+00
    1.1799874115e+02   -4.3964400291e+00
    1.1809873199e+02   -4.4117097855e+00
    1.1819873810e+02   -4.4270200729e+00
    1.1829875183e+02   -4.4423699379e+00
    1.1839869690e+02   -4.4577398300e+00
    1.1849867249e+02   -4.4731597900e+00
    1.1859868622e+02   -4.4886198044e+00
    1.1869867706e+02   -4.5041198730e+00
    1.1879872131e+02   -4.5196599960e+00
    1.1889871216e+02   -4.5352401733e+00
    1.1899870300e+02   -4.5508599281e+00
    1.1909868622e+02   -4.5665202141e+00
    1.1919875336e+02   -4.5822401047e+00
    1.1929869843e+02   -4.5979800224e+00
    1.1939871216e+02   -4.6137599945e+00
    1.1949864960e+02   -4.6295800209e+00
    1.1959871674e+02   -4.6454601288e+00
    1.1969870758e+02   -4.6613597870e+00
    1.1979866028e+02   -4.6772899628e+00
    1.1989871216e+02   -4.6932702065e+00
    1.1999864960e+02   -4.7092700005e+00
    1.2009867859e+02   -4.7253298759e+00
    1.2019863129e+02   -4.7413997650e+00
    1.2029866028e+02   -4.7575402260e+00
    1.2039862823e+02   -4.7737002373e+00
    1.2049873352e+02   -4.7899298668e+00
    1.2059866333e+02   -4.8061800003e+00
    1.2069870758e+02   -4.8224802017e+00
    1.2079866028e+02   -4.8388099670e+00
    1.2089869690e+02   -4.8551898003e+00
    1.2099864960e+02   -4.8716001511e+00
    1.2109863281e+02   -4.8880600929e+00
    1.2119870758e+02   -4.9045801163e+00
    1.2129862976e+02   -4.9211201668e+00
    1.2139859772e+02   -4.9377198219e+00
    1.2149871063e+02   -4.9543800354e+00
    1.2159870148e+02   -4.9710597992e+00
    1.2169867706e+02   -4.9877800941e+00
    1.2179863739e+02   -5.0045399666e+00
    1.2189869690e+02   -5.0213599205e+00
    1.2199865723e+02   -5.0382099152e+00
    1.2209867096e+02   -5.0551199913e+00
    1.2219862366e+02   -5.0720601082e+00
    1.2229863739e+02   -5.0890698433e+00
    1.2239868927e+02   -5.1061201096e+00
    1.2249867249e+02   -5.1232099533e+00
    1.2259866333e+02   -5.1403398514e+00
    1.2269860077e+02   -5.1574997902e+00
    1.2279860687e+02   -5.1747198105e+00
    1.2289865112e+02   -5.1919999123e+00
    1.2299859619e+02   -5.2093100548e+00
    1.2309864807e+02   -5.2266998291e+00
    1.2319862366e+02   -5.2441301346e+00
    1.2329859161e+02   -5.2616200447e+00
    1.2339864349e+02   -5.2791800499e+00
    1.2349864197e+02   -5.2967901230e+00
    1.2359864807e+02   -5.3144598007e+00
    1.2369860840e+02   -5.3321800232e+00
    1.2379866028e+02   -5.3499598503e+00
    1.2389862061e+02   -5.3677802086e+00
    1.2399867249e+02   -5.3856701851e+00
    1.2409857178e+02   -5.4035801888e+00
    1.2419859314e+02   -5.4215698242e+00
    1.2429866791e+02   -5.4396300316e+00
    1.2439865875e+02   -5.4577198029e+00
    1.2449858856e+02   -5.4758601189e+00
    1.2459863281e+02   -5.4940700531e+00
    1.2469864655e+02   -5.5123300552e+00
    1.2479865265e+02   -5.5306401253e+00
    1.2489855957e+02   -5.5489897728e+00
    1.2499861908e+02   -5.5674200058e+00
    1.2509861755e+02   -5.5858998299e+00
    1.2519862366e+02   -5.6044301987e+00
    1.2529856110e+02   -5.6230001450e+00
    1.2539856720e+02   -5.6416501999e+00
    1.2549854279e+02   -5.6603298187e+00
    1.2559864807e+02   -5.6791000366e+00
    1.2569854736e+02   -5.6978898048e+00
    1.2579859924e+02   -5.7167601585e+00
    1.2589862061e+02   -5.7356901169e+00
    1.2599855042e+02   -5.7546601295e+00
    1.2609853363e+02   -5.7736902237e+00
    1.2619857025e+02   -5.7927999496e+00
    1.2629856110e+02   -5.8119502068e+00
    1.2639853668e+02   -5.8311600685e+00
    1.2649854279e+02   -5.8504199982e+00
    1.2659863281e+02   -5.8697700500e+00
    1.2669853210e+02   -5.8891501427e+00
    1.2679853058e+02   -5.9085998535e+00
    1.2689861298e+02   -5.9281401634e+00
    1.2699862671e+02   -5.9477100372e+00
    1.2709860229e+02   -5.9673399925e+00
    1.2719853210e+02   -5.9870100021e+00
    1.2729857635e+02   -6.0067601204e+00
    1.2739852142e+02   -6.0265498161e+00
    1.2749851990e+02   -6.0464100838e+00
    1.2759858704e+02   -6.0663399696e+00
    1.2769854736e+02   -6.0862998962e+00
    1.2779859161e+02   -6.1063399315e+00
    1.2789856720e+02   -6.1264200211e+00
    1.2799855042e+02   -6.1465501785e+00
    1.2809857178e+02   -6.1667399406e+00
    1.2819859314e+02   -6.1869797707e+00
    1.2829850769e+02   -6.2072401047e+00
    1.2839859009e+02   -6.2275800705e+00
    1.2849862671e+02   -6.2479600906e+00
    1.2859863281e+02   -6.2683901787e+00
    1.2869856262e+02   -6.2888698578e+00
    1.2879852295e+02   -6.3094000816e+00
    1.2889865112e+02   -6.3300199509e+00
    1.2899858093e+02   -6.3506498337e+00
    1.2909863281e+02   -6.3713698387e+00
    1.2919865417e+02   -6.3921298981e+00
    1.2929864502e+02   -6.4129500389e+00
    1.2939862061e+02   -6.4338102341e+00
    1.2949862671e+02   -6.4547300339e+00
    1.2959860229e+02   -6.4756999016e+00
    1.2969863892e+02   -6.4967298508e+00
    1.2979864502e+02   -6.5177998543e+00
    1.2989871216e+02   -6.5389299393e+00
    1.2999867249e+02   -6.5600900650e+00
    1.3009872437e+02   -6.5813198090e+00
    1.3019862366e+02   -6.6025600433e+00
    1.3029873657e+02   -6.6239099503e+00
    1.3039868164e+02   -6.6452698708e+00
    1.3049870300e+02   -6.6666998863e+00
    1.3059872437e+02   -6.6881899834e+00
    1.3069869995e+02   -6.7097201347e+00
    1.3079876709e+02   -6.7313098907e+00
    1.3089868164e+02   -6.7529301643e+00
    1.3099871826e+02   -6.7746300697e+00
    1.3109878540e+02   -6.7963900566e+00
    1.3119868469e+02   -6.8181700706e+00
    1.3129876709e+02   -6.8400602341e+00
    1.3139872742e+02   -6.8619699478e+00
    1.3149876404e+02   -6.8839502335e+00
    1.3159881592e+02   -6.9059901237e+00
    1.3169880676e+02   -6.9280700684e+00
    1.3179878235e+02   -6.9502000809e+00
    1.3189875793e+02   -6.9723801613e+00
    1.3199873352e+02   -6.9946098328e+00
    1.3209878540e+02   -7.0169200897e+00
    1.3219877625e+02   -7.0392699242e+00
    1.3229884338e+02   -7.0617098808e+00
    1.3239886475e+02   -7.0841798782e+00
    1.3249882507e+02   -7.1066999435e+00
    1.3259877014e+02   -7.1292700768e+00
    1.3269877625e+02   -7.1519098282e+00
    1.3279888916e+02   -7.1746201515e+00
    1.3289884949e+02   -7.1973600388e+00
    1.3299879456e+02   -7.2201700211e+00
    1.3309883118e+02   -7.2430500984e+00
    1.3319885254e+02   -7.2660098076e+00
    1.3329890442e+02   -7.2890601158e+00
    1.3339883423e+02   -7.3121399879e+00
    1.3349891663e+02   -7.3353400230e+00
    1.3359892273e+02   -7.3585801125e+00
    1.3369885254e+02   -7.3818697929e+00
    1.3379893494e+02   -7.4052700996e+00
    1.3389888000e+02   -7.4286999702e+00
    1.3399891663e+02   -7.4522099495e+00
    1.3409886169e+02   -7.4757699966e+00
    1.3419892883e+02   -7.4994301796e+00
    1.3429898071e+02   -7.5231499672e+00
    1.3439897156e+02   -7.5469098091e+00
    1.3449897766e+02   -7.5707502365e+00
    1.3459890747e+02   -7.5946397781e+00
    1.3469892883e+02   -7.6186099052e+00
    1.3479901123e+02   -7.6426701546e+00
    1.3489895630e+02   -7.6667599678e+00
    1.3499897766e+02   -7.6909298897e+00
    1.3509898376e+02   -7.7151699066e+00
    1.3519898987e+02   -7.7394700050e+00
    1.3529898071e+02   -7.7638401985e+00
    1.3539903259e+02   -7.7882900238e+00
    1.3549896240e+02   -7.8127698898e+00
    1.3559895325e+02   -7.8373298645e+00
    1.3569905090e+02   -7.8619799614e+00
    1.3579896545e+02   -7.8866500854e+00
    1.3589898682e+02   -7.9114298820e+00
    1.3599908447e+02   -7.9362897873e+00
    1.3609906006e+02   -7.9611902237e+00
    1.3619906616e+02   -7.9861698151e+00
    1.3629908752e+02   -8.0112104416e+00
    1.3639903259e+02   -8.0362997055e+00
    1.3649906921e+02   -8.0614795685e+00
    1.3659906006e+02   -8.0867204666e+00
    1.3669911194e+02   -8.1120500565e+00
    1.3679905701e+02   -8.1374197006e+00
    1.3689909363e+02   -8.1628999710e+00
    1.3699908447e+02   -8.1884298325e+00
    1.3709906006e+02   -8.2140197754e+00
    1.3719906616e+02   -8.2396802902e+00
    1.3729916382e+02   -8.2654304504e+00
    1.3739907837e+02   -8.2911996841e+00
    1.3749917603e+02   -8.3170795441e+00
    1.3759913635e+02   -8.3429899216e+00
    1.3769915771e+02   -8.3689804077e+00
    1.3779910278e+02   -8.3950195312e+00
    1.3789909363e+02   -8.4211301804e+00
    1.3799916077e+02   -8.4473304749e+00
    1.3809918213e+02   -8.4735603333e+00
    1.3819912720e+02   -8.4998302460e+00
    1.3829916382e+02   -8.5261802673e+00
    1.3839921570e+02   -8.5525798798e+00
    1.3849920654e+02   -8.5790300369e+00
    1.3859919739e+02   -8.6055297852e+00
    1.3869914246e+02   -8.6320800781e+00
    1.3879920959e+02   -8.6587295532e+00
    1.3889915466e+02   -8.6854000092e+00
    1.3899919128e+02   -8.7121696472e+00
    1.3909927368e+02   -8.7390098572e+00
    1.3919917297e+02   -8.7658596039e+00
    1.3929917908e+02   -8.7927999496e+00
    1.3939923096e+02   -8.8198099136e+00
    1.3949920654e+02   -8.8468599319e+00
    1.3959925842e+02   -8.8739900589e+00
    1.3969920349e+02   -8.9011497498e+00
    1.3979931641e+02   -8.9284000397e+00
    1.3989927673e+02   -8.9556798935e+00
    1.3999925232e+02   -8.9829998016e+00
    1.4009933472e+02   -9.0103998184e+00
    1.4019931030e+02   -9.0378398895e+00
    1.4029933167e+02   -9.0653400421e+00
    1.4039932251e+02   -9.0928897858e+00
    1.4049926758e+02   -9.1204900742e+00
    1.4059934998e+02   -9.1481800079e+00
    1.4069934082e+02   -9.1759099960e+00
    1.4079931641e+02   -9.2036895752e+00
    1.4089936829e+02   -9.2315397263e+00
    1.4099938965e+02   -9.2594499588e+00
    1.4109931946e+02   -9.2873897552e+00
    1.4119937134e+02   -9.3154296875e+00
    1.4129930115e+02   -9.3434896469e+00
    1.4139930725e+02   -9.3716497421e+00
    1.4149932861e+02   -9.3998699188e+00
    1.4159939575e+02   -9.4281597137e+00
    1.4169932556e+02   -9.4564800262e+00
    1.4179934692e+02   -9.4848699570e+00
    1.4189935303e+02   -9.5133104324e+00
    1.4199943542e+02   -9.5418300629e+00
    1.4209941101e+02   -9.5703897476e+00
    1.4219935608e+02   -9.5989999771e+00
    1.4229942322e+02   -9.6277103424e+00
    1.4239945984e+02   -9.6564702988e+00
    1.4249937439e+02   -9.6852598190e+00
    1.4259945679e+02   -9.7141599655e+00
    1.4269938660e+02   -9.7430601120e+00
    1.4279939270e+02   -9.7720499039e+00
    1.4289945984e+02   -9.8011102676e+00
    1.4299948120e+02   -9.8302297592e+00
    1.4309945679e+02   -9.8594102859e+00
    1.4319949341e+02   -9.8886699677e+00
    1.4329953003e+02   -9.9180202484e+00
    1.4339950562e+02   -9.9474296570e+00
    1.4349946594e+02   -9.9769096375e+00
    1.4359950256e+02   -1.0006500244e+01
    1.4369952393e+02   -1.0036100388e+01
    1.4379954529e+02   -1.0065799713e+01
    1.4389953613e+02   -1.0095600128e+01
    1.4399952698e+02   -1.0125399590e+01
    1.4409951782e+02   -1.0155300140e+01
    1.4419955444e+02   -1.0185199738e+01
    1.4429953003e+02   -1.0215200424e+01
    1.4439955139e+02   -1.0245300293e+01
    1.4449952698e+02   -1.0275500298e+01
    1.4459953308e+02   -1.0305700302e+01
    1.4469961548e+02   -1.0336000443e+01
    1.4479951477e+02   -1.0366299629e+01
    1.4489961243e+02   -1.0396800041e+01
    1.4499952698e+02   -1.0427300453e+01
    1.4509954834e+02   -1.0457799911e+01
    1.4519958496e+02   -1.0488499641e+01
    1.4529956055e+02   -1.0519100189e+01
    1.4539956665e+02   -1.0549900055e+01
    1.4549957275e+02   -1.0580699921e+01
    1.4559965515e+02   -1.0611599922e+01
    1.4569964600e+02   -1.0642600060e+01
    1.4579960632e+02   -1.0673600197e+01
    1.4589962769e+02   -1.0704700470e+01
    1.4599967957e+02   -1.0735899925e+01
    1.4609959412e+02   -1.0767100334e+01
    1.4619961548e+02   -1.0798299789e+01
    1.4629966736e+02   -1.0829700470e+01
    1.4639967346e+02   -1.0861100197e+01
    1.4649966431e+02   -1.0892600060e+01
    1.4659965515e+02   -1.0924099922e+01
    1.4669970703e+02   -1.0955800056e+01
    1.4679968262e+02   -1.0987500191e+01
    1.4689971924e+02   -1.1019200325e+01
    1.4699975586e+02   -1.1051099777e+01
    1.4709971619e+02   -1.1083000183e+01
    1.4719967651e+02   -1.1114999771e+01
    1.4729966736e+02   -1.1147000313e+01
    1.4739979553e+02   -1.1179100037e+01
    1.4749972534e+02   -1.1211199760e+01
    1.4759971619e+02   -1.1243499756e+01
    1.4769975281e+02   -1.1275799751e+01
    1.4779969788e+02   -1.1308099747e+01
    1.4789979553e+02   -1.1340499878e+01
    1.4799975586e+02   -1.1373000145e+01
    1.4809979248e+02   -1.1405500412e+01
    1.4819981384e+02   -1.1438099861e+01
    1.4829972839e+02   -1.1470700264e+01
    1.4839982605e+02   -1.1503399849e+01
    1.4849983215e+02   -1.1536100388e+01
    1.4859982300e+02   -1.1568900108e+01
    1.4869975281e+02   -1.1601699829e+01
    1.4879983521e+02   -1.1634599686e+01
    1.4889985657e+02   -1.1667599678e+01
    1.4899984741e+02   -1.1700599670e+01
    1.4909980774e+02   -1.1733699799e+01
    1.4919979858e+02   -1.1766799927e+01
    1.4929986572e+02   -1.1800000191e+01
    1.4939985657e+02   -1.1833299637e+01
    1.4949980164e+02   -1.1866600037e+01
    1.4959986877e+02   -1.1899900436e+01
    1.4969992065e+02   -1.1933400154e+01
    1.4979991150e+02   -1.1966799736e+01
    1.4989985657e+02   -1.2000300407e+01
    1.4999987793e+02   -1.2033900261e+01
    1.5009994507e+02   -1.2067500114e+01
    1.5019990540e+02   -1.2101099968e+01
    1.5029992676e+02   -1.2134799957e+01
    1.5039991760e+02   -1.2168600082e+01
    1.5049987793e+02   -1.2202300072e+01
    1.5059985352e+02   -1.2236200333e+01
    1.5069995117e+02   -1.2270099640e+01
    1.5079997253e+02   -1.2304100037e+01
    1.5089991760e+02   -1.2338100433e+01
    1.5099992371e+02   -1.2372099876e+01
    1.5110000610e+02   -1.2406299591e+01
    1.5119998169e+02   -1.2440400124e+01
    1.5129997253e+02   -1.2474599838e+01
    1.5140002441e+02   -1.2508899689e+01
    1.5149993896e+02   -1.2543199539e+01
    1.5160003662e+02   -1.2577699661e+01
    1.5169993591e+02   -1.2612099648e+01
    1.5179997253e+02   -1.2646599770e+01
    1.5189997864e+02   -1.2681099892e+01
    1.5200001526e+02   -1.2715700150e+01
    1.5209997559e+02   -1.2750300407e+01
    1.5219999695e+02   -1.2784999847e+01
    1.5230003357e+02   -1.2819800377e+01
    1.5239999390e+02   -1.2854599953e+01
    1.5249998474e+02   -1.2889399529e+01
    1.5260005188e+02   -1.2924400330e+01
    1.5270010376e+02   -1.2959400177e+01
    1.5280001831e+02   -1.2994299889e+01
    1.5290007019e+02   -1.3029399872e+01
    1.5300007629e+02   -1.3064499855e+01
    1.5310009766e+02   -1.3099699974e+01
    1.5320007324e+02   -1.3135000229e+01
    1.5330003357e+02   -1.3170299530e+01
    1.5340014648e+02   -1.3205699921e+01
    1.5350007629e+02   -1.3241100311e+01
    1.5360015869e+02   -1.3276700020e+01
    1.5370014954e+02   -1.3312299728e+01
    1.5380009460e+02   -1.3347900391e+01
    1.5390017700e+02   -1.3383600235e+01
    1.5400010681e+02   -1.3419400215e+01
    1.5410015869e+02   -1.3455200195e+01
    1.5420018005e+02   -1.3491100311e+01
    1.5430018616e+02   -1.3527000427e+01
    1.5440011597e+02   -1.3562999725e+01
    1.5450010681e+02   -1.3598999977e+01
    1.5460020447e+02   -1.3635199547e+01
    1.5470019531e+02   -1.3671400070e+01
    1.5480012512e+02   -1.3707599640e+01
    1.5490022278e+02   -1.3743900299e+01
    1.5500015259e+02   -1.3780200005e+01
    1.5510014343e+02   -1.3816599846e+01
    1.5520022583e+02   -1.3853099823e+01
    1.5530020142e+02   -1.3889599800e+01
    1.5540017700e+02   -1.3926199913e+01
    1.5550019836e+02   -1.3962900162e+01
    1.5560020447e+02   -1.3999600410e+01
    1.5570025635e+02   -1.4036399841e+01
    1.5580026245e+02   -1.4073200226e+01
    1.5590023804e+02   -1.4109999657e+01
    1.5600022888e+02   -1.4147000313e+01
    1.5610029602e+02   -1.4184000015e+01
    1.5620021057e+02   -1.4220999718e+01
    1.5630032349e+02   -1.4258099556e+01
    1.5640031433e+02   -1.4295299530e+01
    1.5650030518e+02   -1.4332500458e+01
    1.5660029602e+02   -1.4369700432e+01
    1.5670033264e+02   -1.4407099724e+01
    1.5680030823e+02   -1.4444399834e+01
    1.5690025330e+02   -1.4481900215e+01
    1.5700027466e+02   -1.4519399643e+01
    1.5710026550e+02   -1.4557000160e+01
    1.5720031738e+02   -1.4594599724e+01
    1.5730035400e+02   -1.4632300377e+01
    1.5740037537e+02   -1.4670100212e+01
    1.5750038147e+02   -1.4707799911e+01
    1.5760031128e+02   -1.4745699883e+01
    1.5770039368e+02   -1.4783599854e+01
    1.5780036926e+02   -1.4821499825e+01
    1.5790037537e+02   -1.4859499931e+01
    1.5800041199e+02   -1.4897600174e+01
    1.5810038757e+02   -1.4935600281e+01
    1.5820042419e+02   -1.4973799706e+01
    1.5830032349e+02   -1.5011899948e+01
    1.5840034485e+02   -1.5050100327e+01
    1.5850036621e+02   -1.5088399887e+01
    1.5860044861e+02   -1.5126700401e+01
    1.5870036316e+02   -1.5164999962e+01
    1.5880047607e+02   -1.5203399658e+01
    1.5890037537e+02   -1.5241800308e+01
    1.5900047302e+02   -1.5280300140e+01
    1.5910049438e+02   -1.5318900108e+01
    1.5920039368e+02   -1.5357399940e+01
    1.5930043030e+02   -1.5396100044e+01
    1.5940042114e+02   -1.5434700012e+01
    1.5950047302e+02   -1.5473400116e+01
    1.5960052490e+02   -1.5512200356e+01
    1.5970053101e+02   -1.5550999641e+01
    1.5980053711e+02   -1.5589799881e+01
    1.5990049744e+02   -1.5628700256e+01
    1.6000045776e+02   -1.5667599678e+01
    1.6010049438e+02   -1.5706600189e+01
    1.6020046997e+02   -1.5745499611e+01
    1.6030052185e+02   -1.5784600258e+01
    1.6040048218e+02   -1.5823599815e+01
    1.6050054932e+02   -1.5862799644e+01
    1.6060049438e+02   -1.5901900291e+01
    1.6070048523e+02   -1.5941100121e+01
    1.6080056763e+02   -1.5980299950e+01
    1.6090049744e+02   -1.6019599915e+01
    1.6100057983e+02   -1.6059000015e+01
    1.6110055542e+02   -1.6098300934e+01
    1.6120051575e+02   -1.6137699127e+01
    1.6130055237e+02   -1.6177200317e+01
    1.6140057373e+02   -1.6216699600e+01
    1.6150057983e+02   -1.6256299973e+01
    1.6160055542e+02   -1.6295799255e+01
    1.6170054626e+02   -1.6335500717e+01
    1.6180055237e+02   -1.6375200272e+01
    1.6190063477e+02   -1.6414899826e+01
    1.6200057983e+02   -1.6454700470e+01
    1.6210064697e+02   -1.6494499207e+01
    1.6220062256e+02   -1.6534299850e+01
    1.6230064392e+02   -1.6574199677e+01
    1.6240063477e+02   -1.6614200592e+01
    1.6250061035e+02   -1.6654199600e+01
    1.6260064697e+02   -1.6694200516e+01
    1.6270060730e+02   -1.6734300613e+01
    1.6280061340e+02   -1.6774400711e+01
    1.6290072632e+02   -1.6814599991e+01
    1.6300065613e+02   -1.6854799271e+01
    1.6310072327e+02   -1.6895000458e+01
    1.6320071411e+02   -1.6935400009e+01
    1.6330064392e+02   -1.6975700378e+01
    1.6340066528e+02   -1.7016099930e+01
    1.6350073242e+02   -1.7056600571e+01
    1.6360075378e+02   -1.7097200394e+01
    1.6370065308e+02   -1.7137699127e+01
    1.6380067444e+02   -1.7178400040e+01
    1.6390072632e+02   -1.7219100952e+01
    1.6400076294e+02   -1.7259799957e+01
    1.6410072327e+02   -1.7300500870e+01
    1.6420074463e+02   -1.7341400146e+01
    1.6430081177e+02   -1.7382200241e+01
    1.6440081787e+02   -1.7423200607e+01
    1.6450073242e+02   -1.7464099884e+01
    1.6460072327e+02   -1.7505100250e+01
    1.6470074463e+02   -1.7546199799e+01
    1.6480076599e+02   -1.7587299347e+01
    1.6490077209e+02   -1.7628400803e+01
    1.6500077820e+02   -1.7669599533e+01
    1.6510084534e+02   -1.7710899353e+01
    1.6520083618e+02   -1.7752199173e+01
    1.6530078125e+02   -1.7793500900e+01
    1.6540083313e+02   -1.7834899902e+01
    1.6550085449e+02   -1.7876300812e+01
    1.6560078430e+02   -1.7917800903e+01
    1.6570080566e+02   -1.7959299088e+01
    1.6580087280e+02   -1.8000900269e+01
    1.6590087891e+02   -1.8042600632e+01
    1.6600083923e+02   -1.8084199905e+01
    1.6610086060e+02   -1.8125999451e+01
    1.6620086670e+02   -1.8167699814e+01
    1.6630090332e+02   -1.8209499359e+01
    1.6640092468e+02   -1.8251399994e+01
    1.6650088501e+02   -1.8293300629e+01
    1.6660093689e+02   -1.8335300446e+01
    1.6670091248e+02   -1.8377199173e+01
    1.6680088806e+02   -1.8419300079e+01
    1.6690092468e+02   -1.8461399078e+01
    1.6700097656e+02   -1.8503599167e+01
    1.6710096741e+02   -1.8545799255e+01
    1.6720089722e+02   -1.8587999344e+01
    1.6730087280e+02   -1.8630300522e+01
    1.6740092468e+02   -1.8672700882e+01
    1.6750097656e+02   -1.8715099335e+01
    1.6760099792e+02   -1.8757499695e+01
    1.6770101929e+02   -1.8799999237e+01
    1.6780101013e+02   -1.8842500687e+01
    1.6790098572e+02   -1.8885000229e+01
    1.6800102234e+02   -1.8927600861e+01
    1.6810104370e+02   -1.8970199585e+01
    1.6820094299e+02   -1.9012899399e+01
    1.6830096436e+02   -1.9055599213e+01
    1.6840101624e+02   -1.9098300934e+01
    1.6850100708e+02   -1.9141000748e+01
    1.6860104370e+02   -1.9183799744e+01
    1.6870101929e+02   -1.9226600647e+01
    1.6880102539e+02   -1.9269500732e+01
    1.6890104675e+02   -1.9312400818e+01
    1.6900109863e+02   -1.9355400085e+01
    1.6910110474e+02   -1.9398399353e+01
    1.6920109558e+02   -1.9441400528e+01
    1.6930108643e+02   -1.9484399796e+01
    1.6940104675e+02   -1.9527500153e+01
    1.6950109863e+02   -1.9570699692e+01
    1.6960104370e+02   -1.9613800049e+01
    1.6970103455e+02   -1.9656999588e+01
    1.6980105591e+02   -1.9700199127e+01
    1.6990113831e+02   -1.9743499756e+01
    1.7000112915e+02   -1.9786800385e+01
    1.7010112000e+02   -1.9830099106e+01
    1.7020114136e+02   -1.9873399734e+01
    1.7030111694e+02   -1.9916799545e+01
    1.7040115356e+02   -1.9960199356e+01
    1.7050119019e+02   -2.0003599167e+01
    1.7060113525e+02   -2.0047000885e+01
    1.7070112610e+02   -2.0090499878e+01
    1.7080108643e+02   -2.0134000778e+01
    1.7090118408e+02   -2.0177600861e+01
    1.7100115967e+02   -2.0221200943e+01
    1.7110116577e+02   -2.0264900208e+01
    1.7120118713e+02   -2.0308500290e+01
    1.7130119324e+02   -2.0352199554e+01
    1.7140113831e+02   -2.0395999908e+01
    1.7150120544e+02   -2.0439800262e+01
    1.7160122681e+02   -2.0483600616e+01
    1.7170126343e+02   -2.0527500153e+01
    1.7180119324e+02   -2.0571300507e+01
    1.7190122986e+02   -2.0615200043e+01
    1.7200123596e+02   -2.0659200668e+01
    1.7210128784e+02   -2.0703199387e+01
    1.7220129395e+02   -2.0747200012e+01
    1.7230122375e+02   -2.0791200638e+01
    1.7240121460e+02   -2.0835300446e+01
    1.7250120544e+02   -2.0879400253e+01
    1.7260130310e+02   -2.0923599243e+01
    1.7270127869e+02   -2.0967699051e+01
    1.7280125427e+02   -2.1011899948e+01
    1.7290126038e+02   -2.1056200027e+01
    1.7300132751e+02   -2.1100500107e+01
    1.7310130310e+02   -2.1144800186e+01
    1.7320129395e+02   -2.1189199448e+01
    1.7330125427e+02   -2.1233600616e+01
    1.7340130615e+02   -2.1278099060e+01
    1.7350128174e+02   -2.1322700500e+01
    1.7360136414e+02   -2.1367300034e+01
    1.7370129395e+02   -2.1411899567e+01
    1.7380130005e+02   -2.1456499100e+01
    1.7390133667e+02   -2.1501199722e+01
    1.7400135803e+02   -2.1545999527e+01
    1.7410136414e+02   -2.1590700150e+01
    1.7420133972e+02   -2.1635499954e+01
    1.7430136108e+02   -2.1680400848e+01
    1.7440133667e+02   -2.1725299835e+01
    1.7450135803e+02   -2.1770299911e+01
    1.7460136414e+02   -2.1815299988e+01
    1.7470143127e+02   -2.1860399246e+01
    1.7480136108e+02   -2.1905399323e+01
    1.7490138245e+02   -2.1950500488e+01
    1.7500143433e+02   -2.1995700836e+01
    1.7510142517e+02   -2.2040899277e+01
    1.7520144653e+02   -2.2086200714e+01
    1.7530148315e+02   -2.2131500244e+01
    1.7540142822e+02   -2.2176799774e+01
    1.7550138855e+02   -2.2222200394e+01
    1.7560144043e+02   -2.2267599106e+01
    1.7570140076e+02   -2.2313100815e+01
    1.7580145264e+02   -2.2358600616e+01
    1.7590147400e+02   -2.2404199600e+01
    1.7600146484e+02   -2.2449699402e+01
    1.7610144043e+02   -2.2495300293e+01
    1.7620147705e+02   -2.2541000366e+01
    1.7630143738e+02   -2.2586700439e+01
    1.7640147400e+02   -2.2632499695e+01
    1.7650144958e+02   -2.2678199768e+01
    1.7660148621e+02   -2.2724000931e+01
    1.7670156860e+02   -2.2769899368e+01
    1.7680151367e+02   -2.2815799713e+01
    1.7690147400e+02   -2.2861700058e+01
    1.7700157166e+02   -2.2907800674e+01
    1.7710156250e+02   -2.2953800201e+01
    1.7720158386e+02   -2.2999900818e+01
    1.7730155945e+02   -2.3045999527e+01
    1.7740155029e+02   -2.3092100143e+01
    1.7750152588e+02   -2.3138299942e+01
    1.7760162354e+02   -2.3184600830e+01
    1.7770158386e+02   -2.3230800629e+01
    1.7780152893e+02   -2.3277000427e+01
    1.7790158081e+02   -2.3323400497e+01
    1.7800163269e+02   -2.3369699478e+01
    1.7810162354e+02   -2.3416099548e+01
    1.7820158386e+02   -2.3462499619e+01
    1.7830160522e+02   -2.3509000778e+01
    1.7840159607e+02   -2.3555400848e+01
    1.7850163269e+02   -2.3601900101e+01
    1.7860165405e+02   -2.3648500443e+01
    1.7870164490e+02   -2.3694999695e+01
    1.7880168152e+02   -2.3741600037e+01
    1.7890164185e+02   -2.3788200378e+01
    1.7900161743e+02   -2.3834899902e+01
    1.7910168457e+02   -2.3881599426e+01
    1.7920170593e+02   -2.3928300858e+01
    1.7930162048e+02   -2.3975000381e+01
    1.7940165710e+02   -2.4021799088e+01
    1.7950169373e+02   -2.4068700790e+01
    1.7960171509e+02   -2.4115499496e+01
    1.7970167542e+02   -2.4162399292e+01
    1.7980174255e+02   -2.4209299088e+01
    1.7990176392e+02   -2.4256200790e+01
    1.8000172424e+02   -2.4303100586e+01
    1.8010168457e+02   -2.4350099564e+01
    1.8020173645e+02   -2.4397100449e+01
    1.8030177307e+02   -2.4444200516e+01
    1.8040176392e+02   -2.4491199493e+01
    1.8050169373e+02   -2.4538200378e+01
    1.8060173035e+02   -2.4585300446e+01
    1.8070175171e+02   -2.4632499695e+01
    1.8080180359e+02   -2.4679599762e+01
    1.8090173340e+02   -2.4726800919e+01
    1.8100181580e+02   -2.4774000168e+01
    1.8110183716e+02   -2.4821300507e+01
    1.8120181274e+02   -2.4868600845e+01
    1.8130180359e+02   -2.4915899277e+01
    1.8140182495e+02   -2.4963199615e+01
    1.8150178528e+02   -2.5010599136e+01
    1.8160180664e+02   -2.5058000565e+01
    1.8170181274e+02   -2.5105499268e+01
    1.8180178833e+02   -2.5152900696e+01
    1.8190188599e+02   -2.5200500488e+01
    1.8200183105e+02   -2.5247999191e+01
    1.8210185242e+02   -2.5295499802e+01
    1.8220187378e+02   -2.5343099594e+01
    1.8230183411e+02   -2.5390699387e+01
    1.8240188599e+02   -2.5438299179e+01
    1.8250183105e+02   -2.5486000061e+01
    1.8260186768e+02   -2.5533700943e+01
    1.8270191956e+02   -2.5581399918e+01
    1.8280183411e+02   -2.5629100800e+01
    1.8290191650e+02   -2.5677000046e+01
    1.8300192261e+02   -2.5724800110e+01
    1.8310188293e+02   -2.5772600174e+01
    1.8320190430e+02   -2.5820499420e+01
    1.8330195618e+02   -2.5868499756e+01
    1.8340190125e+02   -2.5916400909e+01
    1.8350192261e+02   -2.5964500427e+01
    1.8360197449e+02   -2.6012599945e+01
    1.8370188904e+02   -2.6060600281e+01
    1.8380192566e+02   -2.6108699799e+01
    1.8390199280e+02   -2.6156900406e+01
    1.8400198364e+02   -2.6205099106e+01
    1.8410194397e+02   -2.6253299713e+01
    1.8420199585e+02   -2.6301599503e+01
    1.8430201721e+02   -2.6349899292e+01
    1.8440193176e+02   -2.6398099899e+01
    1.8450204468e+02   -2.6446500778e+01
    1.8460197449e+02   -2.6494899750e+01
    1.8470205688e+02   -2.6543300629e+01
    1.8480204773e+02   -2.6591699600e+01
    1.8490199280e+02   -2.6640199661e+01
    1.8500199890e+02   -2.6688600540e+01
    1.8510203552e+02   -2.6737199783e+01
    1.8520199585e+02   -2.6785699844e+01
    1.8530198669e+02   -2.6834299088e+01
    1.8540206909e+02   -2.6882900238e+01
    1.8550205994e+02   -2.6931499481e+01
    1.8560209656e+02   -2.6980199814e+01
    1.8570208740e+02   -2.7028900146e+01
    1.8580206299e+02   -2.7077600479e+01
    1.8590205383e+02   -2.7126300812e+01
    1.8600204468e+02   -2.7175100327e+01
    1.8610209656e+02   -2.7223800659e+01
    1.8620207214e+02   -2.7272600174e+01
    1.8630206299e+02   -2.7321399689e+01
    1.8640211487e+02   -2.7370300293e+01
    1.8650210571e+02   -2.7419099808e+01
    1.8660217285e+02   -2.7468000412e+01
    1.8670211792e+02   -2.7516899109e+01
    1.8680206299e+02   -2.7565799713e+01
    1.8690208435e+02   -2.7614799500e+01
    1.8700212097e+02   -2.7663799286e+01
    1.8710218811e+02   -2.7712900162e+01
    1.8720219421e+02   -2.7761999130e+01
    1.8730221558e+02   -2.7811100006e+01
    1.8740216064e+02   -2.7860099792e+01
    1.8750219727e+02   -2.7909299850e+01
    1.8760221863e+02   -2.7958400726e+01
    1.8770213318e+02   -2.8007499695e+01
    1.8780223083e+02   -2.8056699753e+01
    1.8790220642e+02   -2.8105899811e+01
    1.8800221252e+02   -2.8155099869e+01
    1.8810220337e+02   -2.8204399109e+01
    1.8820216370e+02   -2.8253599167e+01
    1.8830226135e+02   -2.8302900314e+01
    1.8840219116e+02   -2.8352199554e+01
    1.8850224304e+02   -2.8401500702e+01
    1.8860223389e+02   -2.8450799942e+01
    1.8870225525e+02   -2.8500200272e+01
    1.8880221558e+02   -2.8549499512e+01
    1.8890226746e+02   -2.8599000931e+01
    1.8900221252e+02   -2.8648300171e+01
    1.8910224915e+02   -2.8697799683e+01
    1.8920222473e+02   -2.8747299194e+01
    1.8930224609e+02   -2.8796699524e+01
    1.8940228271e+02   -2.8846200943e+01
    1.8950231934e+02   -2.8895700455e+01
    1.8960231018e+02   -2.8945199966e+01
    1.8970231628e+02   -2.8994699478e+01
    1.8980236816e+02   -2.9044200897e+01
    1.8990229797e+02   -2.9093700409e+01
    1.9000227356e+02   -2.9143199921e+01
    1.9010227966e+02   -2.9192600250e+01
    1.9020233154e+02   -2.9242200851e+01
    1.9030233765e+02   -2.9291700363e+01
    1.9040235901e+02   -2.9341199875e+01
    1.9050239563e+02   -2.9390699387e+01
    1.9060241699e+02   -2.9440200806e+01
    1.9070234680e+02   -2.9489599228e+01
    1.9080239868e+02   -2.9539100647e+01
    1.9090234375e+02   -2.9588600159e+01
    1.9100241089e+02   -2.9638099670e+01
    1.9110238647e+02   -2.9687599182e+01
    1.9120240784e+02   -2.9737100601e+01
    1.9130241394e+02   -2.9786600113e+01
    1.9140243530e+02   -2.9836200714e+01
    1.9150239563e+02   -2.9885700226e+01
    1.9160237122e+02   -2.9935199738e+01
    1.9170245361e+02   -2.9984699249e+01
    1.9180244446e+02   -3.0034299850e+01
    1.9190237427e+02   -3.0083700180e+01
    1.9200250244e+02   -3.0133300781e+01
    1.9210243225e+02   -3.0182800293e+01
    1.9220249939e+02   -3.0232299805e+01
    1.9230242920e+02   -3.0281700134e+01
    1.9240243530e+02   -3.0331199646e+01
    1.9250247192e+02   -3.0380699158e+01
    1.9260249329e+02   -3.0430200577e+01
    1.9270254517e+02   -3.0479600906e+01
    1.9280252075e+02   -3.0529100418e+01
    1.9290252686e+02   -3.0578500748e+01
    1.9300245667e+02   -3.0627899170e+01
    1.9310247803e+02   -3.0677299500e+01
    1.9320249939e+02   -3.0726699829e+01
    1.9330253601e+02   -3.0776100159e+01
    1.9340252686e+02   -3.0825500488e+01
    1.9350250244e+02   -3.0874799728e+01
    1.9360249329e+02   -3.0924200058e+01
    1.9370248413e+02   -3.0973499298e+01
    1.9380250549e+02   -3.1022800446e+01
    1.9390258789e+02   -3.1072200775e+01
    1.9400256348e+02   -3.1121400833e+01
    1.9410258484e+02   -3.1170700073e+01
    1.9420263672e+02   -3.1219999313e+01
    1.9430256653e+02   -3.1269199371e+01
    1.9440257263e+02   -3.1318500519e+01
[...]
    2.5130607605e+02   -4.8020698547e+01
    2.5140608215e+02   -4.8015499115e+01
    2.5150602722e+02   -4.8010200500e+01
    2.5160603333e+02   -4.8005001068e+01
    2.5170605469e+02   -4.7999801636e+01
    2.5180613708e+02   -4.7994598389e+01
    2.5190614319e+02   -4.7989398956e+01
    2.5200607300e+02   -4.7984298706e+01
    2.5210610962e+02   -4.7979198456e+01
    2.5220608521e+02   -4.7973999023e+01
    2.5230612183e+02   -4.7968898773e+01
    2.5240609741e+02   -4.7963901520e+01
    2.5250613403e+02   -4.7958801270e+01
    2.5260618591e+02   -4.7953800201e+01
    2.5270611572e+02   -4.7948799133e+01
    2.5280613708e+02   -4.7943901062e+01
    2.5290618896e+02   -4.7938999176e+01
    2.5300621033e+02   -4.7934101105e+01
    2.5310612488e+02   -4.7929298401e+01
    2.5320617676e+02   -4.7924499512e+01
    2.5330613708e+02   -4.7919799805e+01
    2.5340620422e+02   -4.7915199280e+01
    2.5350624084e+02   -4.7910701752e+01
    2.5360624695e+02   -4.7906200409e+01
    2.5370623779e+02   -4.7901798248e+01
    2.5380618286e+02   -4.7897499084e+01
    2.5390621948e+02   -4.7893299103e+01
    2.5400625610e+02   -4.7889099121e+01
    2.5410621643e+02   -4.7885101318e+01
    2.5420622253e+02   -4.7881099701e+01
    2.5430627441e+02   -4.7877201080e+01
    2.5440623474e+02   -4.7873401642e+01
    2.5450622559e+02   -4.7869701385e+01
    2.5460627747e+02   -4.7866001129e+01
    2.5470628357e+02   -4.7862499237e+01
    2.5480628967e+02   -4.7859001160e+01
    2.5490631104e+02   -4.7855598450e+01
    2.5500633240e+02   -4.7852298737e+01
    2.5510626221e+02   -4.7848999023e+01
    2.5520626831e+02   -4.7845798492e+01
    2.5530630493e+02   -4.7842601776e+01
    2.5540634155e+02   -4.7839500427e+01
    2.5550634766e+02   -4.7836399078e+01
    2.5560629272e+02   -4.7833301544e+01
    2.5570628357e+02   -4.7830200195e+01
    2.5580636597e+02   -4.7827098846e+01
    2.5590632629e+02   -4.7824100494e+01
    2.5600634766e+02   -4.7820999146e+01
    2.5610635376e+02   -4.7817901611e+01
    2.5620635986e+02   -4.7814899445e+01
    2.5630639648e+02   -4.7811798096e+01
    2.5640634155e+02   -4.7808700562e+01
    2.5650631714e+02   -4.7805500031e+01
    2.5660635376e+02   -4.7802398682e+01
    2.5670635986e+02   -4.7799198151e+01
    2.5680636597e+02   -4.7795898438e+01
    2.5690643311e+02   -4.7792701721e+01
    2.5700634766e+02   -4.7789398193e+01
    2.5710641479e+02   -4.7785999298e+01
    2.5720639038e+02   -4.7782600403e+01
    2.5730642700e+02   -4.7779201508e+01
    2.5740640259e+02   -4.7775699615e+01
    2.5750643921e+02   -4.7772201538e+01
    2.5760641479e+02   -4.7768699646e+01
    2.5770639038e+02   -4.7765098572e+01
    2.5780639648e+02   -4.7761501312e+01
    2.5790649414e+02   -4.7757900238e+01
    2.5800650024e+02   -4.7754199982e+01
    2.5810647583e+02   -4.7750598907e+01
    2.5820642090e+02   -4.7746898651e+01
    2.5830648804e+02   -4.7743198395e+01
    2.5840649414e+02   -4.7739601135e+01
    2.5850646973e+02   -4.7735900879e+01
    2.5860641479e+02   -4.7732299805e+01
    2.5870654297e+02   -4.7728698730e+01
    2.5880648804e+02   -4.7725101471e+01
    2.5890652466e+02   -4.7721500397e+01
    2.5900653076e+02   -4.7717899323e+01
    2.5910656738e+02   -4.7714401245e+01
    2.5920648193e+02   -4.7710899353e+01
    2.5930657959e+02   -4.7707401276e+01
    2.5940649414e+02   -4.7703899384e+01
    2.5950659180e+02   -4.7700401306e+01
    2.5960659790e+02   -4.7696899414e+01
    2.5970654297e+02   -4.7693401337e+01
    2.5980651855e+02   -4.7689800262e+01
    2.5990655518e+02   -4.7686199188e+01
    2.6000656128e+02   -4.7682598114e+01
    2.6010653687e+02   -4.7678901672e+01
    2.6020660400e+02   -4.7675201416e+01
    2.6030654907e+02   -4.7671398163e+01
    2.6040655518e+02   -4.7667499542e+01
    2.6050665283e+02   -4.7663600922e+01
    2.6060662842e+02   -4.7659599304e+01
    2.6070657349e+02   -4.7655498505e+01
    2.6080667114e+02   -4.7651401520e+01
    2.6090664673e+02   -4.7647201538e+01
    2.6100662231e+02   -4.7642898560e+01
    2.6110665894e+02   -4.7638599396e+01
    2.6120666504e+02   -4.7634101868e+01
    2.6130667114e+02   -4.7629501343e+01
    2.6140664673e+02   -4.7624900818e+01
    2.6150665283e+02   -4.7620098114e+01
    2.6160665894e+02   -4.7615299225e+01
    2.6170666504e+02   -4.7610298157e+01
    2.6180664062e+02   -4.7605300903e+01
    2.6190673828e+02   -4.7600101471e+01
    2.6200665283e+02   -4.7594898224e+01
    2.6210665894e+02   -4.7589500427e+01
    2.6220666504e+02   -4.7584098816e+01
    2.6230670166e+02   -4.7578498840e+01
    2.6240670776e+02   -4.7572898865e+01
    2.6250668335e+02   -4.7567199707e+01
    2.6260678101e+02   -4.7561298370e+01
    2.6270669556e+02   -4.7555400848e+01
    2.6280670166e+02   -4.7549400330e+01
    2.6290676880e+02   -4.7543201447e+01
    2.6300671387e+02   -4.7536998749e+01
    2.6310678101e+02   -4.7530700684e+01
    2.6320678711e+02   -4.7524299622e+01
    2.6330682373e+02   -4.7517799377e+01
    2.6340682983e+02   -4.7511199951e+01
    2.6350680542e+02   -4.7504501343e+01
    2.6360675049e+02   -4.7497699738e+01
    2.6370678711e+02   -4.7490798950e+01
    2.6380685425e+02   -4.7483898163e+01
    2.6390679932e+02   -4.7476799011e+01
    2.6400680542e+02   -4.7469600677e+01
    2.6410687256e+02   -4.7462299347e+01
    2.6420678711e+02   -4.7455001831e+01
    2.6430679321e+02   -4.7447498322e+01
    2.6440686035e+02   -4.7439899445e+01
    2.6450686646e+02   -4.7432201385e+01
    2.6460684204e+02   -4.7424400330e+01
    2.6470684814e+02   -4.7416500092e+01
    2.6480682373e+02   -4.7408500671e+01
    2.6490682983e+02   -4.7400299072e+01
    2.6500686646e+02   -4.7391998291e+01
    2.6510693359e+02   -4.7383598328e+01
    2.6520687866e+02   -4.7375000000e+01
    2.6530685425e+02   -4.7366199493e+01
    2.6540689087e+02   -4.7357299805e+01
    2.6550689697e+02   -4.7348201752e+01
    2.6560690308e+02   -4.7338901520e+01
    2.6570687866e+02   -4.7329399109e+01
    2.6580694580e+02   -4.7319801331e+01
    2.6590698242e+02   -4.7309898376e+01
    2.6600695801e+02   -4.7299800873e+01
    2.6610696411e+02   -4.7289501190e+01
    2.6620690918e+02   -4.7278999329e+01
    2.6630694580e+02   -4.7268299103e+01
    2.6640698242e+02   -4.7257400513e+01
    2.6650692749e+02   -4.7246299744e+01
    2.6660696411e+02   -4.7235000610e+01
    2.6670703125e+02   -4.7223400116e+01
    2.6680691528e+02   -4.7211700439e+01
    2.6690698242e+02   -4.7199798584e+01
    2.6700704956e+02   -4.7187698364e+01
    2.6710702515e+02   -4.7175399780e+01
    2.6720697021e+02   -4.7162899017e+01
    2.6730706787e+02   -4.7150199890e+01
    2.6740707397e+02   -4.7137298584e+01
    2.6750701904e+02   -4.7124198914e+01
    2.6760705566e+02   -4.7111000061e+01
    2.6770700073e+02   -4.7097499847e+01
    2.6780709839e+02   -4.7083900452e+01
    2.6790710449e+02   -4.7070098877e+01
    2.6800704956e+02   -4.7056198120e+01
    2.6810702515e+02   -4.7041999817e+01
    2.6820712280e+02   -4.7027698517e+01
    2.6830706787e+02   -4.7013198853e+01
    2.6840710449e+02   -4.6998500824e+01
    2.6850714111e+02   -4.6983600616e+01
    2.6860708618e+02   -4.6968601227e+01
    2.6870712280e+02   -4.6953399658e+01
    2.6880706787e+02   -4.6937999725e+01
    2.6890713501e+02   -4.6922401428e+01
    2.6900714111e+02   -4.6906600952e+01
    2.6910711670e+02   -4.6890598297e+01
    2.6920709229e+02   -4.6874500275e+01
    2.6930712891e+02   -4.6858100891e+01
    2.6940710449e+02   -4.6841598511e+01
    2.6950711060e+02   -4.6824798584e+01
    2.6960714722e+02   -4.6807800293e+01
    2.6970721436e+02   -4.6790599823e+01
    2.6980712891e+02   -4.6773200989e+01
    2.6990716553e+02   -4.6755500793e+01
    2.7000717163e+02   -4.6737598419e+01
    2.7010723877e+02   -4.6719501495e+01
    2.7020724487e+02   -4.6701099396e+01
    2.7030722046e+02   -4.6682498932e+01
    2.7040719604e+02   -4.6663600922e+01
    2.7050726318e+02   -4.6644500732e+01
    2.7060717773e+02   -4.6625198364e+01
    2.7070727539e+02   -4.6605598450e+01
    2.7080722046e+02   -4.6585800171e+01
    2.7090725708e+02   -4.6565700531e+01
    2.7100726318e+02   -4.6545299530e+01
    2.7110729980e+02   -4.6524700165e+01
    2.7120724487e+02   -4.6503799438e+01
    2.7130725098e+02   -4.6482700348e+01
    2.7140725708e+02   -4.6461299896e+01
    2.7150726318e+02   -4.6439601898e+01
    2.7160729980e+02   -4.6417598724e+01
    2.7170724487e+02   -4.6395500183e+01
    2.7180731201e+02   -4.6373001099e+01
    2.7190725708e+02   -4.6350399017e+01
    2.7200735474e+02   -4.6327400208e+01
    2.7210733032e+02   -4.6304298401e+01
    2.7220733643e+02   -4.6280899048e+01
    2.7230734253e+02   -4.6257301331e+01
    2.7240734863e+02   -4.6233398438e+01
    2.7250729370e+02   -4.6209400177e+01
    2.7260739136e+02   -4.6185100555e+01
    2.7270733643e+02   -4.6160598755e+01
    2.7280740356e+02   -4.6135898590e+01
    2.7290740967e+02   -4.6110900879e+01
    2.7300732422e+02   -4.6085800171e+01
    2.7310733032e+02   -4.6060398102e+01
    2.7320733643e+02   -4.6034900665e+01
    2.7330743408e+02   -4.6009101868e+01
    2.7340740967e+02   -4.5983100891e+01
    2.7350744629e+02   -4.5956901550e+01
    2.7360745239e+02   -4.5930500031e+01
    2.7370745850e+02   -4.5903900146e+01
    2.7380740356e+02   -4.5877101898e+01
    2.7390747070e+02   -4.5849998474e+01
    2.7400747681e+02   -4.5822799683e+01
    2.7410745239e+02   -4.5795299530e+01
    2.7420742798e+02   -4.5767700195e+01
    2.7430749512e+02   -4.5739799500e+01
    2.7440747070e+02   -4.5711700439e+01
    2.7450744629e+02   -4.5683399200e+01
    2.7460748291e+02   -4.5654899597e+01
    2.7470739746e+02   -4.5626201630e+01
    2.7480749512e+02   -4.5597198486e+01
    2.7490753174e+02   -4.5568099976e+01
    2.7500747681e+02   -4.5538700104e+01
    2.7510745239e+02   -4.5509101868e+01
    2.7520751953e+02   -4.5479301453e+01
    2.7530749512e+02   -4.5449298859e+01
    2.7540756226e+02   -4.5418998718e+01
    2.7550747681e+02   -4.5388599396e+01
    2.7560754395e+02   -4.5357799530e+01
    2.7570755005e+02   -4.5326900482e+01
    2.7580752563e+02   -4.5295700073e+01
    2.7590750122e+02   -4.5264400482e+01
    2.7600753784e+02   -4.5232700348e+01
    2.7610751343e+02   -4.5200901031e+01
    2.7620755005e+02   -4.5168800354e+01
    2.7630755615e+02   -4.5136501312e+01
    2.7640759277e+02   -4.5104000092e+01
    2.7650762939e+02   -4.5071300507e+01
    2.7660754395e+02   -4.5038398743e+01
    2.7670755005e+02   -4.5005298615e+01
    2.7680761719e+02   -4.4972000122e+01
    2.7690762329e+02   -4.4938499451e+01
    2.7700765991e+02   -4.4904800415e+01
    2.7710760498e+02   -4.4870899200e+01
    2.7720761108e+02   -4.4836799622e+01
    2.7730761719e+02   -4.4802600861e+01
    2.7740759277e+02   -4.4768199921e+01
    2.7750769043e+02   -4.4733600616e+01
    2.7760766602e+02   -4.4698898315e+01
    2.7770770264e+02   -4.4664001465e+01
    2.7780770874e+02   -4.4629001617e+01
    2.7790771484e+02   -4.4593799591e+01
    2.7800772095e+02   -4.4558498383e+01
    2.7810772705e+02   -4.4523101807e+01
    2.7820773315e+02   -4.4487499237e+01
    2.7830770874e+02   -4.4451698303e+01
    2.7840774536e+02   -4.4415798187e+01
    2.7850769043e+02   -4.4379798889e+01
    2.7860772705e+02   -4.4343601227e+01
    2.7870770264e+02   -4.4307300568e+01
    2.7880770874e+02   -4.4270900726e+01
    2.7890771484e+02   -4.4234298706e+01
    2.7900778198e+02   -4.4197498322e+01
    2.7910772705e+02   -4.4160598755e+01
    2.7920770264e+02   -4.4123500824e+01
    2.7930776978e+02   -4.4086299896e+01
    2.7940771484e+02   -4.4048900604e+01
    2.7950781250e+02   -4.4011299133e+01
    2.7960772705e+02   -4.3973598480e+01
    2.7970773315e+02   -4.3935699463e+01
    2.7980780029e+02   -4.3897598267e+01
    2.7990774536e+02   -4.3859298706e+01
    2.8000778198e+02   -4.3820899963e+01
    2.8010781860e+02   -4.3782299042e+01
    2.8020776367e+02   -4.3743598938e+01
    2.8030786133e+02   -4.3704601288e+01
    2.8040777588e+02   -4.3665599823e+01
    2.8050778198e+02   -4.3626300812e+01
    2.8060781860e+02   -4.3586898804e+01
    2.8070779419e+02   -4.3547401428e+01
    2.8080786133e+02   -4.3507701874e+01
    2.8090789795e+02   -4.3467899323e+01
    2.8100790405e+02   -4.3427898407e+01
    2.8110781860e+02   -4.3387798309e+01
    2.8120782471e+02   -4.3347599030e+01
    2.8130789185e+02   -4.3307201385e+01
    2.8140789795e+02   -4.3266700745e+01
    2.8150790405e+02   -4.3226100922e+01
    2.8160794067e+02   -4.3185298920e+01
    2.8170785522e+02   -4.3144500732e+01
    2.8180795288e+02   -4.3103599548e+01
    2.8190792847e+02   -4.3062500000e+01
    2.8200796509e+02   -4.3021400452e+01
    2.8210794067e+02   -4.2980201721e+01
    2.8220785522e+02   -4.2938899994e+01
    2.8230792236e+02   -4.2897499084e+01
    2.8240792847e+02   -4.2855998993e+01
    2.8250790405e+02   -4.2814399719e+01
    2.8260791016e+02   -4.2772800446e+01
    2.8270800781e+02   -4.2730998993e+01
    2.8280798340e+02   -4.2689300537e+01
    2.8290795898e+02   -4.2647399902e+01
    2.8300799561e+02   -4.2605499268e+01
    2.8310797119e+02   -4.2563499451e+01
    2.8320794678e+02   -4.2521400452e+01
    2.8330798340e+02   -4.2479301453e+01
    2.8340805054e+02   -4.2437099457e+01
    2.8350799561e+02   -4.2394798279e+01
    2.8360797119e+02   -4.2352500916e+01
    2.8370803833e+02   -4.2310001373e+01
    2.8380807495e+02   -4.2267501831e+01
    2.8390805054e+02   -4.2224899292e+01
    2.8400808716e+02   -4.2182300568e+01
    2.8410806274e+02   -4.2139499664e+01
    2.8420803833e+02   -4.2096698761e+01
    2.8430807495e+02   -4.2053798676e+01
    2.8440811157e+02   -4.2010898590e+01
    2.8450811768e+02   -4.1967800140e+01
    2.8460812378e+02   -4.1924701691e+01
    2.8470806885e+02   -4.1881599426e+01
    2.8480810547e+02   -4.1838298798e+01
    2.8490805054e+02   -4.1795101166e+01
    2.8500805664e+02   -4.1751701355e+01
    2.8510815430e+02   -4.1708198547e+01
    2.8520809937e+02   -4.1664699554e+01
    2.8530807495e+02   -4.1621101379e+01
    2.8540814209e+02   -4.1577301025e+01
    2.8550817871e+02   -4.1533599854e+01
    2.8560809326e+02   -4.1489799500e+01
    2.8570816040e+02   -4.1445899963e+01
    2.8580816650e+02   -4.1401901245e+01
    2.8590820312e+02   -4.1357898712e+01
    2.8600820923e+02   -4.1313899994e+01
    2.8610815430e+02   -4.1269901276e+01
    2.8620812988e+02   -4.1225799561e+01
    2.8630819702e+02   -4.1181598663e+01
    2.8640820312e+02   -4.1137401581e+01
    2.8650814819e+02   -4.1093299866e+01
    2.8660818481e+02   -4.1048999786e+01
    2.8670816040e+02   -4.1004798889e+01
    2.8680816650e+02   -4.0960601807e+01
    2.8690817261e+02   -4.0916301727e+01
    2.8700823975e+02   -4.0872001648e+01
    2.8710824585e+02   -4.0827800751e+01
    2.8720822144e+02   -4.0783500671e+01
    2.8730822754e+02   -4.0739299774e+01
    2.8740820312e+02   -4.0695098877e+01
    2.8750820923e+02   -4.0650901794e+01
    2.8760818481e+02   -4.0606700897e+01
    2.8770822144e+02   -4.0562500000e+01
    2.8780831909e+02   -4.0518199921e+01
    2.8790832520e+02   -4.0473999023e+01
    2.8800830078e+02   -4.0429798126e+01
    2.8810827637e+02   -4.0385601044e+01
    2.8820825195e+02   -4.0341400146e+01
    2.8830825806e+02   -4.0297100067e+01
    2.8840832520e+02   -4.0252799988e+01
    2.8850830078e+02   -4.0208599091e+01
    2.8860836792e+02   -4.0164199829e+01
    2.8870831299e+02   -4.0119899750e+01
    2.8880831909e+02   -4.0075599670e+01
    2.8890838623e+02   -4.0031101227e+01
    2.8900830078e+02   -3.9986801147e+01
    2.8910833740e+02   -3.9942298889e+01
    2.8920837402e+02   -3.9897800446e+01
    2.8930831909e+02   -3.9853298187e+01
    2.8940841675e+02   -3.9808700562e+01
    2.8950833130e+02   -3.9764099121e+01
    2.8960836792e+02   -3.9719398499e+01
    2.8970837402e+02   -3.9674800873e+01
    2.8980841064e+02   -3.9630100250e+01
    2.8990841675e+02   -3.9585300446e+01
    2.9000839233e+02   -3.9540599823e+01
    2.9010842896e+02   -3.9495800018e+01
    2.9020846558e+02   -3.9451099396e+01
    2.9030838013e+02   -3.9406299591e+01
    2.9040838623e+02   -3.9361499786e+01
    2.9050845337e+02   -3.9316799164e+01
    2.9060848999e+02   -3.9271999359e+01
    2.9070849609e+02   -3.9227199554e+01
    2.9080850220e+02   -3.9182498932e+01
    2.9090850830e+02   -3.9137699127e+01
    2.9100848389e+02   -3.9092998505e+01
    2.9110852051e+02   -3.9048301697e+01
    2.9120846558e+02   -3.9003601074e+01
    2.9130850220e+02   -3.8958999634e+01
    2.9140853882e+02   -3.8914398193e+01
    2.9150845337e+02   -3.8869899750e+01
    2.9160852051e+02   -3.8825401306e+01
    2.9170852661e+02   -3.8780899048e+01
    2.9180853271e+02   -3.8736499786e+01
    2.9190856934e+02   -3.8692100525e+01
    2.9200854492e+02   -3.8647800446e+01
    2.9210858154e+02   -3.8603500366e+01
    2.9220852661e+02   -3.8559299469e+01
    2.9230853271e+02   -3.8515201569e+01
    2.9240856934e+02   -3.8471000671e+01
    2.9250857544e+02   -3.8426898956e+01
    2.9260855103e+02   -3.8382801056e+01
    2.9270852661e+02   -3.8338798523e+01
    2.9280856323e+02   -3.8294799805e+01
    2.9290856934e+02   -3.8250801086e+01
    2.9300863647e+02   -3.8206798553e+01
    2.9310858154e+02   -3.8162899017e+01
    2.9320861816e+02   -3.8118900299e+01
    2.9330859375e+02   -3.8075000763e+01
    2.9340863037e+02   -3.8030998230e+01
    2.9350863647e+02   -3.7987098694e+01
    2.9360861206e+02   -3.7943099976e+01
    2.9370858765e+02   -3.7899101257e+01
    2.9380862427e+02   -3.7855098724e+01
    2.9390869141e+02   -3.7811000824e+01
    2.9400866699e+02   -3.7766998291e+01
    2.9410870361e+02   -3.7722900391e+01
    2.9420861816e+02   -3.7678798676e+01
    2.9430868530e+02   -3.7634700775e+01
    2.9440869141e+02   -3.7590599060e+01
    2.9450866699e+02   -3.7546501160e+01
    2.9460867310e+02   -3.7502399445e+01
    2.9470874023e+02   -3.7458198547e+01
    2.9480865479e+02   -3.7414100647e+01
    2.9490872192e+02   -3.7369998932e+01
    2.9500872803e+02   -3.7326000214e+01
    2.9510876465e+02   -3.7281898499e+01
    2.9520870972e+02   -3.7237899780e+01
    2.9530874634e+02   -3.7193801880e+01
    2.9540872192e+02   -3.7149799347e+01
    2.9550872803e+02   -3.7105899811e+01
    2.9560879517e+02   -3.7061901093e+01
    2.9570874023e+02   -3.7018001556e+01
    2.9580868530e+02   -3.6974201202e+01
    2.9590881348e+02   -3.6930301666e+01
    2.9600872803e+02   -3.6886600494e+01
    2.9610879517e+02   -3.6842800140e+01
    2.9620874023e+02   -3.6799098969e+01
    2.9630874634e+02   -3.6755401611e+01
    2.9640881348e+02   -3.6711799622e+01
    2.9650875854e+02   -3.6668201447e+01
    2.9660879517e+02   -3.6624599457e+01
    2.9670880127e+02   -3.6581001282e+01
    2.9680880737e+02   -3.6537498474e+01
    2.9690887451e+02   -3.6493900299e+01
    2.9700888062e+02   -3.6450401306e+01
    2.9710885620e+02   -3.6406898499e+01
    2.9720886230e+02   -3.6363399506e+01
    2.9730886841e+02   -3.6319900513e+01
    2.9740881348e+02   -3.6276401520e+01
    2.9750891113e+02   -3.6232799530e+01
    2.9760888672e+02   -3.6189300537e+01
    2.9770883179e+02   -3.6145801544e+01
    2.9780889893e+02   -3.6102199554e+01
    2.9790890503e+02   -3.6058601379e+01
    2.9800888062e+02   -3.6014999390e+01
    2.9810885620e+02   -3.5971401215e+01
    2.9820889282e+02   -3.5927700043e+01
    2.9830889893e+02   -3.5883998871e+01
    2.9840893555e+02   -3.5840198517e+01
    2.9850891113e+02   -3.5796398163e+01
    2.9860894775e+02   -3.5752601624e+01
    2.9870898438e+02   -3.5708801270e+01
    2.9880899048e+02   -3.5664901733e+01
    2.9890896606e+02   -3.5620998383e+01
    2.9900900269e+02   -3.5577098846e+01
    2.9910900879e+02   -3.5533100128e+01
    2.9920895386e+02   -3.5489200592e+01
    2.9930899048e+02   -3.5445098877e+01
    2.9940896606e+02   -3.5401100159e+01
    2.9950894165e+02   -3.5356998444e+01
    2.9960900879e+02   -3.5312900543e+01
    2.9970895386e+02   -3.5268798828e+01
    2.9980895996e+02   -3.5224700928e+01
    2.9990899658e+02   -3.5180599213e+01
endcurve
