Curveplot
LS-DYNA keyword deck by LS-PrePost
Abscissa
Ordinate
XY data
CHOP_NASZ_mo-1 #pts=3000
* Minval=    -1.3213499451e+02 at time=       239.1052856445
* Maxval=     1.2565799989e-03 at time=         9.7999353409
    0.0000000000e+00    0.0000000000e+00
    9.9943503737e-02    1.1381599482e-37
    1.9988700747e-01    1.6398300419e-30
    2.9994606972e-01    3.9364699047e-25
    3.9988955855e-01    9.4124898058e-21
    4.9994862080e-01    1.9469399708e-17
    5.9989213943e-01    4.5163699169e-13
    6.9991886616e-01    6.0548501324e-08
    7.9997789860e-01    1.2934000324e-06
    8.9992153645e-01    3.4501199480e-06
    9.9998134375e-01    4.7661601457e-06
    1.0999338627e+00    5.2160899031e-06
    1.1999901533e+00    5.8548798734e-06
    1.2999490499e+00    6.9598199843e-06
    1.3999032974e+00    8.0753598013e-06
    1.4998972416e+00    8.8882798082e-06
    1.5999922752e+00    9.8241298474e-06
    1.6998958588e+00    1.0992500393e-05
    1.7999031544e+00    1.2603300092e-05
    1.8999958038e+00    1.4130900126e-05
    1.9998879433e+00    1.5678600903e-05
    2.0999808311e+00    1.7668999135e-05
    2.1999180317e+00    1.9718700059e-05
    2.2999393940e+00    2.1740799639e-05
    2.3999960423e+00    2.4123299227e-05
    2.4999492168e+00    2.6497100407e-05
    2.5999567509e+00    2.8861999454e-05
    2.6999063492e+00    3.1381201552e-05
    2.7999629974e+00    3.4281099943e-05
    2.8999724388e+00    3.8096000935e-05
    2.9999170303e+00    4.3427000492e-05
    3.0998952389e+00    5.0676499086e-05
    3.1999557018e+00    5.9896599851e-05
    3.2999453545e+00    7.1141403168e-05
    3.3999445438e+00    8.3922401245e-05
    3.4998834133e+00    9.7980599094e-05
    3.5999081135e+00    1.1306200031e-04
    3.6999166012e+00    1.2906199845e-04
    3.7999978065e+00    1.4590600040e-04
    3.8999550343e+00    1.6349699581e-04
    3.9999179840e+00    1.8199099577e-04
    4.0999603271e+00    2.0105599833e-04
    4.1999402046e+00    2.2049200197e-04
    4.2999968529e+00    2.3993500508e-04
    4.3999152184e+00    2.5933000143e-04
    4.4999217987e+00    2.7892200160e-04
    4.5999255180e+00    2.9895699117e-04
    4.6999697685e+00    3.1926701195e-04
    4.7999444008e+00    3.3982199966e-04
    4.8998894691e+00    3.6084701424e-04
    4.9999098778e+00    3.8184999721e-04
    5.0999464989e+00    4.0265999269e-04
    5.1998920441e+00    4.2347400449e-04
    5.2999529839e+00    4.4472000445e-04
    5.3999128342e+00    4.6608800767e-04
    5.4998979568e+00    4.8758700723e-04
    5.5998950005e+00    5.0935702166e-04
    5.6999144554e+00    5.3119700169e-04
    5.7999897003e+00    5.5298802909e-04
    5.8999600410e+00    5.7468097657e-04
    5.9998917580e+00    5.9655599762e-04
    6.0999193192e+00    6.1864499003e-04
    6.1998848915e+00    6.4104999183e-04
    6.2999567986e+00    6.6365202656e-04
    6.3999934196e+00    6.8635097705e-04
    6.4999384880e+00    7.0912297815e-04
    6.5999288559e+00    7.3172402335e-04
    6.6999893188e+00    7.5410801219e-04
    6.7999343872e+00    7.7662500553e-04
    6.8999943733e+00    7.9942098819e-04
    6.9999389648e+00    8.2238100003e-04
    7.0999641418e+00    8.4514101036e-04
    7.1999254227e+00    8.6768099573e-04
    7.2999334335e+00    8.8991702069e-04
    7.3999934196e+00    9.1181497555e-04
    7.4999380112e+00    9.3373801792e-04
    7.5998821259e+00    9.5566199161e-04
    7.6999416351e+00    9.7751605790e-04
    7.7998857498e+00    9.9942204542e-04
    7.8999204636e+00    1.0208300082e-03
    7.9999794960e+00    1.0411300464e-03
    8.0999231339e+00    1.0600499809e-03
    8.1999826431e+00    1.0781700257e-03
    8.2999277115e+00    1.0954500176e-03
    8.3999128342e+00    1.1118600378e-03
    8.4999303818e+00    1.1278799502e-03
    8.5999898911e+00    1.1436099885e-03
    8.6999330521e+00    1.1586700566e-03
    8.7999925613e+00    1.1728300015e-03
    8.8999776840e+00    1.1865899432e-03
    8.9999942780e+00    1.1995900422e-03
    9.0999450684e+00    1.2117000297e-03
    9.1999521255e+00    1.2227999978e-03
    9.2999505997e+00    1.2329400051e-03
    9.3999404907e+00    1.2415599776e-03
    9.4999961853e+00    1.2480299920e-03
    9.5999526978e+00    1.2526200153e-03
    9.6999683380e+00    1.2555900030e-03
    9.7999353409e+00    1.2565799989e-03
    9.8998928070e+00    1.2558799936e-03
    9.9999876022e+00    1.2536899885e-03
    1.0099958420e+01    1.2499899603e-03
    1.0199951172e+01    1.2446399778e-03
    1.0299942017e+01    1.2374200160e-03
    1.0399952888e+01    1.2285100529e-03
    1.0499897003e+01    1.2184299994e-03
    1.0599957466e+01    1.2074200204e-03
    1.0699904442e+01    1.1953900103e-03
    1.0799961090e+01    1.1824499816e-03
    1.0899909019e+01    1.1687000515e-03
    1.0999910355e+01    1.1538800318e-03
    1.1099945068e+01    1.1377099436e-03
    1.1199939728e+01    1.1204100447e-03
    1.1299942970e+01    1.1023000116e-03
    1.1399915695e+01    1.0832799599e-03
    1.1499931335e+01    1.0632999474e-03
    1.1599934578e+01    1.0425699875e-03
    1.1699994087e+01    1.0205300059e-03
    1.1799940109e+01    9.9739804864e-04
    1.1899902344e+01    9.7311602440e-04
    1.1999979019e+01    9.4808102585e-04
    1.2099975586e+01    9.2241802486e-04
    1.2199962616e+01    8.9617999038e-04
    1.2299979210e+01    8.6914002895e-04
    1.2399989128e+01    8.4090098972e-04
    1.2499971390e+01    8.1133999629e-04
    1.2599919319e+01    7.7999400673e-04
    1.2699973106e+01    7.4719300028e-04
    1.2799924850e+01    7.1364000905e-04
    1.2899955750e+01    6.8046699744e-04
    1.2999900818e+01    6.4816902159e-04
    1.3099960327e+01    6.1726901913e-04
    1.3199974060e+01    5.8790901676e-04
    1.3299920082e+01    5.5947300280e-04
    1.3399931908e+01    5.3139898228e-04
    1.3499981880e+01    5.0334498519e-04
    1.3600008011e+01    4.7544200788e-04
    1.3699955940e+01    4.4734700350e-04
    1.3799983025e+01    4.1917999624e-04
    1.3899989128e+01    3.9082698640e-04
    1.3999917030e+01    3.6188701051e-04
    1.4099946976e+01    3.3203500789e-04
    1.4199905396e+01    3.0081599834e-04
    1.4299902916e+01    2.6836100733e-04
    1.4399912834e+01    2.3543799762e-04
    1.4499910355e+01    2.0206600311e-04
    1.4599992752e+01    1.6796900309e-04
    1.4699989319e+01    1.3329299691e-04
    1.4799990654e+01    9.8020500445e-05
    1.4899990082e+01    6.1302700487e-05
    1.4999965668e+01    2.3113099815e-05
    1.5099946976e+01   -1.6407699150e-05
    1.5199919701e+01   -5.6898199546e-05
    1.5299959183e+01   -9.8532400443e-05
    1.5399922371e+01   -1.4120400010e-04
    1.5499902725e+01   -1.8498000281e-04
    1.5599949837e+01   -2.3029399745e-04
    1.5700012207e+01   -2.7677099570e-04
    1.5799957275e+01   -3.2419300987e-04
    1.5900018692e+01   -3.7245100248e-04
    1.5999963760e+01   -4.2112398660e-04
    1.6099910736e+01   -4.6984199435e-04
    1.6199977875e+01   -5.1865400746e-04
    1.6299922943e+01   -5.6751200464e-04
    1.6399934769e+01   -6.1680801446e-04
    1.6500015259e+01   -6.6679302836e-04
    1.6599981308e+01   -7.1763800224e-04
    1.6699926376e+01   -7.6908798655e-04
    1.6799987793e+01   -8.2076899707e-04
    1.6899959564e+01   -8.7295001140e-04
    1.7000011444e+01   -9.2611199943e-04
    1.7099922180e+01   -9.8047999199e-04
    1.7199920654e+01   -1.0364700574e-03
    1.7299938202e+01   -1.0943199741e-03
    1.7400020599e+01   -1.1539399857e-03
    1.7499965668e+01   -1.2147099478e-03
    1.7600025177e+01   -1.2762900442e-03
    1.7699996948e+01   -1.3386800420e-03
    1.7799940109e+01   -1.4026899589e-03
    1.7899919510e+01   -1.4687899966e-03
    1.8000017166e+01   -1.5376700321e-03
    1.8099939346e+01   -1.6095100436e-03
    1.8199924469e+01   -1.6844699858e-03
    1.8299953461e+01   -1.7621200532e-03
    1.8399957657e+01   -1.8418499967e-03
    1.8499948502e+01   -1.9235400250e-03
    1.8599931717e+01   -2.0072800107e-03
    1.8699991226e+01   -2.0932198968e-03
    1.8799934387e+01   -2.1809299942e-03
    1.8899972916e+01   -2.2708999459e-03
    1.8999963760e+01   -2.3629399948e-03
    1.9099973679e+01   -2.4576899596e-03
    1.9199996948e+01   -2.5553801097e-03
    1.9299995422e+01   -2.6560300030e-03
    1.9399946213e+01   -2.7603299823e-03
    1.9499996185e+01   -2.8688800521e-03
    1.9599994659e+01   -2.9815500602e-03
    1.9699935913e+01   -3.0982799362e-03
    1.9799968719e+01   -3.2192498911e-03
    1.9899974823e+01   -3.3438201062e-03
    1.9999952316e+01   -3.4720599651e-03
    2.0099998474e+01   -3.6041201092e-03
    2.0200006485e+01   -3.7400999572e-03
    2.0299951553e+01   -3.8797599263e-03
    2.0400009155e+01   -4.0229097940e-03
    2.0499977112e+01   -4.1696201079e-03
    2.0600036621e+01   -4.3204501271e-03
    2.0699979782e+01   -4.4742701575e-03
    2.0800039291e+01   -4.6314601786e-03
    2.0899959564e+01   -4.7924499959e-03
    2.0999990463e+01   -4.9575599842e-03
    2.1100013733e+01   -5.1262797788e-03
    2.1199977875e+01   -5.2988701500e-03
    2.1299930573e+01   -5.4752198048e-03
    2.1399942398e+01   -5.6552598253e-03
    2.1499925613e+01   -5.8383001015e-03
    2.1600021362e+01   -6.0246298090e-03
    2.1699964523e+01   -6.2143001705e-03
    2.1800018311e+01   -6.4073298126e-03
    2.1899980545e+01   -6.6037699580e-03
    2.1999937057e+01   -6.8036201410e-03
    2.2100044250e+01   -7.0071299560e-03
    2.2199974060e+01   -7.2135501541e-03
    2.2300033569e+01   -7.4237901717e-03
    2.2399976730e+01   -7.6378597878e-03
    2.2499940872e+01   -7.8571196645e-03
    2.2599935532e+01   -8.0821495503e-03
    2.2699979782e+01   -8.3127804101e-03
    2.2799964905e+01   -8.5482504219e-03
    2.2900024414e+01   -8.7878098711e-03
    2.2999969482e+01   -9.0302601457e-03
    2.3100027084e+01   -9.2752398923e-03
    2.3199935913e+01   -9.5215896145e-03
    2.3300001144e+01   -9.7704799846e-03
    2.3400028229e+01   -1.0022399947e-02
    2.3500007629e+01   -1.0277800262e-02
    2.3599969864e+01   -1.0537100025e-02
    2.3700029373e+01   -1.0800500400e-02
    2.3799972534e+01   -1.1067599989e-02
    2.3899986267e+01   -1.1339000426e-02
    2.4000022888e+01   -1.1614000425e-02
    2.4099994659e+01   -1.1892699637e-02
    2.4200017929e+01   -1.2176199816e-02
    2.4300050735e+01   -1.2463900261e-02
    2.4399963379e+01   -1.2755000032e-02
    2.4500024796e+01   -1.3050099835e-02
    2.4599969864e+01   -1.3348899782e-02
    2.4699968338e+01   -1.3651500456e-02
    2.4799945831e+01   -1.3957999647e-02
    2.4900024414e+01   -1.4269799925e-02
    2.4999944687e+01   -1.4586799778e-02
    2.5099998474e+01   -1.4909699559e-02
    2.5199951172e+01   -1.5237299725e-02
    2.5299957275e+01   -1.5570400283e-02
    2.5400018692e+01   -1.5908300877e-02
    2.5500009537e+01   -1.6250200570e-02
    2.5599958420e+01   -1.6596000642e-02
    2.5700046539e+01   -1.6946999356e-02
    2.5800046921e+01   -1.7302399501e-02
    2.5899991989e+01   -1.7661599442e-02
    2.6000051498e+01   -1.8025400117e-02
    2.6099996567e+01   -1.8392499536e-02
    2.6199958801e+01   -1.8762599677e-02
    2.6299968719e+01   -1.9135799259e-02
    2.6400060654e+01   -1.9513299689e-02
    2.6500003815e+01   -1.9894799218e-02
    2.6600051880e+01   -2.0281199366e-02
    2.6700040817e+01   -2.0671999082e-02
    2.6800010681e+01   -2.1067000926e-02
    2.6899951935e+01   -2.1466100588e-02
    2.6999990463e+01   -2.1869700402e-02
    2.7100057602e+01   -2.2277999669e-02
    2.7200048447e+01   -2.2691799328e-02
    2.7299993515e+01   -2.3111099377e-02
    2.7400066376e+01   -2.3536199704e-02
    2.7500011444e+01   -2.3966100067e-02
    2.7600004196e+01   -2.4400800467e-02
    2.7699985504e+01   -2.4839699268e-02
    2.7800041199e+01   -2.5283500552e-02
    2.7899955750e+01   -2.5732200593e-02
    2.8000005722e+01   -2.6188500226e-02
    2.8100065231e+01   -2.6652399451e-02
    2.8199958801e+01   -2.7122600004e-02
    2.8300006866e+01   -2.7600700036e-02
    2.8400022507e+01   -2.8085099533e-02
    2.8500055313e+01   -2.8575500473e-02
    2.8600000381e+01   -2.9070699587e-02
    2.8700059891e+01   -2.9571600258e-02
    2.8800003052e+01   -3.0077299103e-02
    2.8900062561e+01   -3.0588800088e-02
    2.9000005722e+01   -3.1105199829e-02
    2.9100063324e+01   -3.1627800316e-02
    2.9199991226e+01   -3.2155301422e-02
    2.9300069809e+01   -3.2689899206e-02
    2.9400045395e+01   -3.3230599016e-02
    2.9500024796e+01   -3.3778600395e-02
    2.9600048065e+01   -3.4334801137e-02
    2.9700048447e+01   -3.4898601472e-02
    2.9800052643e+01   -3.5469498485e-02
    2.9899972916e+01   -3.6046199501e-02
    2.9999971390e+01   -3.6629799753e-02
    3.0100044250e+01   -3.7220399827e-02
    3.0200012207e+01   -3.7817299366e-02
    3.0299964905e+01   -3.8421500474e-02
    3.0400024414e+01   -3.9034299552e-02
    3.0499967575e+01   -3.9654400200e-02
    3.0600027084e+01   -4.0282599628e-02
    3.0700054169e+01   -4.0917601436e-02
    3.0800069809e+01   -4.1559398174e-02
    3.0900022507e+01   -4.2207699269e-02
    3.1000040054e+01   -4.2863398790e-02
    3.1100063324e+01   -4.3526701629e-02
    3.1200012207e+01   -4.4197499752e-02
    3.1300024033e+01   -4.4876601547e-02
    3.1399967194e+01   -4.5562099665e-02
    3.1499969482e+01   -4.6254299581e-02
    3.1600028992e+01   -4.6953599900e-02
    3.1700004578e+01   -4.7658801079e-02
    3.1800060272e+01   -4.8372101039e-02
    3.1900005341e+01   -4.9091901630e-02
    3.2000064850e+01   -4.9820501357e-02
    3.2100002289e+01   -5.0555899739e-02
    3.2200019836e+01   -5.1298998296e-02
    3.2300067902e+01   -5.2049599588e-02
    3.2400001526e+01   -5.2808400244e-02
    3.2500068665e+01   -5.3577899933e-02
    3.2599994659e+01   -5.4356500506e-02
    3.2700050354e+01   -5.5146500468e-02
    3.2800056458e+01   -5.5945098400e-02
    3.2900001526e+01   -5.6749898940e-02
    3.3000064850e+01   -5.7560000569e-02
    3.3100006104e+01   -5.8371700346e-02
    3.3199951172e+01   -5.9185501188e-02
    3.3299949646e+01   -6.0002498329e-02
    3.3400020599e+01   -6.0824099928e-02
    3.3499973297e+01   -6.1650000513e-02
    3.3600032806e+01   -6.2482498586e-02
    3.3700016022e+01   -6.3320502639e-02
    3.3799945831e+01   -6.4164698124e-02
    3.3900016785e+01   -6.5016396344e-02
    3.4000026703e+01   -6.5874300897e-02
    3.4100048065e+01   -6.6740199924e-02
    3.4200046539e+01   -6.7615002394e-02
    3.4299957275e+01   -6.8498097360e-02
    3.4400020599e+01   -6.9391101599e-02
    3.4499965668e+01   -7.0290699601e-02
    3.4600028992e+01   -7.1198396385e-02
    3.4699993134e+01   -7.2112701833e-02
    3.4799972534e+01   -7.3035903275e-02
    3.4899971008e+01   -7.3969401419e-02
    3.4999988556e+01   -7.4914000928e-02
    3.5099937439e+01   -7.5869202614e-02
    3.5200000763e+01   -7.6836600900e-02
    3.5299976349e+01   -7.7813297510e-02
    3.5399971008e+01   -7.8799396753e-02
    3.5499912262e+01   -7.9794496298e-02
    3.5599960327e+01   -8.0801002681e-02
    3.5699920654e+01   -8.1817403436e-02
    3.5799983978e+01   -8.2846298814e-02
    3.5899929047e+01   -8.3884902298e-02
    3.5999992371e+01   -8.4934897721e-02
    3.6099937439e+01   -8.5992403328e-02
    3.6200000763e+01   -8.7059900165e-02
    3.6299945831e+01   -8.8135600090e-02
    3.6400005341e+01   -8.9222401381e-02
    3.6499950409e+01   -9.0319000185e-02
    3.6600013733e+01   -9.1429002583e-02
    3.6699954987e+01   -9.2548802495e-02
    3.6799968719e+01   -9.3679197133e-02
    3.6899906158e+01   -9.4818502665e-02
    3.6999958038e+01   -9.5969200134e-02
    3.7099903107e+01   -9.7129300237e-02
    3.7199962616e+01   -9.8302401602e-02
    3.7299903870e+01   -9.9486500025e-02
    3.7399963379e+01   -1.0068400204e-01
    3.7499908447e+01   -1.0189200193e-01
    3.7599964142e+01   -1.0311199725e-01
    3.7699909210e+01   -1.0434000194e-01
    3.7799964905e+01   -1.0558100045e-01
    3.7899909973e+01   -1.0683400184e-01
    3.7999965668e+01   -1.0810299963e-01
    3.8099906921e+01   -1.0938599706e-01
    3.8199920654e+01   -1.1068599671e-01
    3.8299953461e+01   -1.1200200021e-01
    3.8399894714e+01   -1.1332999915e-01
    3.8499973297e+01   -1.1467300355e-01
    3.8599960327e+01   -1.1602699757e-01
    3.8699901581e+01   -1.1739200354e-01
    3.8799957275e+01   -1.1877000332e-01
    3.8899898529e+01   -1.2015999854e-01
    3.8999954224e+01   -1.2156400084e-01
    3.9099903107e+01   -1.2297900021e-01
    3.9199890137e+01   -1.2440799922e-01
    3.9299903870e+01   -1.2585200369e-01
    3.9399909973e+01   -1.2731100619e-01
    3.9499927521e+01   -1.2878899276e-01
    3.9599956512e+01   -1.3028599322e-01
    3.9699901581e+01   -1.3180099428e-01
    3.9799957275e+01   -1.3333599269e-01
    3.9899902344e+01   -1.3488599658e-01
    3.9999942780e+01   -1.3645499945e-01
    4.0099853516e+01   -1.3803799450e-01
    4.0199840546e+01   -1.3963800669e-01
    4.0299846649e+01   -1.4125800133e-01
    4.0399902344e+01   -1.4289499819e-01
    4.0499847412e+01   -1.4454799891e-01
    4.0599903107e+01   -1.4621999860e-01
    4.0699890137e+01   -1.4790700376e-01
    4.0799930573e+01   -1.4960999787e-01
    4.0899845123e+01   -1.5132600069e-01
    4.0999931335e+01   -1.5306100249e-01
    4.1099922180e+01   -1.5481099486e-01
    4.1199867249e+01   -1.5657700598e-01
    4.1299922943e+01   -1.5836100280e-01
    4.1399864197e+01   -1.6015900671e-01
    4.1499923706e+01   -1.6197200119e-01
    4.1599822998e+01   -1.6379700601e-01
    4.1699928284e+01   -1.6563999653e-01
    4.1799907684e+01   -1.6749599576e-01
    4.1899887085e+01   -1.6936799884e-01
    4.1999843597e+01   -1.7125500739e-01
    4.2099887848e+01   -1.7316000164e-01
    4.2199913025e+01   -1.7507900298e-01
    4.2299922943e+01   -1.7701199651e-01
    4.2399818420e+01   -1.7895899713e-01
    4.2499847412e+01   -1.8092699349e-01
    4.2599918365e+01   -1.8291300535e-01
    4.2699867249e+01   -1.8491500616e-01
    4.2799869537e+01   -1.8693600595e-01
    4.2899909973e+01   -1.8897099793e-01
    4.2999870300e+01   -1.9101500511e-01
    4.3099910736e+01   -1.9306899607e-01
    4.3199855804e+01   -1.9513100386e-01
    4.3299827576e+01   -1.9720299542e-01
    4.3399806976e+01   -1.9928699732e-01
    4.3499809265e+01   -2.0138600469e-01
    4.3599868774e+01   -2.0350000262e-01
    4.3699874878e+01   -2.0562900603e-01
    4.3799880981e+01   -2.0777399838e-01
    4.3899784088e+01   -2.0993199944e-01
    4.3999858856e+01   -2.1210899949e-01
    4.4099884033e+01   -2.1430200338e-01
    4.4199817657e+01   -2.1651199460e-01
    4.4299839020e+01   -2.1874000132e-01
    4.4399780273e+01   -2.2098399699e-01
    4.4499843597e+01   -2.2324499488e-01
    4.4599811554e+01   -2.2551800311e-01
    4.4699859619e+01   -2.2780799866e-01
    4.4799858093e+01   -2.3011299968e-01
    4.4899803162e+01   -2.3243600130e-01
    4.4999816895e+01   -2.3478099704e-01
    4.5099811554e+01   -2.3714500666e-01
    4.5199859619e+01   -2.3953099549e-01
    4.5299812317e+01   -2.4193400145e-01
    4.5399776459e+01   -2.4435600638e-01
    4.5499870300e+01   -2.4679799378e-01
    4.5599861145e+01   -2.4925599992e-01
    4.5699859619e+01   -2.5173300505e-01
    4.5799842834e+01   -2.5422900915e-01
    4.5899772644e+01   -2.5674098730e-01
    4.5999832153e+01   -2.5927299261e-01
    4.6099773407e+01   -2.6181799173e-01
    4.6199832916e+01   -2.6438000798e-01
    4.6299766541e+01   -2.6695299149e-01
    4.6399822235e+01   -2.6954600215e-01
    4.6499763489e+01   -2.7215400338e-01
    4.6599822998e+01   -2.7478298545e-01
    4.6699764252e+01   -2.7742800117e-01
    4.6799819946e+01   -2.8009200096e-01
    4.6899810791e+01   -2.8277099133e-01
    4.6999774933e+01   -2.8546598554e-01
    4.7099758148e+01   -2.8817901015e-01
    4.7199813843e+01   -2.9091399908e-01
    4.7299755096e+01   -2.9366698861e-01
    4.7399810791e+01   -2.9644501209e-01
    4.7499752045e+01   -2.9923900962e-01
    4.7599807739e+01   -3.0205601454e-01
    4.7699748993e+01   -3.0488899350e-01
    4.7799751282e+01   -3.0774399638e-01
    4.7899826050e+01   -3.1062299013e-01
    4.7999767303e+01   -3.1352201104e-01
    4.8099819183e+01   -3.1645101309e-01
    4.8199802399e+01   -3.1940498948e-01
    4.8299747467e+01   -3.2238298655e-01
    4.8399742126e+01   -3.2538700104e-01
    4.8499797821e+01   -3.2841598988e-01
    4.8599739075e+01   -3.3146199584e-01
    4.8699794769e+01   -3.3453500271e-01
    4.8799732208e+01   -3.3762601018e-01
    4.8899787903e+01   -3.4074300528e-01
    4.8999725342e+01   -3.4387999773e-01
    4.9099777222e+01   -3.4704399109e-01
    4.9199810028e+01   -3.5023200512e-01
    4.9299709320e+01   -3.5344201326e-01
    4.9399723053e+01   -3.5668200254e-01
    4.9499710083e+01   -3.5995098948e-01
    4.9599765778e+01   -3.6325299740e-01
    4.9699741364e+01   -3.6658400297e-01
    4.9799800873e+01   -3.6994600296e-01
    4.9899738312e+01   -3.7333199382e-01
    4.9999794006e+01   -3.7674900889e-01
    5.0099708557e+01   -3.8018700480e-01
    5.0199752808e+01   -3.8365599513e-01
    5.0299758911e+01   -3.8715198636e-01
    5.0399696350e+01   -3.9067399502e-01
    5.0499748230e+01   -3.9422899485e-01
    5.0599685669e+01   -3.9780700207e-01
    5.0699733734e+01   -4.0141698718e-01
    5.0799686432e+01   -4.0505099297e-01
    5.0899738312e+01   -4.0871700644e-01
    5.0999736786e+01   -4.1240900755e-01
    5.1099685669e+01   -4.1612699628e-01
    5.1199741364e+01   -4.1987898946e-01
    5.1299678802e+01   -4.2365500331e-01
    5.1399730682e+01   -4.2746299505e-01
    5.1499782562e+01   -4.3129700422e-01
    5.1599720001e+01   -4.3515199423e-01
    5.1699691772e+01   -4.3903601170e-01
    5.1799667358e+01   -4.4294598699e-01
    5.1899719238e+01   -4.4688799977e-01
    5.1999771118e+01   -4.5085901022e-01
    5.2099662781e+01   -4.5485201478e-01
    5.2199699402e+01   -4.5887801051e-01
    5.2299709320e+01   -4.6293300390e-01
    5.2399719238e+01   -4.6701699495e-01
    5.2499736786e+01   -4.7113499045e-01
    5.2599662781e+01   -4.7528100014e-01
    5.2699726105e+01   -4.7946900129e-01
    5.2799678802e+01   -4.8368498683e-01
    5.2899730682e+01   -4.8793500662e-01
    5.2999668121e+01   -4.9220499396e-01
    5.3099720001e+01   -4.9650400877e-01
    5.3199703217e+01   -5.0082302094e-01
    5.3299713135e+01   -5.0516599417e-01
    5.3399665833e+01   -5.0953400135e-01
    5.3499713898e+01   -5.1393401623e-01
    5.3599674225e+01   -5.1836097240e-01
    5.3699729919e+01   -5.2282202244e-01
    5.3799682617e+01   -5.2730900049e-01
    5.3899738312e+01   -5.3183001280e-01
    5.3999732971e+01   -5.3637897968e-01
    5.4099700928e+01   -5.4095697403e-01
    5.4199661255e+01   -5.4556697607e-01
    5.4299709320e+01   -5.5021202564e-01
    5.4399646759e+01   -5.5488097668e-01
    5.4499694824e+01   -5.5958402157e-01
    5.4599636078e+01   -5.6431001425e-01
    5.4699661255e+01   -5.6906801462e-01
    5.4799671173e+01   -5.7385599613e-01
    5.4899696350e+01   -5.7867699862e-01
    5.4999721527e+01   -5.8353197575e-01
    5.5099655151e+01   -5.8841902018e-01
    5.5199695587e+01   -5.9334599972e-01
    5.5299678802e+01   -5.9830498695e-01
    5.5399635315e+01   -6.0329598188e-01
    5.5499702454e+01   -6.0832297802e-01
    5.5599628448e+01   -6.1337602139e-01
    5.5699623108e+01   -6.1846500635e-01
    5.5799671173e+01   -6.2358999252e-01
    5.5899715424e+01   -6.2874799967e-01
    5.5999645233e+01   -6.3393098116e-01
    5.6099693298e+01   -6.3915002346e-01
    5.6199619293e+01   -6.4439100027e-01
    5.6299652100e+01   -6.4966702461e-01
    5.6399696350e+01   -6.5497499704e-01
    5.6499622345e+01   -6.6030997038e-01
    5.6599670410e+01   -6.6568702459e-01
    5.6699596405e+01   -6.7109298706e-01
    5.6799644470e+01   -6.7653799057e-01
    5.6899631500e+01   -6.8201202154e-01
    5.6999675751e+01   -6.8752199411e-01
    5.7099594116e+01   -6.9305801392e-01
    5.7199615479e+01   -6.9863402843e-01
    5.7299659729e+01   -7.0424699783e-01
    5.7399585724e+01   -7.0989102125e-01
    5.7499626160e+01   -7.1557700634e-01
    5.7599670410e+01   -7.2129601240e-01
    5.7699596405e+01   -7.2704100609e-01
    5.7799640656e+01   -7.3282802105e-01
    5.7899585724e+01   -7.3864597082e-01
    5.7999668121e+01   -7.4451202154e-01
    5.8099613190e+01   -7.5041198730e-01
    5.8199668884e+01   -7.5636100769e-01
    5.8299598694e+01   -7.6234501600e-01
    5.8399639130e+01   -7.6837402582e-01
    5.8499565125e+01   -7.7443397045e-01
    5.8599605560e+01   -7.8053599596e-01
    5.8699649811e+01   -7.8667300940e-01
    5.8799571991e+01   -7.9283797741e-01
    5.8899612427e+01   -7.9904699326e-01
    5.8999652863e+01   -8.0529201031e-01
    5.9099575043e+01   -8.1156897545e-01
    5.9199550629e+01   -8.1788599491e-01
    5.9299568176e+01   -8.2424598932e-01
    5.9399566650e+01   -8.3064597845e-01
    5.9499584198e+01   -8.3709102869e-01
    5.9599609375e+01   -8.4358102083e-01
    5.9699600220e+01   -8.5011398792e-01
    5.9799610138e+01   -8.5669201612e-01
    5.9899650574e+01   -8.6331498623e-01
    5.9999572754e+01   -8.6997002363e-01
    6.0099624634e+01   -8.7667298317e-01
    6.0199592590e+01   -8.8341301680e-01
    6.0299594879e+01   -8.9019602537e-01
    6.0399631500e+01   -8.9702600241e-01
    6.0499553680e+01   -9.0389299393e-01
    6.0599594116e+01   -9.1081100702e-01
    6.0699630737e+01   -9.1777199507e-01
    6.0799594879e+01   -9.2477202415e-01
    6.0899559021e+01   -9.3181598186e-01
    6.0999626160e+01   -9.3891102076e-01
    6.1099628448e+01   -9.4604700804e-01
    6.1199550629e+01   -9.5322197676e-01
    6.1299587250e+01   -9.6045100689e-01
    6.1399627686e+01   -9.6772301197e-01
    6.1499549866e+01   -9.7502702475e-01
    6.1599533081e+01   -9.8237502575e-01
    6.1699592590e+01   -9.8977100849e-01
    6.1799522400e+01   -9.9719899893e-01
    6.1899562836e+01   -1.0046800375e+00
    6.1999595642e+01   -1.0122100115e+00
    6.2099517822e+01   -1.0197700262e+00
    6.2199535370e+01   -1.0273900032e+00
    6.2299610138e+01   -1.0350500345e+00
    6.2399562836e+01   -1.0427500010e+00
    6.2499576569e+01   -1.0505100489e+00
    6.2599578857e+01   -1.0583200455e+00
    6.2699569702e+01   -1.0661699772e+00
    6.2799556732e+01   -1.0740799904e+00
    6.2899578094e+01   -1.0820300579e+00
    6.2999500275e+01   -1.0900199413e+00
    6.3099540710e+01   -1.0980499983e+00
    6.3199546814e+01   -1.1061099768e+00
    6.3299488068e+01   -1.1142100096e+00
    6.3399509430e+01   -1.1223499775e+00
    6.3499549866e+01   -1.1305400133e+00
    6.3599563599e+01   -1.1387799978e+00
    6.3699489594e+01   -1.1470500231e+00
    6.3799560547e+01   -1.1553900242e+00
    6.3899589539e+01   -1.1637599468e+00
    6.3999584198e+01   -1.1721800566e+00
    6.4099563599e+01   -1.1806499958e+00
    6.4199562073e+01   -1.1891700029e+00
    6.4299484253e+01   -1.1977299452e+00
    6.4399520874e+01   -1.2063499689e+00
    6.4499557495e+01   -1.2150199413e+00
    6.4599479675e+01   -1.2237199545e+00
    6.4699493408e+01   -1.2324800491e+00
    6.4799583435e+01   -1.2412899733e+00
    6.4899559021e+01   -1.2501399517e+00
    6.4999557495e+01   -1.2590500116e+00
    6.5099487305e+01   -1.2680100203e+00
    6.5199501038e+01   -1.2770299911e+00
    6.5299484253e+01   -1.2861000299e+00
    6.5399536133e+01   -1.2952300310e+00
    6.5499496460e+01   -1.3043999672e+00
    6.5599517822e+01   -1.3136299849e+00
    6.5699562073e+01   -1.3229199648e+00
    6.5799507141e+01   -1.3322399855e+00
    6.5899543762e+01   -1.3416299820e+00
    6.5999542236e+01   -1.3510700464e+00
    6.6099456787e+01   -1.3605500460e+00
    6.6199539185e+01   -1.3700900078e+00
    6.6299491882e+01   -1.3796700239e+00
    6.6399513245e+01   -1.3893100023e+00
    6.6499504089e+01   -1.3990000486e+00
    6.6599456787e+01   -1.4087400436e+00
    6.6699440002e+01   -1.4185400009e+00
    6.6799438477e+01   -1.4284000397e+00
    6.6899444580e+01   -1.4383100271e+00
    6.6999458313e+01   -1.4482699633e+00
    6.7099494934e+01   -1.4582799673e+00
    6.7199455261e+01   -1.4683400393e+00
    6.7299453735e+01   -1.4784499407e+00
    6.7399490356e+01   -1.4886300564e+00
    6.7499465942e+01   -1.4988600016e+00
    6.7599449158e+01   -1.5091500282e+00
    6.7699424744e+01   -1.5194799900e+00
    6.7799468994e+01   -1.5298800468e+00
    6.7899467468e+01   -1.5403300524e+00
    6.7999488831e+01   -1.5508400202e+00
    6.8099426270e+01   -1.5614099503e+00
    6.8199440002e+01   -1.5720399618e+00
    6.8299446106e+01   -1.5827399492e+00
    6.8399505615e+01   -1.5935000181e+00
    6.8499488831e+01   -1.6043200493e+00
    6.8599418640e+01   -1.6151800156e+00
    6.8699440002e+01   -1.6260999441e+00
    6.8799415588e+01   -1.6370699406e+00
    6.8899505615e+01   -1.6481200457e+00
    6.8999435425e+01   -1.6591999531e+00
    6.9099510193e+01   -1.6703599691e+00
    6.9199401855e+01   -1.6815600395e+00
    6.9299438477e+01   -1.6928299665e+00
    6.9399475098e+01   -1.7041699886e+00
    6.9499443054e+01   -1.7155699730e+00
    6.9599433899e+01   -1.7270400524e+00
    6.9699417114e+01   -1.7385699749e+00
    6.9799446106e+01   -1.7501800060e+00
    6.9899452209e+01   -1.7618499994e+00
    6.9999389648e+01   -1.7735699415e+00
    7.0099388123e+01   -1.7853599787e+00
    7.0199386597e+01   -1.7972099781e+00
    7.0299385071e+01   -1.8091299534e+00
    7.0399391174e+01   -1.8211100101e+00
    7.0499488831e+01   -1.8331700563e+00
    7.0599464417e+01   -1.8452800512e+00
    7.0699409485e+01   -1.8574399948e+00
    7.0799407959e+01   -1.8696800470e+00
    7.0899406433e+01   -1.8819899559e+00
    7.0999366760e+01   -1.8943500519e+00
    7.1099403381e+01   -1.9067900181e+00
    7.1199447632e+01   -1.9192999601e+00
    7.1299415588e+01   -1.9318599701e+00
    7.1399475098e+01   -1.9444899559e+00
    7.1499412537e+01   -1.9571700096e+00
    7.1599456787e+01   -1.9699200392e+00
    7.1699417114e+01   -1.9827200174e+00
    7.1799392700e+01   -1.9955899715e+00
    7.1899375916e+01   -2.0085198879e+00
    7.1999397278e+01   -2.0215198994e+00
    7.2099388123e+01   -2.0345799923e+00
    7.2199371338e+01   -2.0477099419e+00
    7.2299362183e+01   -2.0608999729e+00
    7.2399353027e+01   -2.0741600990e+00
    7.2499359131e+01   -2.0874900818e+00
    7.2599372864e+01   -2.1008799076e+00
    7.2699455261e+01   -2.1143600941e+00
    7.2799369812e+01   -2.1278800964e+00
    7.2899368286e+01   -2.1414799690e+00
    7.2999374390e+01   -2.1551399231e+00
    7.3099357605e+01   -2.1688499451e+00
    7.3199401855e+01   -2.1826300621e+00
    7.3299430847e+01   -2.1964700222e+00
    7.3399353027e+01   -2.2103500366e+00
    7.3499366760e+01   -2.2243099213e+00
    7.3599449158e+01   -2.2383399010e+00
    7.3699432373e+01   -2.2524299622e+00
    7.3799339294e+01   -2.2665801048e+00
    7.3899368286e+01   -2.2808198929e+00
    7.3999404907e+01   -2.2951200008e+00
    7.4099342346e+01   -2.3094699383e+00
    7.4199417114e+01   -2.3239200115e+00
    7.4299346924e+01   -2.3384099007e+00
    7.4399337769e+01   -2.3529698849e+00
    7.4499382019e+01   -2.3676099777e+00
    7.4599327087e+01   -2.3822999001e+00
    7.4699409485e+01   -2.3970699310e+00
    7.4799392700e+01   -2.4119000435e+00
    7.4899353027e+01   -2.4267899990e+00
    7.4999420166e+01   -2.4417800903e+00
    7.5099311829e+01   -2.4568099976e+00
    7.5199401855e+01   -2.4719500542e+00
    7.5299385071e+01   -2.4871399403e+00
    7.5399414062e+01   -2.5024199486e+00
    7.5499366760e+01   -2.5177500248e+00
    7.5599334717e+01   -2.5331499577e+00
    7.5699356079e+01   -2.5486400127e+00
    7.5799354553e+01   -2.5641798973e+00
    7.5899391174e+01   -2.5798099041e+00
    7.5999389648e+01   -2.5954999924e+00
    7.6099327087e+01   -2.6112499237e+00
    7.6199409485e+01   -2.6270799637e+00
    7.6299339294e+01   -2.6429600716e+00
    7.6399337769e+01   -2.6589200497e+00
    7.6499382019e+01   -2.6749598980e+00
    7.6599365234e+01   -2.6910600662e+00
    7.6699363708e+01   -2.7072401047e+00
    7.6799377441e+01   -2.7235000134e+00
    7.6899322510e+01   -2.7398099899e+00
    7.6999282837e+01   -2.7561900616e+00
    7.7099357605e+01   -2.7726600170e+00
    7.7199378967e+01   -2.7892000675e+00
    7.7299346924e+01   -2.8057999611e+00
    7.7399360657e+01   -2.8224799633e+00
    7.7499305725e+01   -2.8392300606e+00
    7.7599281311e+01   -2.8560500145e+00
    7.7699295044e+01   -2.8729500771e+00
    7.7799362183e+01   -2.8899400234e+00
    7.7899261475e+01   -2.9069700241e+00
    7.7999259949e+01   -2.9240899086e+00
    7.8099372864e+01   -2.9413199425e+00
    7.8199287415e+01   -2.9586000443e+00
    7.8299339294e+01   -2.9759900570e+00
    7.8399345398e+01   -2.9934399128e+00
    7.8499305725e+01   -3.0109701157e+00
    7.8599342346e+01   -3.0285799503e+00
    7.8699325562e+01   -3.0462501049e+00
    7.8799346924e+01   -3.0640099049e+00
    7.8899276733e+01   -3.0818200111e+00
    7.8999359131e+01   -3.0997400284e+00
    7.9099296570e+01   -3.1177101135e+00
    7.9199264526e+01   -3.1357600689e+00
    7.9299308777e+01   -3.1539199352e+00
    7.9399253845e+01   -3.1721301079e+00
    7.9499298096e+01   -3.1904499531e+00
    7.9599342346e+01   -3.2088599205e+00
    7.9699249268e+01   -3.2273299694e+00
    7.9799240112e+01   -3.2458899021e+00
    7.9899345398e+01   -3.2645599842e+00
    7.9999244690e+01   -3.2832698822e+00
    8.0099258423e+01   -3.3020799160e+00
    8.0199249268e+01   -3.3209700584e+00
    8.0299339294e+01   -3.3399500847e+00
    8.0399307251e+01   -3.3589999676e+00
    8.0499244690e+01   -3.3781199455e+00
    8.0599319458e+01   -3.3973600864e+00
    8.0699241638e+01   -3.4166500568e+00
    8.0799308777e+01   -3.4360499382e+00
    8.0899314880e+01   -3.4555299282e+00
    8.0999267578e+01   -3.4750800133e+00
    8.1099281311e+01   -3.4947199821e+00
    8.1199310303e+01   -3.5144600868e+00
    8.1299247742e+01   -3.5342600346e+00
    8.1399269104e+01   -3.5541601181e+00
    8.1499275208e+01   -3.5741300583e+00
    8.1599212646e+01   -3.5941700935e+00
    8.1699295044e+01   -3.6143200397e+00
    8.1799232483e+01   -3.6345100403e+00
    8.1899314880e+01   -3.6548199654e+00
    8.1999206543e+01   -3.6751699448e+00
    8.2099311829e+01   -3.6956601143e+00
    8.2199295044e+01   -3.7162001133e+00
    8.2299217224e+01   -3.7368199825e+00
    8.2399261475e+01   -3.7575500011e+00
    8.2499229431e+01   -3.7783501148e+00
    8.2599296570e+01   -3.7992599010e+00
    8.2699241638e+01   -3.8202300072e+00
    8.2799194336e+01   -3.8412899971e+00
    8.2899276733e+01   -3.8624699116e+00
    8.2999221802e+01   -3.8836998940e+00
    8.3099281311e+01   -3.9050300121e+00
    8.3199218750e+01   -3.9264099598e+00
    8.3299247742e+01   -3.9478900433e+00
    8.3399215698e+01   -3.9694399834e+00
    8.3499267578e+01   -3.9910900593e+00
    8.3599182129e+01   -4.0128002167e+00
    8.3699256897e+01   -4.0346298218e+00
    8.3799270630e+01   -4.0565400124e+00
    8.3899208069e+01   -4.0785198212e+00
    8.3999191284e+01   -4.1005902290e+00
    8.4099266052e+01   -4.1227798462e+00
    8.4199272156e+01   -4.1450300217e+00
    8.4299209595e+01   -4.1673498154e+00
    8.4399215698e+01   -4.1897802353e+00
    8.4499183655e+01   -4.2122797966e+00
    8.4599235535e+01   -4.2348799706e+00
    8.4699165344e+01   -4.2575302124e+00
    8.4799179077e+01   -4.2802901268e+00
    8.4899200439e+01   -4.3031401634e+00
    8.4999198914e+01   -4.3260698318e+00
    8.5099243164e+01   -4.3491101265e+00
    8.5199195862e+01   -4.3722300529e+00
    8.5299240112e+01   -4.3954601288e+00
    8.5399192810e+01   -4.4187498093e+00
    8.5499153137e+01   -4.4421300888e+00
    8.5599212646e+01   -4.4656200409e+00
    8.5699188232e+01   -4.4891800880e+00
    8.5799232483e+01   -4.5128397942e+00
    8.5899162292e+01   -4.5365700722e+00
    8.5999160767e+01   -4.5604000092e+00
    8.6099182129e+01   -4.5843100548e+00
    8.6199157715e+01   -4.6083102226e+00
    8.6299171448e+01   -4.6323900223e+00
    8.6399230957e+01   -4.6565799713e+00
    8.6499160767e+01   -4.6808300018e+00
    8.6599212646e+01   -4.7052001953e+00
    8.6699180603e+01   -4.7296400070e+00
    8.6799140930e+01   -4.7541699409e+00
    8.6899215698e+01   -4.7788100243e+00
    8.6999176025e+01   -4.8035101891e+00
    8.7099243164e+01   -4.8283200264e+00
    8.7199234009e+01   -4.8531999588e+00
    8.7299186707e+01   -4.8781700134e+00
    8.7399177551e+01   -4.9032301903e+00
    8.7499198914e+01   -4.9283900261e+00
    8.7599159241e+01   -4.9536299706e+00
    8.7699127197e+01   -4.9789500237e+00
    8.7799209595e+01   -5.0043997765e+00
    8.7899192810e+01   -5.0299100876e+00
    8.7999183655e+01   -5.0555200577e+00
    8.8099136353e+01   -5.0812201500e+00
    8.8199180603e+01   -5.1070299149e+00
    8.8299156189e+01   -5.1329298019e+00
    8.8399208069e+01   -5.1589498520e+00
    8.8499206543e+01   -5.1850399971e+00
    8.8599121094e+01   -5.2111902237e+00
    8.8699150085e+01   -5.2374701500e+00
    8.8799209595e+01   -5.2638301849e+00
    8.8899208069e+01   -5.2902798653e+00
    8.8999114990e+01   -5.3167901039e+00
    8.9099174500e+01   -5.3434300423e+00
    8.9199119568e+01   -5.3701300621e+00
    8.9299133301e+01   -5.3969497681e+00
    8.9399185181e+01   -5.4238700867e+00
    8.9499122620e+01   -5.4508700371e+00
    8.9599105835e+01   -5.4779701233e+00
    8.9699195862e+01   -5.5052099228e+00
    8.9799140930e+01   -5.5324997902e+00
    8.9899169922e+01   -5.5599098206e+00
    8.9999168396e+01   -5.5873999596e+00
    9.0099174500e+01   -5.6149902344e+00
    9.0199165344e+01   -5.6426601410e+00
    9.0299156189e+01   -5.6704301834e+00
    9.0399093628e+01   -5.6982798576e+00
    9.0499145508e+01   -5.7262601852e+00
    9.0599128723e+01   -5.7543201447e+00
    9.0699134827e+01   -5.7824997902e+00
    9.0799125671e+01   -5.8107600212e+00
    9.0899169922e+01   -5.8391299248e+00
    9.0999130249e+01   -5.8675799370e+00
    9.1099159241e+01   -5.8961501122e+00
    9.1199089050e+01   -5.9247899055e+00
    9.1299148560e+01   -5.9535598755e+00
    9.1399162292e+01   -5.9824099541e+00
    9.1499099731e+01   -6.0113401413e+00
    9.1599060059e+01   -6.0403599739e+00
    9.1699058533e+01   -6.0694899559e+00
    9.1799110413e+01   -6.0987200737e+00
    9.1899085999e+01   -6.1280298233e+00
    9.1999160767e+01   -6.1574797630e+00
    9.2099105835e+01   -6.1869797707e+00
    9.2199081421e+01   -6.2165999413e+00
    9.2299079895e+01   -6.2463102341e+00
    9.2399032593e+01   -6.2761201859e+00
    9.2499122620e+01   -6.3060598373e+00
    9.2599113464e+01   -6.3360800743e+00
    9.2699058533e+01   -6.3661899567e+00
    9.2799095154e+01   -6.3964200020e+00
    9.2899139404e+01   -6.4267601967e+00
    9.2999122620e+01   -6.4571700096e+00
    9.3099060059e+01   -6.4876499176e+00
    9.3199066162e+01   -6.5182399750e+00
    9.3299133301e+01   -6.5489401817e+00
    9.3399063110e+01   -6.5796899796e+00
    9.3499130249e+01   -6.6105899811e+00
    9.3599067688e+01   -6.6415500641e+00
    9.3699050903e+01   -6.6726198196e+00
    9.3799064636e+01   -6.7038102150e+00
    9.3899047852e+01   -6.7350797653e+00
    9.3999084473e+01   -6.7664799690e+00
    9.4099029541e+01   -6.7979397774e+00
    9.4199028015e+01   -6.8295202255e+00
    9.4299018860e+01   -6.8611998558e+00
    9.4399032593e+01   -6.8929901123e+00
    9.4499015808e+01   -6.9248600006e+00
    9.4599098206e+01   -6.9568600655e+00
    9.4699028015e+01   -6.9889101982e+00
    9.4799064636e+01   -7.0210900307e+00
    9.4899070740e+01   -7.0533699989e+00
    9.4999069214e+01   -7.0857501030e+00
    9.5099113464e+01   -7.1182599068e+00
    9.5199066162e+01   -7.1508598328e+00
    9.5299102783e+01   -7.1835799217e+00
    9.5399032593e+01   -7.2163801193e+00
    9.5499092102e+01   -7.2493200302e+00
    9.5599052429e+01   -7.2823300362e+00
    9.5699089050e+01   -7.3154702187e+00
    9.5799003601e+01   -7.3486700058e+00
    9.5899101257e+01   -7.3820400238e+00
    9.5999046326e+01   -7.4154601097e+00
    9.6099075317e+01   -7.4490199089e+00
    9.6199028015e+01   -7.4826498032e+00
    9.6299072266e+01   -7.5164098740e+00
    9.6399078369e+01   -7.5502600670e+00
    9.6499038696e+01   -7.5842099190e+00
    9.6599021912e+01   -7.6182699203e+00
    9.6699073792e+01   -7.6524701118e+00
    9.6799095154e+01   -7.6867699623e+00
    9.6899070740e+01   -7.7211399078e+00
    9.6999046326e+01   -7.7556200027e+00
    9.7099082947e+01   -7.7902197838e+00
    9.7199081421e+01   -7.8249101639e+00
    9.7299041748e+01   -7.8596901894e+00
    9.7399017334e+01   -7.8945899010e+00
    9.7499015808e+01   -7.9295997620e+00
    9.7599037170e+01   -7.9647297859e+00
    9.7698982239e+01   -7.9999299049e+00
    9.7798957825e+01   -8.0352497101e+00
    9.7899040222e+01   -8.0707101822e+00
    9.7999015808e+01   -8.1062402725e+00
    9.8098991394e+01   -8.1418895721e+00
    9.8198989868e+01   -8.1776599884e+00
    9.8299034119e+01   -8.2135601044e+00
    9.8399040222e+01   -8.2495498657e+00
    9.8498954773e+01   -8.2856101990e+00
    9.8599021912e+01   -8.3218297958e+00
    9.8698959351e+01   -8.3580999374e+00
    9.8799003601e+01   -8.3945102692e+00
    9.8899055481e+01   -8.4310398102e+00
    9.8999046326e+01   -8.4676399231e+00
    9.9099006653e+01   -8.5043497086e+00
    9.9198966980e+01   -8.5411701202e+00
    9.9299049377e+01   -8.5781402588e+00
    9.9399002075e+01   -8.6151800156e+00
    9.9498992920e+01   -8.6523504257e+00
    9.9598937988e+01   -8.6896200180e+00
    9.9698951721e+01   -8.7270402908e+00
    9.9799018860e+01   -8.7645902634e+00
    9.9898986816e+01   -8.8022203445e+00
    9.9999023438e+01   -8.8399801254e+00
    1.0009895325e+02   -8.8777999878e+00
    1.0019902039e+02   -8.9157896042e+00
    1.0029898071e+02   -8.9538497925e+00
    1.0039891052e+02   -8.9920101166e+00
    1.0049893951e+02   -9.0303297043e+00
    1.0059896088e+02   -9.0687599182e+00
    1.0069899750e+02   -9.1073102951e+00
    1.0079898834e+02   -9.1459598541e+00
    1.0089895630e+02   -9.1847095490e+00
    1.0099893951e+02   -9.2235803604e+00
    1.0109896851e+02   -9.2625904083e+00
    1.0119895172e+02   -9.3016901016e+00
    1.0129898834e+02   -9.3409204483e+00
    1.0139897156e+02   -9.3802404404e+00
    1.0149896240e+02   -9.4196796417e+00
    1.0159893799e+02   -9.4592103958e+00
    1.0169896698e+02   -9.4988603592e+00
    1.0179895020e+02   -9.5386104584e+00
    1.0189891815e+02   -9.5784597397e+00
    1.0199894714e+02   -9.6184597015e+00
    1.0209900665e+02   -9.6585798264e+00
    1.0219895935e+02   -9.6987695694e+00
    1.0229889679e+02   -9.7390699387e+00
    1.0239891052e+02   -9.7795095444e+00
    1.0249899292e+02   -9.8200902939e+00
    1.0259896088e+02   -9.8607397079e+00
    1.0269898987e+02   -9.9015302658e+00
    1.0279895782e+02   -9.9424200058e+00
    1.0289891815e+02   -9.9834098816e+00
    1.0299896240e+02   -1.0024499893e+01
    1.0309893799e+02   -1.0065699577e+01
    1.0319898224e+02   -1.0107099533e+01
    1.0329898071e+02   -1.0148500443e+01
    1.0339894867e+02   -1.0189999580e+01
    1.0349890137e+02   -1.0231599808e+01
    1.0359886932e+02   -1.0273400307e+01
    1.0369893646e+02   -1.0315299988e+01
    1.0379891968e+02   -1.0357299805e+01
    1.0389894867e+02   -1.0399399757e+01
    1.0399891663e+02   -1.0441599846e+01
    1.0409886932e+02   -1.0483900070e+01
    1.0419898224e+02   -1.0526399612e+01
    1.0429885864e+02   -1.0569000244e+01
    1.0439891815e+02   -1.0611700058e+01
    1.0449889374e+02   -1.0654500008e+01
    1.0459893799e+02   -1.0697400093e+01
    1.0469891357e+02   -1.0740400314e+01
    1.0479891968e+02   -1.0783499718e+01
    1.0489893341e+02   -1.0826800346e+01
    1.0499893951e+02   -1.0870200157e+01
    1.0509896088e+02   -1.0913700104e+01
    1.0519895935e+02   -1.0957400322e+01
    1.0529894257e+02   -1.1001099586e+01
    1.0539885712e+02   -1.1045000076e+01
    1.0549896240e+02   -1.1088999748e+01
    1.0559893036e+02   -1.1133099556e+01
    1.0569888306e+02   -1.1177399635e+01
    1.0579895020e+02   -1.1221699715e+01
    1.0589891052e+02   -1.1266200066e+01
    1.0599889374e+02   -1.1310799599e+01
    1.0609883881e+02   -1.1355500221e+01
    1.0619892883e+02   -1.1400300026e+01
    1.0629882812e+02   -1.1445199966e+01
    1.0639890289e+02   -1.1490300179e+01
    1.0649890900e+02   -1.1535499573e+01
    1.0659884644e+02   -1.1580699921e+01
    1.0669883728e+02   -1.1626199722e+01
    1.0679885864e+02   -1.1671699524e+01
    1.0689882660e+02   -1.1717399597e+01
    1.0699889374e+02   -1.1763199806e+01
    1.0709886169e+02   -1.1809000015e+01
    1.0719891357e+02   -1.1855099678e+01
    1.0729888916e+02   -1.1901200294e+01
    1.0739882660e+02   -1.1947400093e+01
    1.0749884796e+02   -1.1993800163e+01
    1.0759887695e+02   -1.2040300369e+01
    1.0769883728e+02   -1.2086899757e+01
    1.0779884338e+02   -1.2133700371e+01
    1.0789890289e+02   -1.2180600166e+01
    1.0799890137e+02   -1.2227600098e+01
    1.0809883881e+02   -1.2274700165e+01
    1.0819889832e+02   -1.2321900368e+01
    1.0829879761e+02   -1.2369299889e+01
    1.0839887238e+02   -1.2416799545e+01
    1.0849884796e+02   -1.2464400291e+01
    1.0859882355e+02   -1.2512200356e+01
    1.0869882202e+02   -1.2560000420e+01
    1.0879882812e+02   -1.2607999802e+01
    1.0889887238e+02   -1.2656200409e+01
    1.0899884796e+02   -1.2704400063e+01
    1.0909886169e+02   -1.2752799988e+01
    1.0919885254e+02   -1.2801300049e+01
    1.0929888153e+02   -1.2849900246e+01
    1.0939888000e+02   -1.2898699760e+01
    1.0949880219e+02   -1.2947500229e+01
    1.0959883118e+02   -1.2996600151e+01
    1.0969882202e+02   -1.3045800209e+01
    1.0979882812e+02   -1.3095100403e+01
    1.0989878845e+02   -1.3144499779e+01
    1.0999883270e+02   -1.3194100380e+01
    1.1009886169e+02   -1.3243800163e+01
    1.1019886780e+02   -1.3293600082e+01
    1.1029882812e+02   -1.3343500137e+01
    1.1039884186e+02   -1.3393600464e+01
    1.1049884033e+02   -1.3443799973e+01
    1.1059883881e+02   -1.3494199753e+01
    1.1069876862e+02   -1.3544599533e+01
    1.1079885101e+02   -1.3595299721e+01
    1.1089882660e+02   -1.3645999908e+01
    1.1099881744e+02   -1.3696900368e+01
    1.1109879303e+02   -1.3747900009e+01
    1.1119880676e+02   -1.3798999786e+01
    1.1129885101e+02   -1.3850299835e+01
    1.1139875793e+02   -1.3901700020e+01
    1.1149881744e+02   -1.3953300476e+01
    1.1159883118e+02   -1.4004899979e+01
    1.1169879150e+02   -1.4056699753e+01
    1.1179879761e+02   -1.4108599663e+01
    1.1189878082e+02   -1.4160599709e+01
    1.1199874878e+02   -1.4212699890e+01
    1.1209874725e+02   -1.4265000343e+01
    1.1219879150e+02   -1.4317500114e+01
    1.1229885864e+02   -1.4370100021e+01
    1.1239875031e+02   -1.4422800064e+01
    1.1249878693e+02   -1.4475600243e+01
    1.1259877014e+02   -1.4528599739e+01
    1.1269879913e+02   -1.4581700325e+01
    1.1279873657e+02   -1.4635000229e+01
    1.1289882660e+02   -1.4688400269e+01
    1.1299881744e+02   -1.4741900444e+01
    1.1309882355e+02   -1.4795599937e+01
    1.1319883728e+02   -1.4849300385e+01
    1.1329884338e+02   -1.4903200150e+01
    1.1339882660e+02   -1.4957200050e+01
    1.1349880219e+02   -1.5011400223e+01
    1.1359880066e+02   -1.5065699577e+01
    1.1369879150e+02   -1.5120100021e+01
    1.1379879761e+02   -1.5174699783e+01
    1.1389878845e+02   -1.5229399681e+01
    1.1399877167e+02   -1.5284199715e+01
    1.1409873199e+02   -1.5339200020e+01
    1.1419877625e+02   -1.5394399643e+01
    1.1429872131e+02   -1.5449600220e+01
    1.1439874268e+02   -1.5505000114e+01
    1.1449874878e+02   -1.5560500145e+01
    1.1459873962e+02   -1.5616200447e+01
    1.1469882202e+02   -1.5671999931e+01
    1.1479876709e+02   -1.5727899551e+01
    1.1489874268e+02   -1.5784000397e+01
    1.1499880219e+02   -1.5840200424e+01
    1.1509873199e+02   -1.5896499634e+01
    1.1519876862e+02   -1.5953100204e+01
    1.1529872894e+02   -1.6009700775e+01
    1.1539869690e+02   -1.6066499710e+01
    1.1549880219e+02   -1.6123500824e+01
    1.1559870911e+02   -1.6180500031e+01
    1.1569869995e+02   -1.6237699509e+01
    1.1579878235e+02   -1.6295099258e+01
    1.1589868164e+02   -1.6352500916e+01
    1.1599871826e+02   -1.6410100937e+01
    1.1609873962e+02   -1.6467899323e+01
    1.1619870758e+02   -1.6525699615e+01
    1.1629878998e+02   -1.6583799362e+01
    1.1639874268e+02   -1.6641899109e+01
    1.1649873352e+02   -1.6700199127e+01
    1.1659877777e+02   -1.6758699417e+01
    1.1669869995e+02   -1.6817300797e+01
    1.1679876709e+02   -1.6876100540e+01
    1.1689866638e+02   -1.6934900284e+01
    1.1699867249e+02   -1.6993900299e+01
    1.1709873962e+02   -1.7053100586e+01
    1.1719869995e+02   -1.7112400055e+01
    1.1729876709e+02   -1.7171800613e+01
    1.1739871979e+02   -1.7231399536e+01
    1.1749877167e+02   -1.7291099548e+01
    1.1759874725e+02   -1.7350999832e+01
    1.1769872284e+02   -1.7410999298e+01
    1.1779865265e+02   -1.7471099854e+01
    1.1789866638e+02   -1.7531400681e+01
    1.1799874115e+02   -1.7591800690e+01
    1.1809873199e+02   -1.7652399063e+01
    1.1819873810e+02   -1.7713199615e+01
    1.1829875183e+02   -1.7774099350e+01
    1.1839869690e+02   -1.7835100174e+01
    1.1849867249e+02   -1.7896200180e+01
    1.1859868622e+02   -1.7957599640e+01
    1.1869867706e+02   -1.8018999100e+01
    1.1879872131e+02   -1.8080600739e+01
    1.1889871216e+02   -1.8142299652e+01
    1.1899870300e+02   -1.8204200745e+01
    1.1909868622e+02   -1.8266199112e+01
    1.1919875336e+02   -1.8328399658e+01
    1.1929869843e+02   -1.8390699387e+01
    1.1939871216e+02   -1.8453100204e+01
    1.1949864960e+02   -1.8515699387e+01
    1.1959871674e+02   -1.8578500748e+01
    1.1969870758e+02   -1.8641500473e+01
    1.1979866028e+02   -1.8704500198e+01
    1.1989871216e+02   -1.8767799377e+01
    1.1999864960e+02   -1.8831100464e+01
    1.2009867859e+02   -1.8894699097e+01
    1.2019863129e+02   -1.8958299637e+01
    1.2029866028e+02   -1.9022100449e+01
    1.2039862823e+02   -1.9086099625e+01
    1.2049873352e+02   -1.9150299072e+01
    1.2059866333e+02   -1.9214500427e+01
    1.2069870758e+02   -1.9278999329e+01
    1.2079866028e+02   -1.9343500137e+01
    1.2089869690e+02   -1.9408300400e+01
    1.2099864960e+02   -1.9473100662e+01
    1.2109863281e+02   -1.9538200378e+01
    1.2119870758e+02   -1.9603399277e+01
    1.2129862976e+02   -1.9668699265e+01
    1.2139859772e+02   -1.9734199524e+01
    1.2149871063e+02   -1.9799900055e+01
    1.2159870148e+02   -1.9865699768e+01
    1.2169867706e+02   -1.9931600571e+01
    1.2179863739e+02   -1.9997600555e+01
    1.2189869690e+02   -2.0063899994e+01
    1.2199865723e+02   -2.0130300522e+01
    1.2209867096e+02   -2.0196800232e+01
    1.2219862366e+02   -2.0263500214e+01
    1.2229863739e+02   -2.0330400467e+01
    1.2239868927e+02   -2.0397399902e+01
    1.2249867249e+02   -2.0464599609e+01
    1.2259866333e+02   -2.0531900406e+01
    1.2269860077e+02   -2.0599300385e+01
    1.2279860687e+02   -2.0666999817e+01
    1.2289865112e+02   -2.0734800339e+01
    1.2299859619e+02   -2.0802700043e+01
    1.2309864807e+02   -2.0870800018e+01
    1.2319862366e+02   -2.0938999176e+01
    1.2329859161e+02   -2.1007400513e+01
    1.2339864349e+02   -2.1076000214e+01
    1.2349864197e+02   -2.1144599915e+01
    1.2359864807e+02   -2.1213499069e+01
    1.2369860840e+02   -2.1282499313e+01
    1.2379866028e+02   -2.1351699829e+01
    1.2389862061e+02   -2.1420900345e+01
    1.2399867249e+02   -2.1490400314e+01
    1.2409857178e+02   -2.1559999466e+01
    1.2419859314e+02   -2.1629800797e+01
    1.2429866791e+02   -2.1699800491e+01
    1.2439865875e+02   -2.1769899368e+01
    1.2449858856e+02   -2.1840099335e+01
    1.2459863281e+02   -2.1910499573e+01
    1.2469864655e+02   -2.1981100082e+01
    1.2479865265e+02   -2.2051799774e+01
    1.2489855957e+02   -2.2122600555e+01
    1.2499861908e+02   -2.2193700790e+01
    1.2509861755e+02   -2.2264900208e+01
    1.2519862366e+02   -2.2336299896e+01
    1.2529856110e+02   -2.2407800674e+01
    1.2539856720e+02   -2.2479499817e+01
    1.2549854279e+02   -2.2551300049e+01
    1.2559864807e+02   -2.2623399734e+01
    1.2569854736e+02   -2.2695499420e+01
    1.2579859924e+02   -2.2767900467e+01
    1.2589862061e+02   -2.2840400696e+01
    1.2599855042e+02   -2.2913000107e+01
    1.2609853363e+02   -2.2985799789e+01
    1.2619857025e+02   -2.3058799744e+01
    1.2629856110e+02   -2.3131999969e+01
    1.2639853668e+02   -2.3205200195e+01
    1.2649854279e+02   -2.3278699875e+01
    1.2659863281e+02   -2.3352399826e+01
    1.2669853210e+02   -2.3426099777e+01
    1.2679853058e+02   -2.3500000000e+01
    1.2689861298e+02   -2.3574199677e+01
    1.2699862671e+02   -2.3648500443e+01
    1.2709860229e+02   -2.3722900391e+01
    1.2719853210e+02   -2.3797399521e+01
    1.2729857635e+02   -2.3872100830e+01
    1.2739852142e+02   -2.3947000504e+01
    1.2749851990e+02   -2.4021999359e+01
    1.2759858704e+02   -2.4097299576e+01
    1.2769854736e+02   -2.4172700882e+01
    1.2779859161e+02   -2.4248199463e+01
    1.2789856720e+02   -2.4323900223e+01
    1.2799855042e+02   -2.4399700165e+01
    1.2809857178e+02   -2.4475799561e+01
    1.2819859314e+02   -2.4552000046e+01
    1.2829850769e+02   -2.4628299713e+01
    1.2839859009e+02   -2.4704900742e+01
    1.2849862671e+02   -2.4781600952e+01
    1.2859863281e+02   -2.4858400345e+01
    1.2869856262e+02   -2.4935300827e+01
    1.2879852295e+02   -2.5012399673e+01
    1.2889865112e+02   -2.5089799881e+01
    1.2899858093e+02   -2.5167200089e+01
    1.2909863281e+02   -2.5244800568e+01
    1.2919865417e+02   -2.5322599411e+01
    1.2929864502e+02   -2.5400600433e+01
    1.2939862061e+02   -2.5478599548e+01
    1.2949862671e+02   -2.5556900024e+01
    1.2959860229e+02   -2.5635400772e+01
    1.2969863892e+02   -2.5714000702e+01
    1.2979864502e+02   -2.5792800903e+01
    1.2989871216e+02   -2.5871799469e+01
    1.2999867249e+02   -2.5950899124e+01
    1.3009872437e+02   -2.6030199051e+01
    1.3019862366e+02   -2.6109600067e+01
    1.3029873657e+02   -2.6189199448e+01
    1.3039868164e+02   -2.6268999100e+01
    1.3049870300e+02   -2.6348899841e+01
    1.3059872437e+02   -2.6429000854e+01
    1.3069869995e+02   -2.6509300232e+01
    1.3079876709e+02   -2.6589799881e+01
    1.3089868164e+02   -2.6670299530e+01
    1.3099871826e+02   -2.6751100540e+01
    1.3109878540e+02   -2.6832099915e+01
    1.3119868469e+02   -2.6913099289e+01
    1.3129876709e+02   -2.6994400024e+01
    1.3139872742e+02   -2.7075799942e+01
    1.3149876404e+02   -2.7157400131e+01
    1.3159881592e+02   -2.7239200592e+01
    1.3169880676e+02   -2.7320999146e+01
    1.3179878235e+02   -2.7402999878e+01
    1.3189875793e+02   -2.7485200882e+01
    1.3199873352e+02   -2.7567600250e+01
    1.3209878540e+02   -2.7650100708e+01
    1.3219877625e+02   -2.7732799530e+01
    1.3229884338e+02   -2.7815799713e+01
    1.3239886475e+02   -2.7898799896e+01
    1.3249882507e+02   -2.7981899261e+01
    1.3259877014e+02   -2.8065299988e+01
    1.3269877625e+02   -2.8148799896e+01
    1.3279888916e+02   -2.8232599258e+01
    1.3289884949e+02   -2.8316400528e+01
    1.3299879456e+02   -2.8400400162e+01
    1.3309883118e+02   -2.8484500885e+01
    1.3319885254e+02   -2.8568899155e+01
    1.3329890442e+02   -2.8653400421e+01
    1.3339883423e+02   -2.8738000870e+01
    1.3349891663e+02   -2.8822799683e+01
    1.3359892273e+02   -2.8907800674e+01
    1.3369885254e+02   -2.8992900848e+01
    1.3379893494e+02   -2.9078300476e+01
    1.3389888000e+02   -2.9163700104e+01
    1.3399891663e+02   -2.9249399185e+01
    1.3409886169e+02   -2.9335100174e+01
    1.3419892883e+02   -2.9421199799e+01
    1.3429898071e+02   -2.9507299423e+01
    1.3439897156e+02   -2.9593599319e+01
    1.3449897766e+02   -2.9680099487e+01
    1.3459890747e+02   -2.9766700745e+01
    1.3469892883e+02   -2.9853500366e+01
    1.3479901123e+02   -2.9940500259e+01
    1.3489895630e+02   -3.0027599335e+01
    1.3499897766e+02   -3.0114900589e+01
    1.3509898376e+02   -3.0202400208e+01
    1.3519898987e+02   -3.0290000916e+01
    1.3529898071e+02   -3.0377899170e+01
    1.3539903259e+02   -3.0465900421e+01
    1.3549896240e+02   -3.0554000854e+01
    1.3559895325e+02   -3.0642299652e+01
    1.3569905090e+02   -3.0730899811e+01
    1.3579896545e+02   -3.0819499969e+01
    1.3589898682e+02   -3.0908399582e+01
    1.3599908447e+02   -3.0997499466e+01
    1.3609906006e+02   -3.1086599350e+01
    1.3619906616e+02   -3.1175899506e+01
    1.3629908752e+02   -3.1265399933e+01
    1.3639903259e+02   -3.1354999542e+01
    1.3649906921e+02   -3.1444900513e+01
    1.3659906006e+02   -3.1534900665e+01
    1.3669911194e+02   -3.1625099182e+01
    1.3679905701e+02   -3.1715299606e+01
    1.3689909363e+02   -3.1805900574e+01
    1.3699908447e+02   -3.1896499634e+01
    1.3709906006e+02   -3.1987300873e+01
    1.3719906616e+02   -3.2078300476e+01
    1.3729916382e+02   -3.2169498444e+01
    1.3739907837e+02   -3.2260700226e+01
    1.3749917603e+02   -3.2352298737e+01
    1.3759913635e+02   -3.2443901062e+01
    1.3769915771e+02   -3.2535701752e+01
    1.3779910278e+02   -3.2627601624e+01
    1.3789909363e+02   -3.2719699860e+01
    1.3799916077e+02   -3.2812099457e+01
    1.3809918213e+02   -3.2904598236e+01
    1.3819912720e+02   -3.2997200012e+01
    1.3829916382e+02   -3.3090000153e+01
    1.3839921570e+02   -3.3182998657e+01
    1.3849920654e+02   -3.3276199341e+01
    1.3859919739e+02   -3.3369400024e+01
    1.3869914246e+02   -3.3462799072e+01
    1.3879920959e+02   -3.3556499481e+01
    1.3889915466e+02   -3.3650199890e+01
    1.3899919128e+02   -3.3744201660e+01
    1.3909927368e+02   -3.3838298798e+01
    1.3919917297e+02   -3.3932498932e+01
    1.3929917908e+02   -3.4027000427e+01
    1.3939923096e+02   -3.4121601105e+01
    1.3949920654e+02   -3.4216300964e+01
    1.3959925842e+02   -3.4311298370e+01
    1.3969920349e+02   -3.4406398773e+01
    1.3979931641e+02   -3.4501800537e+01
    1.3989927673e+02   -3.4597198486e+01
    1.3999925232e+02   -3.4692798615e+01
    1.4009933472e+02   -3.4788700104e+01
    1.4019931030e+02   -3.4884601593e+01
    1.4029933167e+02   -3.4980701447e+01
    1.4039932251e+02   -3.5076999664e+01
    1.4049926758e+02   -3.5173301697e+01
    1.4059934998e+02   -3.5270000458e+01
    1.4069934082e+02   -3.5366798401e+01
    1.4079931641e+02   -3.5463699341e+01
    1.4089936829e+02   -3.5560798645e+01
    1.4099938965e+02   -3.5658100128e+01
    1.4109931946e+02   -3.5755500793e+01
    1.4119937134e+02   -3.5853099823e+01
    1.4129930115e+02   -3.5950801849e+01
    1.4139930725e+02   -3.6048698425e+01
    1.4149932861e+02   -3.6146800995e+01
    1.4159939575e+02   -3.6245098114e+01
    1.4169932556e+02   -3.6343399048e+01
    1.4179934692e+02   -3.6442001343e+01
    1.4189935303e+02   -3.6540599823e+01
    1.4199943542e+02   -3.6639598846e+01
    1.4209941101e+02   -3.6738601685e+01
    1.4219935608e+02   -3.6837699890e+01
    1.4229942322e+02   -3.6937099457e+01
    1.4239945984e+02   -3.7036701202e+01
    1.4249937439e+02   -3.7136199951e+01
    1.4259945679e+02   -3.7236099243e+01
    1.4269938660e+02   -3.7336101532e+01
    1.4279939270e+02   -3.7436199188e+01
    1.4289945984e+02   -3.7536598206e+01
    1.4299948120e+02   -3.7637100220e+01
    1.4309945679e+02   -3.7737701416e+01
    1.4319949341e+02   -3.7838500977e+01
    1.4329953003e+02   -3.7939399719e+01
    1.4339950562e+02   -3.8040500641e+01
    1.4349946594e+02   -3.8141700745e+01
    1.4359950256e+02   -3.8243099213e+01
    1.4369952393e+02   -3.8344699860e+01
    1.4379954529e+02   -3.8446498871e+01
    1.4389953613e+02   -3.8548400879e+01
    1.4399952698e+02   -3.8650398254e+01
    1.4409951782e+02   -3.8752601624e+01
    1.4419955444e+02   -3.8854999542e+01
    1.4429953003e+02   -3.8957500458e+01
    1.4439955139e+02   -3.9060199738e+01
    1.4449952698e+02   -3.9163101196e+01
    1.4459953308e+02   -3.9265998840e+01
    1.4469961548e+02   -3.9369300842e+01
    1.4479951477e+02   -3.9472400665e+01
    1.4489961243e+02   -3.9576000214e+01
    1.4499952698e+02   -3.9679500580e+01
    1.4509954834e+02   -3.9783298492e+01
    1.4519958496e+02   -3.9887298584e+01
    1.4529956055e+02   -3.9991401672e+01
    1.4539956665e+02   -4.0095699310e+01
    1.4549957275e+02   -4.0200099945e+01
    1.4559965515e+02   -4.0304798126e+01
    1.4569964600e+02   -4.0409500122e+01
    1.4579960632e+02   -4.0514301300e+01
    1.4589962769e+02   -4.0619400024e+01
    1.4599967957e+02   -4.0724601746e+01
    1.4609959412e+02   -4.0829898834e+01
    1.4619961548e+02   -4.0935298920e+01
    1.4629966736e+02   -4.1041000366e+01
    1.4639967346e+02   -4.1146800995e+01
    1.4649966431e+02   -4.1252799988e+01
    1.4659965515e+02   -4.1358798981e+01
    1.4669970703e+02   -4.1465099335e+01
    1.4679968262e+02   -4.1571498871e+01
    1.4689971924e+02   -4.1678100586e+01
    1.4699975586e+02   -4.1784801483e+01
    1.4709971619e+02   -4.1891700745e+01
    1.4719967651e+02   -4.1998600006e+01
    1.4729966736e+02   -4.2105701447e+01
    1.4739979553e+02   -4.2213100433e+01
    1.4749972534e+02   -4.2320499420e+01
    1.4759971619e+02   -4.2428100586e+01
    1.4769975281e+02   -4.2535900116e+01
    1.4779969788e+02   -4.2643699646e+01
    1.4789979553e+02   -4.2751800537e+01
    1.4799975586e+02   -4.2860000610e+01
    1.4809979248e+02   -4.2968399048e+01
    1.4819981384e+02   -4.3076900482e+01
    1.4829972839e+02   -4.3185398102e+01
    1.4839982605e+02   -4.3294300079e+01
    1.4849983215e+02   -4.3403301239e+01
    1.4859982300e+02   -4.3512298584e+01
    1.4869975281e+02   -4.3621398926e+01
    1.4879983521e+02   -4.3730899811e+01
    1.4889985657e+02   -4.3840400696e+01
    1.4899984741e+02   -4.3950000763e+01
    1.4909980774e+02   -4.4059700012e+01
    1.4919979858e+02   -4.4169700623e+01
    1.4929986572e+02   -4.4279800415e+01
    1.4939985657e+02   -4.4389999390e+01
    1.4949980164e+02   -4.4500301361e+01
    1.4959986877e+02   -4.4610900879e+01
    1.4969992065e+02   -4.4721599579e+01
    1.4979991150e+02   -4.4832401276e+01
    1.4989985657e+02   -4.4943298340e+01
    1.4999987793e+02   -4.5054401398e+01
    1.5009994507e+02   -4.5165699005e+01
    1.5019990540e+02   -4.5277000427e+01
    1.5029992676e+02   -4.5388500214e+01
    1.5039991760e+02   -4.5500099182e+01
    1.5049987793e+02   -4.5611900330e+01
    1.5059985352e+02   -4.5723800659e+01
    1.5069995117e+02   -4.5835998535e+01
    1.5079997253e+02   -4.5948200226e+01
    1.5089991760e+02   -4.6060501099e+01
    1.5099992371e+02   -4.6173000336e+01
    1.5110000610e+02   -4.6285701752e+01
    1.5119998169e+02   -4.6398498535e+01
    1.5129997253e+02   -4.6511398315e+01
    1.5140002441e+02   -4.6624500275e+01
    1.5149993896e+02   -4.6737598419e+01
    1.5160003662e+02   -4.6851001740e+01
    1.5169993591e+02   -4.6964298248e+01
    1.5179997253e+02   -4.7077999115e+01
    1.5189997864e+02   -4.7191699982e+01
    1.5200001526e+02   -4.7305599213e+01
    1.5209997559e+02   -4.7419498444e+01
    1.5219999695e+02   -4.7533599854e+01
    1.5230003357e+02   -4.7647998810e+01
    1.5239999390e+02   -4.7762298584e+01
    1.5249998474e+02   -4.7876800537e+01
    1.5260005188e+02   -4.7991600037e+01
    1.5270010376e+02   -4.8106399536e+01
    1.5280001831e+02   -4.8221298218e+01
    1.5290007019e+02   -4.8336399078e+01
    1.5300007629e+02   -4.8451599121e+01
    1.5310009766e+02   -4.8567001343e+01
    1.5320007324e+02   -4.8682399750e+01
    1.5330003357e+02   -4.8797901154e+01
    1.5340014648e+02   -4.8913799286e+01
    1.5350007629e+02   -4.9029499054e+01
    1.5360015869e+02   -4.9145599365e+01
    1.5370014954e+02   -4.9261699677e+01
    1.5380009460e+02   -4.9377998352e+01
    1.5390017700e+02   -4.9494400024e+01
    1.5400010681e+02   -4.9610900879e+01
    1.5410015869e+02   -4.9727600098e+01
    1.5420018005e+02   -4.9844398499e+01
    1.5430018616e+02   -4.9961299896e+01
    1.5440011597e+02   -5.0078300476e+01
    1.5450010681e+02   -5.0195400238e+01
    1.5460020447e+02   -5.0312801361e+01
    1.5470019531e+02   -5.0430198669e+01
    1.5480012512e+02   -5.0547698975e+01
    1.5490022278e+02   -5.0665500641e+01
    1.5500015259e+02   -5.0783199310e+01
    1.5510014343e+02   -5.0901100159e+01
    1.5520022583e+02   -5.1019298553e+01
    1.5530020142e+02   -5.1137500763e+01
    1.5540017700e+02   -5.1255798340e+01
    1.5550019836e+02   -5.1374298096e+01
    1.5560020447e+02   -5.1492900848e+01
    1.5570025635e+02   -5.1611598969e+01
    1.5580026245e+02   -5.1730499268e+01
    1.5590023804e+02   -5.1849399567e+01
    1.5600022888e+02   -5.1968498230e+01
    1.5610029602e+02   -5.2087699890e+01
    1.5620021057e+02   -5.2206901550e+01
    1.5630032349e+02   -5.2326499939e+01
    1.5640031433e+02   -5.2445999146e+01
    1.5650030518e+02   -5.2565700531e+01
    1.5660029602e+02   -5.2685501099e+01
    1.5670033264e+02   -5.2805500031e+01
    1.5680030823e+02   -5.2925498962e+01
    1.5690025330e+02   -5.3045600891e+01
    1.5700027466e+02   -5.3165901184e+01
    1.5710026550e+02   -5.3286300659e+01
    1.5720031738e+02   -5.3406799316e+01
    1.5730035400e+02   -5.3527500153e+01
    1.5740037537e+02   -5.3648200989e+01
    1.5750038147e+02   -5.3769100189e+01
    1.5760031128e+02   -5.3889999390e+01
    1.5770039368e+02   -5.4011100769e+01
    1.5780036926e+02   -5.4132301331e+01
    1.5790037537e+02   -5.4253601074e+01
    1.5800041199e+02   -5.4375000000e+01
    1.5810038757e+02   -5.4496498108e+01
    1.5820042419e+02   -5.4618198395e+01
    1.5830032349e+02   -5.4739898682e+01
    1.5840034485e+02   -5.4861698151e+01
    1.5850036621e+02   -5.4983699799e+01
    1.5860044861e+02   -5.5105800629e+01
    1.5870036316e+02   -5.5227901459e+01
    1.5880047607e+02   -5.5350299835e+01
    1.5890037537e+02   -5.5472499847e+01
    1.5900047302e+02   -5.5595100403e+01
    1.5910049438e+02   -5.5717700958e+01
    1.5920039368e+02   -5.5840301514e+01
    1.5930043030e+02   -5.5963100433e+01
    1.5940042114e+02   -5.6085998535e+01
    1.5950047302e+02   -5.6208999634e+01
    1.5960052490e+02   -5.6332199097e+01
    1.5970053101e+02   -5.6455501556e+01
    1.5980053711e+02   -5.6578800201e+01
    1.5990049744e+02   -5.6702201843e+01
    1.6000045776e+02   -5.6825599670e+01
    1.6010049438e+02   -5.6949298859e+01
    1.6020046997e+02   -5.7073001862e+01
    1.6030052185e+02   -5.7196800232e+01
    1.6040048218e+02   -5.7320701599e+01
    1.6050054932e+02   -5.7444801331e+01
    1.6060049438e+02   -5.7568801880e+01
    1.6070048523e+02   -5.7693000793e+01
    1.6080056763e+02   -5.7817401886e+01
    1.6090049744e+02   -5.7941799164e+01
    1.6100057983e+02   -5.8066398621e+01
    1.6110055542e+02   -5.8191001892e+01
    1.6120051575e+02   -5.8315601349e+01
    1.6130055237e+02   -5.8440498352e+01
    1.6140057373e+02   -5.8565399170e+01
    1.6150057983e+02   -5.8690399170e+01
    1.6160055542e+02   -5.8815498352e+01
    1.6170054626e+02   -5.8940601349e+01
    1.6180055237e+02   -5.9065898895e+01
    1.6190063477e+02   -5.9191299438e+01
    1.6200057983e+02   -5.9316699982e+01
    1.6210064697e+02   -5.9442298889e+01
    1.6220062256e+02   -5.9567901611e+01
    1.6230064392e+02   -5.9693599701e+01
    1.6240063477e+02   -5.9819400787e+01
    1.6250061035e+02   -5.9945301056e+01
    1.6260064697e+02   -6.0071300507e+01
    1.6270060730e+02   -6.0197399139e+01
    1.6280061340e+02   -6.0323600769e+01
    1.6290072632e+02   -6.0450000763e+01
    1.6300065613e+02   -6.0576198578e+01
    1.6310072327e+02   -6.0702701569e+01
    1.6320071411e+02   -6.0829200745e+01
    1.6330064392e+02   -6.0955699921e+01
    1.6340066528e+02   -6.1082401276e+01
    1.6350073242e+02   -6.1209201813e+01
    1.6360075378e+02   -6.1336101532e+01
    1.6370065308e+02   -6.1462898254e+01
    1.6380067444e+02   -6.1590000153e+01
    1.6390072632e+02   -6.1717201233e+01
    1.6400076294e+02   -6.1844398499e+01
    1.6410072327e+02   -6.1971599579e+01
    1.6420074463e+02   -6.2098999023e+01
    1.6430081177e+02   -6.2226501465e+01
    1.6440081787e+02   -6.2354000092e+01
    1.6450073242e+02   -6.2481498718e+01
    1.6460072327e+02   -6.2609199524e+01
    1.6470074463e+02   -6.2736999512e+01
    1.6480076599e+02   -6.2864799500e+01
    1.6490077209e+02   -6.2992698669e+01
    1.6500077820e+02   -6.3120700836e+01
    1.6510084534e+02   -6.3248901367e+01
    1.6520083618e+02   -6.3376998901e+01
    1.6530078125e+02   -6.3505199432e+01
    1.6540083313e+02   -6.3633598328e+01
    1.6550085449e+02   -6.3762100220e+01
    1.6560078430e+02   -6.3890499115e+01
    1.6570080566e+02   -6.4019096375e+01
    1.6580087280e+02   -6.4147796631e+01
    1.6590087891e+02   -6.4276496887e+01
    1.6600083923e+02   -6.4405197144e+01
    1.6610086060e+02   -6.4534103394e+01
    1.6620086670e+02   -6.4663002014e+01
    1.6630090332e+02   -6.4791999817e+01
    1.6640092468e+02   -6.4921096802e+01
    1.6650088501e+02   -6.5050201416e+01
    1.6660093689e+02   -6.5179496765e+01
    1.6670091248e+02   -6.5308700562e+01
    1.6680088806e+02   -6.5438003540e+01
    1.6690092468e+02   -6.5567497253e+01
    1.6700097656e+02   -6.5697097778e+01
    1.6710096741e+02   -6.5826599121e+01
    1.6720089722e+02   -6.5956100464e+01
    1.6730087280e+02   -6.6085800171e+01
    1.6740092468e+02   -6.6215599060e+01
    1.6750097656e+02   -6.6345497131e+01
    1.6760099792e+02   -6.6475402832e+01
    1.6770101929e+02   -6.6605300903e+01
    1.6780101013e+02   -6.6735298157e+01
    1.6790098572e+02   -6.6865303040e+01
    1.6800102234e+02   -6.6995498657e+01
    1.6810104370e+02   -6.7125701904e+01
    1.6820094299e+02   -6.7255798340e+01
    1.6830096436e+02   -6.7386199951e+01
    1.6840101624e+02   -6.7516601562e+01
    1.6850100708e+02   -6.7647003174e+01
    1.6860104370e+02   -6.7777496338e+01
    1.6870101929e+02   -6.7907997131e+01
    1.6880102539e+02   -6.8038497925e+01
    1.6890104675e+02   -6.8169197083e+01
    1.6900109863e+02   -6.8299896240e+01
    1.6910110474e+02   -6.8430702209e+01
    1.6920109558e+02   -6.8561401367e+01
    1.6930108643e+02   -6.8692298889e+01
    1.6940104675e+02   -6.8823097229e+01
    1.6950109863e+02   -6.8954101562e+01
    1.6960104370e+02   -6.9085098267e+01
    1.6970103455e+02   -6.9216102600e+01
    1.6980105591e+02   -6.9347198486e+01
    1.6990113831e+02   -6.9478500366e+01
    1.7000112915e+02   -6.9609703064e+01
    1.7010112000e+02   -6.9740898132e+01
    1.7020114136e+02   -6.9872200012e+01
    1.7030111694e+02   -7.0003501892e+01
    1.7040115356e+02   -7.0134902954e+01
    1.7050119019e+02   -7.0266403198e+01
    1.7060113525e+02   -7.0397796631e+01
    1.7070112610e+02   -7.0529296875e+01
    1.7080108643e+02   -7.0660797119e+01
    1.7090118408e+02   -7.0792503357e+01
    1.7100115967e+02   -7.0924102783e+01
    1.7110116577e+02   -7.1055801392e+01
    1.7120118713e+02   -7.1187599182e+01
    1.7130119324e+02   -7.1319396973e+01
    1.7140113831e+02   -7.1451103210e+01
    1.7150120544e+02   -7.1583000183e+01
    1.7160122681e+02   -7.1714897156e+01
    1.7170126343e+02   -7.1846900940e+01
    1.7180119324e+02   -7.1978698730e+01
    1.7190122986e+02   -7.2110702515e+01
    1.7200123596e+02   -7.2242797852e+01
    1.7210128784e+02   -7.2374900818e+01
    1.7220129395e+02   -7.2507003784e+01
    1.7230122375e+02   -7.2638999939e+01
    1.7240121460e+02   -7.2771102905e+01
    1.7250120544e+02   -7.2903297424e+01
    1.7260130310e+02   -7.3035697937e+01
    1.7270127869e+02   -7.3167900085e+01
    1.7280125427e+02   -7.3300102234e+01
    1.7290126038e+02   -7.3432403564e+01
    1.7300132751e+02   -7.3564903259e+01
    1.7310130310e+02   -7.3697196960e+01
    1.7320129395e+02   -7.3829597473e+01
    1.7330125427e+02   -7.3961997986e+01
    1.7340130615e+02   -7.4094497681e+01
    1.7350128174e+02   -7.4226898193e+01
    1.7360136414e+02   -7.4359596252e+01
    1.7370129395e+02   -7.4491996765e+01
    1.7380130005e+02   -7.4624603271e+01
    1.7390133667e+02   -7.4757301331e+01
    1.7400135803e+02   -7.4889900208e+01
    1.7410136414e+02   -7.5022598267e+01
    1.7420133972e+02   -7.5155296326e+01
    1.7430136108e+02   -7.5288002014e+01
    1.7440133667e+02   -7.5420700073e+01
    1.7450135803e+02   -7.5553497314e+01
    1.7460136414e+02   -7.5686302185e+01
    1.7470143127e+02   -7.5819198608e+01
    1.7480136108e+02   -7.5951896667e+01
    1.7490138245e+02   -7.6084800720e+01
    1.7500143433e+02   -7.6217697144e+01
    1.7510142517e+02   -7.6350601196e+01
    1.7520144653e+02   -7.6483596802e+01
    1.7530148315e+02   -7.6616600037e+01
    1.7540142822e+02   -7.6749496460e+01
    1.7550138855e+02   -7.6882400513e+01
    1.7560144043e+02   -7.7015502930e+01
    1.7570140076e+02   -7.7148498535e+01
    1.7580145264e+02   -7.7281600952e+01
    1.7590147400e+02   -7.7414596558e+01
    1.7600146484e+02   -7.7547698975e+01
    1.7610144043e+02   -7.7680702209e+01
    1.7620147705e+02   -7.7813903809e+01
    1.7630143738e+02   -7.7946899414e+01
    1.7640147400e+02   -7.8080101013e+01
    1.7650144958e+02   -7.8213096619e+01
    1.7660148621e+02   -7.8346298218e+01
    1.7670156860e+02   -7.8479598999e+01
    1.7680151367e+02   -7.8612602234e+01
    1.7690147400e+02   -7.8745697021e+01
    1.7700157166e+02   -7.8878997803e+01
    1.7710156250e+02   -7.9012199402e+01
    1.7720158386e+02   -7.9145401001e+01
    1.7730155945e+02   -7.9278503418e+01
    1.7740155029e+02   -7.9411697388e+01
    1.7750152588e+02   -7.9544898987e+01
    1.7760162354e+02   -7.9678199768e+01
    1.7770158386e+02   -7.9811302185e+01
    1.7780152893e+02   -7.9944503784e+01
    1.7790158081e+02   -8.0077697754e+01
    1.7800163269e+02   -8.0210998535e+01
    1.7810162354e+02   -8.0344200134e+01
    1.7820158386e+02   -8.0477302551e+01
    1.7830160522e+02   -8.0610603333e+01
    1.7840159607e+02   -8.0743797302e+01
    1.7850163269e+02   -8.0876998901e+01
    1.7860165405e+02   -8.1010200500e+01
    1.7870164490e+02   -8.1143302917e+01
    1.7880168152e+02   -8.1276496887e+01
    1.7890164185e+02   -8.1409599304e+01
    1.7900161743e+02   -8.1542701721e+01
    1.7910168457e+02   -8.1676002502e+01
    1.7920170593e+02   -8.1809196472e+01
    1.7930162048e+02   -8.1942199707e+01
    1.7940165710e+02   -8.2075302124e+01
    1.7950169373e+02   -8.2208503723e+01
    1.7960171509e+02   -8.2341598511e+01
    1.7970167542e+02   -8.2474700928e+01
    1.7980174255e+02   -8.2607902527e+01
    1.7990176392e+02   -8.2740997314e+01
    1.8000172424e+02   -8.2874000549e+01
    1.8010168457e+02   -8.3007003784e+01
    1.8020173645e+02   -8.3139999390e+01
    1.8030177307e+02   -8.3273101807e+01
    1.8040176392e+02   -8.3406097412e+01
    1.8050169373e+02   -8.3538902283e+01
    1.8060173035e+02   -8.3671897888e+01
    1.8070175171e+02   -8.3804901123e+01
    1.8080180359e+02   -8.3937896729e+01
    1.8090173340e+02   -8.4070701599e+01
    1.8100181580e+02   -8.4203697205e+01
    1.8110183716e+02   -8.4336601257e+01
    1.8120181274e+02   -8.4469398499e+01
    1.8130180359e+02   -8.4602203369e+01
    1.8140182495e+02   -8.4735000610e+01
    1.8150178528e+02   -8.4867797852e+01
    1.8160180664e+02   -8.5000503540e+01
    1.8170181274e+02   -8.5133300781e+01
    1.8180178833e+02   -8.5265998840e+01
    1.8190188599e+02   -8.5398803711e+01
    1.8200183105e+02   -8.5531303406e+01
    1.8210185242e+02   -8.5664001465e+01
    1.8220187378e+02   -8.5796600342e+01
    1.8230183411e+02   -8.5929100037e+01
    1.8240188599e+02   -8.6061798096e+01
    1.8250183105e+02   -8.6194198608e+01
    1.8260186768e+02   -8.6326698303e+01
    1.8270191956e+02   -8.6459297180e+01
    1.8280183411e+02   -8.6591598511e+01
    1.8290191650e+02   -8.6724098206e+01
    1.8300192261e+02   -8.6856498718e+01
    1.8310188293e+02   -8.6988700867e+01
    1.8320190430e+02   -8.7121101379e+01
    1.8330195618e+02   -8.7253402710e+01
    1.8340190125e+02   -8.7385597229e+01
    1.8350192261e+02   -8.7517799377e+01
    1.8360197449e+02   -8.7650100708e+01
    1.8370188904e+02   -8.7782096863e+01
    1.8380192566e+02   -8.7914299011e+01
    1.8390199280e+02   -8.8046401978e+01
    1.8400198364e+02   -8.8178497314e+01
    1.8410194397e+02   -8.8310401917e+01
    1.8420199585e+02   -8.8442398071e+01
    1.8430201721e+02   -8.8574401855e+01
    1.8440193176e+02   -8.8706100464e+01
    1.8450204468e+02   -8.8837997437e+01
    1.8460197449e+02   -8.8969703674e+01
    1.8470205688e+02   -8.9101501465e+01
    1.8480204773e+02   -8.9233100891e+01
    1.8490199280e+02   -8.9364601135e+01
    1.8500199890e+02   -8.9496101379e+01
    1.8510203552e+02   -8.9627601624e+01
    1.8520199585e+02   -8.9758903503e+01
    1.8530198669e+02   -8.9890296936e+01
    1.8540206909e+02   -9.0021697998e+01
    1.8550205994e+02   -9.0152900696e+01
    1.8560209656e+02   -9.0284103394e+01
    1.8570208740e+02   -9.0415199280e+01
    1.8580206299e+02   -9.0546203613e+01
    1.8590205383e+02   -9.0677101135e+01
    1.8600204468e+02   -9.0807899475e+01
    1.8610209656e+02   -9.0938697815e+01
    1.8620207214e+02   -9.1069396973e+01
    1.8630206299e+02   -9.1199996948e+01
    1.8640211487e+02   -9.1330497742e+01
    1.8650210571e+02   -9.1460899353e+01
    1.8660217285e+02   -9.1591400146e+01
    1.8670211792e+02   -9.1721603394e+01
    1.8680206299e+02   -9.1851699829e+01
    1.8690208435e+02   -9.1981903076e+01
    1.8700212097e+02   -9.2111999512e+01
    1.8710218811e+02   -9.2241996765e+01
    1.8720219421e+02   -9.2371902466e+01
    1.8730221558e+02   -9.2501701355e+01
    1.8740216064e+02   -9.2631301880e+01
    1.8750219727e+02   -9.2761001587e+01
    1.8760221863e+02   -9.2890502930e+01
    1.8770213318e+02   -9.3019798279e+01
    1.8780223083e+02   -9.3149299622e+01
    1.8790220642e+02   -9.3278503418e+01
    1.8800221252e+02   -9.3407699585e+01
    1.8810220337e+02   -9.3536796570e+01
    1.8820216370e+02   -9.3665802002e+01
    1.8830226135e+02   -9.3794799805e+01
    1.8840219116e+02   -9.3923599243e+01
    1.8850224304e+02   -9.4052497864e+01
    1.8860223389e+02   -9.4181198120e+01
    1.8870225525e+02   -9.4309898376e+01
    1.8880221558e+02   -9.4438499451e+01
    1.8890226746e+02   -9.4567100525e+01
    1.8900221252e+02   -9.4695396423e+01
    1.8910224915e+02   -9.4823898315e+01
    1.8920222473e+02   -9.4952102661e+01
    1.8930224609e+02   -9.5080299377e+01
    1.8940228271e+02   -9.5208396912e+01
    1.8950231934e+02   -9.5336402893e+01
    1.8960231018e+02   -9.5464302063e+01
    1.8970231628e+02   -9.5592002869e+01
    1.8980236816e+02   -9.5719703674e+01
    1.8990229797e+02   -9.5847198486e+01
    1.9000227356e+02   -9.5974502563e+01
    1.9010227966e+02   -9.6101799011e+01
    1.9020233154e+02   -9.6228996277e+01
    1.9030233765e+02   -9.6356101990e+01
    1.9040235901e+02   -9.6483001709e+01
    1.9050239563e+02   -9.6609802246e+01
    1.9060241699e+02   -9.6736503601e+01
    1.9070234680e+02   -9.6862998962e+01
    1.9080239868e+02   -9.6989501953e+01
    1.9090234375e+02   -9.7115699768e+01
    1.9100241089e+02   -9.7241897583e+01
    1.9110238647e+02   -9.7367996216e+01
    1.9120240784e+02   -9.7493896484e+01
    1.9130241394e+02   -9.7619697571e+01
    1.9140243530e+02   -9.7745399475e+01
    1.9150239563e+02   -9.7870796204e+01
    1.9160237122e+02   -9.7996200562e+01
    1.9170245361e+02   -9.8121597290e+01
    1.9180244446e+02   -9.8246696472e+01
    1.9190237427e+02   -9.8371696472e+01
    1.9200250244e+02   -9.8496696472e+01
    1.9210243225e+02   -9.8621299744e+01
    1.9220249939e+02   -9.8746002197e+01
    1.9230242920e+02   -9.8870399475e+01
    1.9240243530e+02   -9.8994697571e+01
    1.9250247192e+02   -9.9118896484e+01
    1.9260249329e+02   -9.9242897034e+01
    1.9270254517e+02   -9.9366798401e+01
    1.9280252075e+02   -9.9490402222e+01
    1.9290252686e+02   -9.9613899231e+01
    1.9300245667e+02   -9.9737197876e+01
    1.9310247803e+02   -9.9860397339e+01
    1.9320249939e+02   -9.9983497620e+01
    1.9330253601e+02   -1.0010600281e+02
    1.9340252686e+02   -1.0022899628e+02
    1.9350250244e+02   -1.0035099792e+02
    1.9360249329e+02   -1.0047399902e+02
    1.9370248413e+02   -1.0059600067e+02
    1.9380250549e+02   -1.0071800232e+02
    1.9390258789e+02   -1.0083999634e+02
    1.9400256348e+02   -1.0096199799e+02
    1.9410258484e+02   -1.0108300018e+02
    1.9420263672e+02   -1.0120400238e+02
    1.9430256653e+02   -1.0132599640e+02
    1.9440257263e+02   -1.0144599915e+02
[...]
    2.5130607605e+02   -1.3114199829e+02
    2.5140608215e+02   -1.3112899780e+02
    2.5150602722e+02   -1.3111599731e+02
    2.5160603333e+02   -1.3110400391e+02
    2.5170605469e+02   -1.3109100342e+02
    2.5180613708e+02   -1.3107800293e+02
    2.5190614319e+02   -1.3106500244e+02
    2.5200607300e+02   -1.3105200195e+02
    2.5210610962e+02   -1.3103900146e+02
    2.5220608521e+02   -1.3102499390e+02
    2.5230612183e+02   -1.3101199341e+02
    2.5240609741e+02   -1.3099899292e+02
    2.5250613403e+02   -1.3098599243e+02
    2.5260618591e+02   -1.3097200012e+02
    2.5270611572e+02   -1.3095899963e+02
    2.5280613708e+02   -1.3094500732e+02
    2.5290618896e+02   -1.3093200684e+02
    2.5300621033e+02   -1.3091799927e+02
    2.5310612488e+02   -1.3090400696e+02
    2.5320617676e+02   -1.3089100647e+02
    2.5330613708e+02   -1.3087699890e+02
    2.5340620422e+02   -1.3086300659e+02
    2.5350624084e+02   -1.3085000610e+02
    2.5360624695e+02   -1.3083599854e+02
    2.5370623779e+02   -1.3082200623e+02
    2.5380618286e+02   -1.3080799866e+02
    2.5390621948e+02   -1.3079400635e+02
    2.5400625610e+02   -1.3078100586e+02
    2.5410621643e+02   -1.3076699829e+02
    2.5420622253e+02   -1.3075300598e+02
    2.5430627441e+02   -1.3073899841e+02
    2.5440623474e+02   -1.3072500610e+02
    2.5450622559e+02   -1.3071099854e+02
    2.5460627747e+02   -1.3069700623e+02
    2.5470628357e+02   -1.3068400574e+02
    2.5480628967e+02   -1.3066999817e+02
    2.5490631104e+02   -1.3065600586e+02
    2.5500633240e+02   -1.3064199829e+02
    2.5510626221e+02   -1.3062800598e+02
    2.5520626831e+02   -1.3061399841e+02
    2.5530630493e+02   -1.3060000610e+02
    2.5540634155e+02   -1.3058599854e+02
    2.5550634766e+02   -1.3057200623e+02
    2.5560629272e+02   -1.3055799866e+02
    2.5570628357e+02   -1.3054299927e+02
    2.5580636597e+02   -1.3052900696e+02
    2.5590632629e+02   -1.3051499939e+02
    2.5600634766e+02   -1.3050000000e+02
    2.5610635376e+02   -1.3048599243e+02
    2.5620635986e+02   -1.3047099304e+02
    2.5630639648e+02   -1.3045700073e+02
    2.5640634155e+02   -1.3044200134e+02
    2.5650631714e+02   -1.3042700195e+02
    2.5660635376e+02   -1.3041299438e+02
    2.5670635986e+02   -1.3039799500e+02
    2.5680636597e+02   -1.3038299561e+02
    2.5690643311e+02   -1.3036799622e+02
    2.5700634766e+02   -1.3035299683e+02
    2.5710641479e+02   -1.3033700562e+02
    2.5720639038e+02   -1.3032200623e+02
    2.5730642700e+02   -1.3030700684e+02
    2.5740640259e+02   -1.3029100037e+02
    2.5750643921e+02   -1.3027600098e+02
    2.5760641479e+02   -1.3025999451e+02
    2.5770639038e+02   -1.3024499512e+02
    2.5780639648e+02   -1.3022900391e+02
    2.5790649414e+02   -1.3021299744e+02
    2.5800650024e+02   -1.3019700623e+02
    2.5810647583e+02   -1.3018099976e+02
    2.5820642090e+02   -1.3016499329e+02
    2.5830648804e+02   -1.3014900208e+02
    2.5840649414e+02   -1.3013299561e+02
    2.5850646973e+02   -1.3011599731e+02
    2.5860641479e+02   -1.3010000610e+02
    2.5870654297e+02   -1.3008399963e+02
    2.5880648804e+02   -1.3006799316e+02
    2.5890652466e+02   -1.3005099487e+02
    2.5900653076e+02   -1.3003500366e+02
    2.5910656738e+02   -1.3001800537e+02
    2.5920648193e+02   -1.3000199890e+02
    2.5930657959e+02   -1.2998500061e+02
    2.5940649414e+02   -1.2996800232e+02
    2.5950659180e+02   -1.2995199585e+02
    2.5960659790e+02   -1.2993499756e+02
    2.5970654297e+02   -1.2991799927e+02
    2.5980651855e+02   -1.2990100098e+02
    2.5990655518e+02   -1.2988400269e+02
    2.6000656128e+02   -1.2986700439e+02
    2.6010653687e+02   -1.2985000610e+02
    2.6020660400e+02   -1.2983200073e+02
    2.6030654907e+02   -1.2981500244e+02
    2.6040655518e+02   -1.2979699707e+02
    2.6050665283e+02   -1.2977999878e+02
    2.6060662842e+02   -1.2976199341e+02
    2.6070657349e+02   -1.2974400330e+02
    2.6080667114e+02   -1.2972599792e+02
    2.6090664673e+02   -1.2970799255e+02
    2.6100662231e+02   -1.2969000244e+02
    2.6110665894e+02   -1.2967199707e+02
    2.6120666504e+02   -1.2965400696e+02
    2.6130667114e+02   -1.2963499451e+02
    2.6140664673e+02   -1.2961700439e+02
    2.6150665283e+02   -1.2959800720e+02
    2.6160665894e+02   -1.2957899475e+02
    2.6170666504e+02   -1.2955999756e+02
    2.6180664062e+02   -1.2954100037e+02
    2.6190673828e+02   -1.2952200317e+02
    2.6200665283e+02   -1.2950300598e+02
    2.6210665894e+02   -1.2948399353e+02
    2.6220666504e+02   -1.2946400452e+02
    2.6230670166e+02   -1.2944400024e+02
    2.6240670776e+02   -1.2942500305e+02
    2.6250668335e+02   -1.2940499878e+02
    2.6260678101e+02   -1.2938499451e+02
    2.6270669556e+02   -1.2936500549e+02
    2.6280670166e+02   -1.2934500122e+02
    2.6290676880e+02   -1.2932400513e+02
    2.6300671387e+02   -1.2930400085e+02
    2.6310678101e+02   -1.2928300476e+02
    2.6320678711e+02   -1.2926300049e+02
    2.6330682373e+02   -1.2924200439e+02
    2.6340682983e+02   -1.2922099304e+02
    2.6350680542e+02   -1.2919999695e+02
    2.6360675049e+02   -1.2917900085e+02
    2.6370678711e+02   -1.2915699768e+02
    2.6380685425e+02   -1.2913600159e+02
    2.6390679932e+02   -1.2911500549e+02
    2.6400680542e+02   -1.2909300232e+02
    2.6410687256e+02   -1.2907099915e+02
    2.6420678711e+02   -1.2905000305e+02
    2.6430679321e+02   -1.2902799988e+02
    2.6440686035e+02   -1.2900599670e+02
    2.6450686646e+02   -1.2898300171e+02
    2.6460684204e+02   -1.2896099854e+02
    2.6470684814e+02   -1.2893899536e+02
    2.6480682373e+02   -1.2891600037e+02
    2.6490682983e+02   -1.2889399719e+02
    2.6500686646e+02   -1.2887100220e+02
    2.6510693359e+02   -1.2884800720e+02
    2.6520687866e+02   -1.2882499695e+02
    2.6530685425e+02   -1.2880200195e+02
    2.6540689087e+02   -1.2877799988e+02
    2.6550689697e+02   -1.2875500488e+02
    2.6560690308e+02   -1.2873100281e+02
    2.6570687866e+02   -1.2870700073e+02
    2.6580694580e+02   -1.2868299866e+02
    2.6590698242e+02   -1.2865899658e+02
    2.6600695801e+02   -1.2863499451e+02
    2.6610696411e+02   -1.2861000061e+02
    2.6620690918e+02   -1.2858500671e+02
    2.6630694580e+02   -1.2855999756e+02
    2.6640698242e+02   -1.2853500366e+02
    2.6650692749e+02   -1.2850999451e+02
    2.6660696411e+02   -1.2848500061e+02
    2.6670703125e+02   -1.2845899963e+02
    2.6680691528e+02   -1.2843299866e+02
    2.6690698242e+02   -1.2840699768e+02
    2.6700704956e+02   -1.2838099670e+02
    2.6710702515e+02   -1.2835499573e+02
    2.6720697021e+02   -1.2832899475e+02
    2.6730706787e+02   -1.2830200195e+02
    2.6740707397e+02   -1.2827499390e+02
    2.6750701904e+02   -1.2824800110e+02
    2.6760705566e+02   -1.2822099304e+02
    2.6770700073e+02   -1.2819400024e+02
    2.6780709839e+02   -1.2816700745e+02
    2.6790710449e+02   -1.2813900757e+02
    2.6800704956e+02   -1.2811099243e+02
    2.6810702515e+02   -1.2808299255e+02
    2.6820712280e+02   -1.2805499268e+02
    2.6830706787e+02   -1.2802699280e+02
    2.6840710449e+02   -1.2799900055e+02
    2.6850714111e+02   -1.2797000122e+02
    2.6860708618e+02   -1.2794200134e+02
    2.6870712280e+02   -1.2791300201e+02
    2.6880706787e+02   -1.2788400269e+02
    2.6890713501e+02   -1.2785500336e+02
    2.6900714111e+02   -1.2782499695e+02
    2.6910711670e+02   -1.2779599762e+02
    2.6920709229e+02   -1.2776599884e+02
    2.6930712891e+02   -1.2773699951e+02
    2.6940710449e+02   -1.2770700073e+02
    2.6950711060e+02   -1.2767700195e+02
    2.6960714722e+02   -1.2764600372e+02
    2.6970721436e+02   -1.2761599731e+02
    2.6980712891e+02   -1.2758499908e+02
    2.6990716553e+02   -1.2755500031e+02
    2.7000717163e+02   -1.2752400208e+02
    2.7010723877e+02   -1.2749199677e+02
    2.7020724487e+02   -1.2746099854e+02
    2.7030722046e+02   -1.2743000031e+02
    2.7040719604e+02   -1.2739800262e+02
    2.7050726318e+02   -1.2736599731e+02
    2.7060717773e+02   -1.2733399963e+02
    2.7070727539e+02   -1.2730200195e+02
    2.7080722046e+02   -1.2726899719e+02
    2.7090725708e+02   -1.2723699951e+02
    2.7100726318e+02   -1.2720400238e+02
    2.7110729980e+02   -1.2717099762e+02
    2.7120724487e+02   -1.2713700104e+02
    2.7130725098e+02   -1.2710399628e+02
    2.7140725708e+02   -1.2706999969e+02
    2.7150726318e+02   -1.2703700256e+02
    2.7160729980e+02   -1.2700199890e+02
    2.7170724487e+02   -1.2696800232e+02
    2.7180731201e+02   -1.2693399811e+02
    2.7190725708e+02   -1.2689900208e+02
    2.7200735474e+02   -1.2686399841e+02
    2.7210733032e+02   -1.2682900238e+02
    2.7220733643e+02   -1.2679399872e+02
    2.7230734253e+02   -1.2675900269e+02
    2.7240734863e+02   -1.2672299957e+02
    2.7250729370e+02   -1.2668800354e+02
    2.7260739136e+02   -1.2665200043e+02
    2.7270733643e+02   -1.2661599731e+02
    2.7280740356e+02   -1.2658000183e+02
    2.7290740967e+02   -1.2654299927e+02
    2.7300732422e+02   -1.2650700378e+02
    2.7310733032e+02   -1.2647000122e+02
    2.7320733643e+02   -1.2643299866e+02
    2.7330743408e+02   -1.2639600372e+02
    2.7340740967e+02   -1.2635900116e+02
    2.7350744629e+02   -1.2632199860e+02
    2.7360745239e+02   -1.2628399658e+02
    2.7370745850e+02   -1.2624600220e+02
    2.7380740356e+02   -1.2620800018e+02
    2.7390747070e+02   -1.2616999817e+02
    2.7400747681e+02   -1.2613200378e+02
    2.7410745239e+02   -1.2609400177e+02
    2.7420742798e+02   -1.2605500031e+02
    2.7430749512e+02   -1.2601599884e+02
    2.7440747070e+02   -1.2597799683e+02
    2.7450744629e+02   -1.2593800354e+02
    2.7460748291e+02   -1.2589900208e+02
    2.7470739746e+02   -1.2586000061e+02
    2.7480749512e+02   -1.2581999969e+02
    2.7490753174e+02   -1.2577999878e+02
    2.7500747681e+02   -1.2573999786e+02
    2.7510745239e+02   -1.2569999695e+02
    2.7520751953e+02   -1.2566000366e+02
    2.7530749512e+02   -1.2561900330e+02
    2.7540756226e+02   -1.2557900238e+02
    2.7550747681e+02   -1.2553800201e+02
    2.7560754395e+02   -1.2549700165e+02
    2.7570755005e+02   -1.2545500183e+02
    2.7580752563e+02   -1.2541400146e+02
    2.7590750122e+02   -1.2537200165e+02
    2.7600753784e+02   -1.2533000183e+02
    2.7610751343e+02   -1.2528800201e+02
    2.7620755005e+02   -1.2524600220e+02
    2.7630755615e+02   -1.2520300293e+02
    2.7640759277e+02   -1.2516000366e+02
    2.7650762939e+02   -1.2511799622e+02
    2.7660754395e+02   -1.2507499695e+02
    2.7670755005e+02   -1.2503099823e+02
    2.7680761719e+02   -1.2498799896e+02
    2.7690762329e+02   -1.2494400024e+02
    2.7700765991e+02   -1.2490000153e+02
    2.7710760498e+02   -1.2485600281e+02
    2.7720761108e+02   -1.2481199646e+02
    2.7730761719e+02   -1.2476799774e+02
    2.7740759277e+02   -1.2472299957e+02
    2.7750769043e+02   -1.2467900085e+02
    2.7760766602e+02   -1.2463400269e+02
    2.7770770264e+02   -1.2458899689e+02
    2.7780770874e+02   -1.2454399872e+02
    2.7790771484e+02   -1.2449800110e+02
    2.7800772095e+02   -1.2445300293e+02
    2.7810772705e+02   -1.2440699768e+02
    2.7820773315e+02   -1.2436199951e+02
    2.7830770874e+02   -1.2431600189e+02
    2.7840774536e+02   -1.2426999664e+02
    2.7850769043e+02   -1.2422299957e+02
    2.7860772705e+02   -1.2417700195e+02
    2.7870770264e+02   -1.2412999725e+02
    2.7880770874e+02   -1.2408399963e+02
    2.7890771484e+02   -1.2403700256e+02
    2.7900778198e+02   -1.2398999786e+02
    2.7910772705e+02   -1.2394300079e+02
    2.7920770264e+02   -1.2389499664e+02
    2.7930776978e+02   -1.2384799957e+02
    2.7940771484e+02   -1.2380000305e+02
    2.7950781250e+02   -1.2375199890e+02
    2.7960772705e+02   -1.2370400238e+02
    2.7970773315e+02   -1.2365599823e+02
    2.7980780029e+02   -1.2360700226e+02
    2.7990774536e+02   -1.2355899811e+02
    2.8000778198e+02   -1.2351000214e+02
    2.8010781860e+02   -1.2346099854e+02
    2.8020776367e+02   -1.2341200256e+02
    2.8030786133e+02   -1.2336199951e+02
    2.8040777588e+02   -1.2331300354e+02
    2.8050778198e+02   -1.2326300049e+02
    2.8060781860e+02   -1.2321299744e+02
    2.8070779419e+02   -1.2316300201e+02
    2.8080786133e+02   -1.2311299896e+02
    2.8090789795e+02   -1.2306300354e+02
    2.8100790405e+02   -1.2301200104e+02
    2.8110781860e+02   -1.2296099854e+02
    2.8120782471e+02   -1.2291000366e+02
    2.8130789185e+02   -1.2285900116e+02
    2.8140789795e+02   -1.2280799866e+02
    2.8150790405e+02   -1.2275700378e+02
    2.8160794067e+02   -1.2270500183e+02
    2.8170785522e+02   -1.2265299988e+02
    2.8180795288e+02   -1.2260099792e+02
    2.8190792847e+02   -1.2254900360e+02
    2.8200796509e+02   -1.2249700165e+02
    2.8210794067e+02   -1.2244499969e+02
    2.8220785522e+02   -1.2239199829e+02
    2.8230792236e+02   -1.2233999634e+02
    2.8240792847e+02   -1.2228700256e+02
    2.8250790405e+02   -1.2223400116e+02
    2.8260791016e+02   -1.2218099976e+02
    2.8270800781e+02   -1.2212799835e+02
    2.8280798340e+02   -1.2207499695e+02
    2.8290795898e+02   -1.2202100372e+02
    2.8300799561e+02   -1.2196800232e+02
    2.8310797119e+02   -1.2191400146e+02
    2.8320794678e+02   -1.2186000061e+02
    2.8330798340e+02   -1.2180599976e+02
    2.8340805054e+02   -1.2175199890e+02
    2.8350799561e+02   -1.2169799805e+02
    2.8360797119e+02   -1.2164299774e+02
    2.8370803833e+02   -1.2158899689e+02
    2.8380807495e+02   -1.2153399658e+02
    2.8390805054e+02   -1.2147899628e+02
    2.8400808716e+02   -1.2142400360e+02
    2.8410806274e+02   -1.2136900330e+02
    2.8420803833e+02   -1.2131400299e+02
    2.8430807495e+02   -1.2125800323e+02
    2.8440811157e+02   -1.2120300293e+02
    2.8450811768e+02   -1.2114700317e+02
    2.8460812378e+02   -1.2109100342e+02
    2.8470806885e+02   -1.2103500366e+02
    2.8480810547e+02   -1.2097899628e+02
    2.8490805054e+02   -1.2092199707e+02
    2.8500805664e+02   -1.2086599731e+02
    2.8510815430e+02   -1.2080899811e+02
    2.8520809937e+02   -1.2075199890e+02
    2.8530807495e+02   -1.2069499969e+02
    2.8540814209e+02   -1.2063800049e+02
    2.8550817871e+02   -1.2058100128e+02
    2.8560809326e+02   -1.2052300262e+02
    2.8570816040e+02   -1.2046499634e+02
    2.8580816650e+02   -1.2040799713e+02
    2.8590820312e+02   -1.2034999847e+02
    2.8600820923e+02   -1.2029100037e+02
    2.8610815430e+02   -1.2023300171e+02
    2.8620812988e+02   -1.2017500305e+02
    2.8630819702e+02   -1.2011599731e+02
    2.8640820312e+02   -1.2005799866e+02
    2.8650814819e+02   -1.1999900055e+02
    2.8660818481e+02   -1.1994000244e+02
    2.8670816040e+02   -1.1988099670e+02
    2.8680816650e+02   -1.1982199860e+02
    2.8690817261e+02   -1.1976200104e+02
    2.8700823975e+02   -1.1970300293e+02
    2.8710824585e+02   -1.1964299774e+02
    2.8720822144e+02   -1.1958399963e+02
    2.8730822754e+02   -1.1952400208e+02
    2.8740820312e+02   -1.1946399689e+02
    2.8750820923e+02   -1.1940399933e+02
    2.8760818481e+02   -1.1934400177e+02
    2.8770822144e+02   -1.1928399658e+02
    2.8780831909e+02   -1.1922299957e+02
    2.8790832520e+02   -1.1916300201e+02
    2.8800830078e+02   -1.1910199738e+02
    2.8810827637e+02   -1.1904100037e+02
    2.8820825195e+02   -1.1898000336e+02
    2.8830825806e+02   -1.1891899872e+02
    2.8840832520e+02   -1.1885800171e+02
    2.8850830078e+02   -1.1879699707e+02
    2.8860836792e+02   -1.1873600006e+02
    2.8870831299e+02   -1.1867400360e+02
    2.8880831909e+02   -1.1861299896e+02
    2.8890838623e+02   -1.1855100250e+02
    2.8900830078e+02   -1.1848899841e+02
    2.8910833740e+02   -1.1842700195e+02
    2.8920837402e+02   -1.1836499786e+02
    2.8930831909e+02   -1.1830200195e+02
    2.8940841675e+02   -1.1823999786e+02
    2.8950833130e+02   -1.1817700195e+02
    2.8960836792e+02   -1.1811499786e+02
    2.8970837402e+02   -1.1805200195e+02
    2.8980841064e+02   -1.1798899841e+02
    2.8990841675e+02   -1.1792500305e+02
    2.9000839233e+02   -1.1786199951e+02
    2.9010842896e+02   -1.1779900360e+02
    2.9020846558e+02   -1.1773500061e+02
    2.9030838013e+02   -1.1767099762e+02
    2.9040838623e+02   -1.1760800171e+02
    2.9050845337e+02   -1.1754399872e+02
    2.9060848999e+02   -1.1747899628e+02
    2.9070849609e+02   -1.1741500092e+02
    2.9080850220e+02   -1.1735099792e+02
    2.9090850830e+02   -1.1728600311e+02
    2.9100848389e+02   -1.1722200012e+02
    2.9110852051e+02   -1.1715699768e+02
    2.9120846558e+02   -1.1709200287e+02
    2.9130850220e+02   -1.1702700043e+02
    2.9140853882e+02   -1.1696199799e+02
    2.9150845337e+02   -1.1689700317e+02
    2.9160852051e+02   -1.1683200073e+02
    2.9170852661e+02   -1.1676599884e+02
    2.9180853271e+02   -1.1670099640e+02
    2.9190856934e+02   -1.1663500214e+02
    2.9200854492e+02   -1.1656999969e+02
    2.9210858154e+02   -1.1650399780e+02
    2.9220852661e+02   -1.1643800354e+02
    2.9230853271e+02   -1.1637200165e+02
    2.9240856934e+02   -1.1630500031e+02
    2.9250857544e+02   -1.1623899841e+02
    2.9260855103e+02   -1.1617299652e+02
    2.9270852661e+02   -1.1610600281e+02
    2.9280856323e+02   -1.1603900146e+02
    2.9290856934e+02   -1.1597299957e+02
    2.9300863647e+02   -1.1590599823e+02
    2.9310858154e+02   -1.1583799744e+02
    2.9320861816e+02   -1.1577100372e+02
    2.9330859375e+02   -1.1570400238e+02
    2.9340863037e+02   -1.1563600159e+02
    2.9350863647e+02   -1.1556800079e+02
    2.9360861206e+02   -1.1550000000e+02
    2.9370858765e+02   -1.1543199921e+02
    2.9380862427e+02   -1.1536399841e+02
    2.9390869141e+02   -1.1529599762e+02
    2.9400866699e+02   -1.1522699738e+02
    2.9410870361e+02   -1.1515799713e+02
    2.9420861816e+02   -1.1508899689e+02
    2.9430868530e+02   -1.1501999664e+02
    2.9440869141e+02   -1.1495099640e+02
    2.9450866699e+02   -1.1488099670e+02
    2.9460867310e+02   -1.1481199646e+02
    2.9470874023e+02   -1.1474199677e+02
    2.9480865479e+02   -1.1467199707e+02
    2.9490872192e+02   -1.1460199738e+02
    2.9500872803e+02   -1.1453099823e+02
    2.9510876465e+02   -1.1446099854e+02
    2.9520870972e+02   -1.1438999939e+02
    2.9530874634e+02   -1.1431999969e+02
    2.9540872192e+02   -1.1424900055e+02
    2.9550872803e+02   -1.1417800140e+02
    2.9560879517e+02   -1.1410600281e+02
    2.9570874023e+02   -1.1403500366e+02
    2.9580868530e+02   -1.1396299744e+02
    2.9590881348e+02   -1.1389199829e+02
    2.9600872803e+02   -1.1381999969e+02
    2.9610879517e+02   -1.1374800110e+02
    2.9620874023e+02   -1.1367600250e+02
    2.9630874634e+02   -1.1360299683e+02
    2.9640881348e+02   -1.1353099823e+02
    2.9650875854e+02   -1.1345800018e+02
    2.9660879517e+02   -1.1338500214e+02
    2.9670880127e+02   -1.1331199646e+02
    2.9680880737e+02   -1.1323899841e+02
    2.9690887451e+02   -1.1316600037e+02
    2.9700888062e+02   -1.1309200287e+02
    2.9710885620e+02   -1.1301899719e+02
    2.9720886230e+02   -1.1294499969e+02
    2.9730886841e+02   -1.1287100220e+02
    2.9740881348e+02   -1.1279699707e+02
    2.9750891113e+02   -1.1272200012e+02
    2.9760888672e+02   -1.1264800262e+02
    2.9770883179e+02   -1.1257299805e+02
    2.9780889893e+02   -1.1249800110e+02
    2.9790890503e+02   -1.1242299652e+02
    2.9800888062e+02   -1.1234799957e+02
    2.9810885620e+02   -1.1227200317e+02
    2.9820889282e+02   -1.1219599915e+02
    2.9830889893e+02   -1.1212000275e+02
    2.9840893555e+02   -1.1204399872e+02
    2.9850891113e+02   -1.1196800232e+02
    2.9860894775e+02   -1.1189099884e+02
    2.9870898438e+02   -1.1181400299e+02
    2.9880899048e+02   -1.1173699951e+02
    2.9890896606e+02   -1.1166000366e+02
    2.9900900269e+02   -1.1158200073e+02
    2.9910900879e+02   -1.1150399780e+02
    2.9920895386e+02   -1.1142700195e+02
    2.9930899048e+02   -1.1134799957e+02
    2.9940896606e+02   -1.1126999664e+02
    2.9950894165e+02   -1.1119100189e+02
    2.9960900879e+02   -1.1111199951e+02
    2.9970895386e+02   -1.1103299713e+02
    2.9980895996e+02   -1.1095400238e+02
    2.9990899658e+02   -1.1087400055e+02
endcurve
