Curveplot
LS-DYNA keyword deck by LS-PrePost
Abscissa
Ordinate
XY data
CHOP_EAMX_mo-1 #pts=3000
* Minval=     0.0000000000e+00 at time=         0.0000000000
* Maxval=     6.8628997803e+01 at time=       263.2067871094
    0.0000000000e+00    0.0000000000e+00
    9.9943503737e-02    1.5624200460e-03
    1.9988700747e-01    3.1248300802e-03
    2.9994606972e-01    4.6890601516e-03
    3.9988955855e-01    6.2514701858e-03
    4.9994862080e-01    7.8157000244e-03
    5.9989213943e-01    9.3781100586e-03
    6.9991886616e-01    1.0941790417e-02
    7.9997789860e-01    1.2505957857e-02
    8.9992153645e-01    1.4068190008e-02
    9.9998134375e-01    1.5632290393e-02
    1.0999338627e+00    1.7194906250e-02
    1.1999901533e+00    1.8758991733e-02
    1.2999490499e+00    2.0321572199e-02
    1.3999032974e+00    2.1883992478e-02
    1.4998972416e+00    2.3447031155e-02
    1.5999922752e+00    2.5011725724e-02
    1.6998958588e+00    2.6573462412e-02
    1.7999031544e+00    2.8136787936e-02
    1.8999958038e+00    2.9701443389e-02
    1.9998879433e+00    3.1263135374e-02
    2.0999808311e+00    3.2828167081e-02
    2.1999180317e+00    3.4390978515e-02
    2.2999393940e+00    3.5955365747e-02
    2.3999960423e+00    3.7520416081e-02
    2.4999492168e+00    3.9083655924e-02
    2.5999567509e+00    4.0647361428e-02
    2.6999063492e+00    4.2210128158e-02
    2.7999629974e+00    4.3774988502e-02
    2.8999724388e+00    4.5340258628e-02
    2.9999170303e+00    4.6906061471e-02
    3.0998952389e+00    4.8474527895e-02
    3.1999557018e+00    5.0046533346e-02
    3.2999453545e+00    5.1619667560e-02
    3.3999445438e+00    5.3195044398e-02
    3.4998834133e+00    5.4771371186e-02
    3.5999081135e+00    5.6350633502e-02
    3.6999166012e+00    5.7931009680e-02
    3.7999978065e+00    5.9513784945e-02
    3.8999550343e+00    6.1095669866e-02
    3.9999179840e+00    6.2678508461e-02
    4.0999603271e+00    6.4263336360e-02
    4.1999402046e+00    6.5847553313e-02
    4.2999968529e+00    6.7433141172e-02
    4.3999152184e+00    6.9016866386e-02
    4.4999217987e+00    7.0601880550e-02
    4.5999255180e+00    7.2186797857e-02
    4.6999697685e+00    7.3772497475e-02
    4.7999444008e+00    7.5357116759e-02
    4.8998894691e+00    7.6941229403e-02
    4.9999098778e+00    7.8526265919e-02
    5.0999464989e+00    8.0111414194e-02
    5.1998920441e+00    8.1694781780e-02
    5.2999529839e+00    8.3279773593e-02
    5.3999128342e+00    8.4862828255e-02
    5.4998979568e+00    8.6446136236e-02
    5.5998950005e+00    8.8029436767e-02
    5.6999144554e+00    8.9612685144e-02
    5.7999897003e+00    9.1196507215e-02
    5.8999600410e+00    9.2778474092e-02
    5.9998917580e+00    9.4359502196e-02
    6.0999193192e+00    9.5941789448e-02
    6.1998848915e+00    9.7522847354e-02
    6.2999567986e+00    9.9105402827e-02
    6.3999934196e+00    1.0068701953e-01
    6.4999384880e+00    1.0226738453e-01
    6.5999288559e+00    1.0384733975e-01
    6.6999893188e+00    1.0542792827e-01
    6.7999343872e+00    1.0700625926e-01
    6.8999943733e+00    1.0858727247e-01
    6.9999389648e+00    1.1016481370e-01
    7.0999641418e+00    1.1174376309e-01
    7.1999254227e+00    1.1331990361e-01
    7.2999334335e+00    1.1489714682e-01
    7.3999934196e+00    1.1647354811e-01
    7.4999380112e+00    1.1804824322e-01
    7.5998821259e+00    1.1962144077e-01
    7.6999416351e+00    1.2119609118e-01
    7.7998857498e+00    1.2276884168e-01
    7.8999204636e+00    1.2434037030e-01
    7.9999794960e+00    1.2591233850e-01
    8.0999231339e+00    1.2747947872e-01
    8.1999826431e+00    1.2904675305e-01
    8.2999277115e+00    1.3061128557e-01
    8.3999128342e+00    1.3217414916e-01
    8.4999303818e+00    1.3373544812e-01
    8.5999898911e+00    1.3529731333e-01
    8.6999330521e+00    1.3685494661e-01
    8.7999925613e+00    1.3841323555e-01
    8.8999776840e+00    1.3996912539e-01
    8.9999942780e+00    1.4152444899e-01
    9.0999450684e+00    1.4307604730e-01
    9.1999521255e+00    1.4462764561e-01
    9.2999505997e+00    1.4617595077e-01
    9.3999404907e+00    1.4772157371e-01
    9.4999961853e+00    1.4926519990e-01
    9.5999526978e+00    1.5080460906e-01
    9.6999683380e+00    1.5234184265e-01
    9.7999353409e+00    1.5387377143e-01
    9.8998928070e+00    1.5540342033e-01
    9.9999876022e+00    1.5693169832e-01
    1.0099958420e+01    1.6094276309e-01
    1.0199951172e+01    1.6495165229e-01
    1.0299942017e+01    1.6895742714e-01
    1.0399952888e+01    1.7296023667e-01
    1.0499897003e+01    1.7695847154e-01
    1.0599957466e+01    1.8095919490e-01
    1.0699904442e+01    1.8495282531e-01
    1.0799961090e+01    1.8894919753e-01
    1.0899909019e+01    1.9293835759e-01
    1.0999910355e+01    1.9692736864e-01
    1.1099945068e+01    2.0091629028e-01
    1.1199939728e+01    2.0490126312e-01
    1.1299942970e+01    2.0888520777e-01
    1.1399915695e+01    2.1286526322e-01
    1.1499931335e+01    2.1684545279e-01
    1.1599934578e+01    2.2082273662e-01
    1.1699994087e+01    2.2480103374e-01
    1.1799940109e+01    2.2877246141e-01
    1.1899902344e+01    2.3274281621e-01
    1.1999979019e+01    2.3671540618e-01
    1.2099975586e+01    2.4068355560e-01
    1.2199962616e+01    2.4465049803e-01
    1.2299979210e+01    2.4861697853e-01
    1.2399989128e+01    2.5258135796e-01
    1.2499971390e+01    2.5654095411e-01
    1.2599919319e+01    2.6049757004e-01
    1.2699973106e+01    2.6445460320e-01
    1.2799924850e+01    2.6840618253e-01
    1.2899955750e+01    2.7236148715e-01
    1.2999900818e+01    2.7631363273e-01
    1.3099960327e+01    2.8027194738e-01
    1.3199974060e+01    2.8422969580e-01
    1.3299920082e+01    2.8818583488e-01
    1.3399931908e+01    2.9214468598e-01
    1.3499981880e+01    2.9610693455e-01
    1.3600008011e+01    3.0006727576e-01
    1.3699955940e+01    3.0402427912e-01
    1.3799983025e+01    3.0798432231e-01
    1.3899989128e+01    3.1194111705e-01
    1.3999917030e+01    3.1589442492e-01
    1.4099946976e+01    3.1984880567e-01
    1.4199905396e+01    3.2379955053e-01
    1.4299902916e+01    3.2774952054e-01
    1.4399912834e+01    3.3169877529e-01
    1.4499910355e+01    3.3564543724e-01
    1.4599992752e+01    3.3959349990e-01
    1.4699989319e+01    3.4353780746e-01
    1.4799990654e+01    3.4747916460e-01
    1.4899990082e+01    3.5141807795e-01
    1.4999965668e+01    3.5535466671e-01
    1.5099946976e+01    3.5928782821e-01
    1.5199919701e+01    3.6321863532e-01
    1.5299959183e+01    3.6715018749e-01
    1.5399922371e+01    3.7107652426e-01
    1.5499902725e+01    3.7500172853e-01
    1.5599949837e+01    3.7892687321e-01
    1.5700012207e+01    3.8285109401e-01
    1.5799957275e+01    3.8676884770e-01
    1.5900018692e+01    3.9068910480e-01
    1.5999963760e+01    3.9460459352e-01
    1.6099910736e+01    3.9852041006e-01
    1.6199977875e+01    4.0243929625e-01
    1.6299922943e+01    4.0635266900e-01
    1.6399934769e+01    4.1026812792e-01
    1.6500015259e+01    4.1418457031e-01
    1.6599981308e+01    4.1809615493e-01
    1.6699926376e+01    4.2200577259e-01
    1.6799987793e+01    4.2591920495e-01
    1.6899959564e+01    4.2982760072e-01
    1.7000011444e+01    4.3373823166e-01
    1.7099922180e+01    4.3763980269e-01
    1.7199920654e+01    4.4154259562e-01
    1.7299938202e+01    4.4544348121e-01
    1.7400020599e+01    4.4934472442e-01
    1.7499965668e+01    4.5323801041e-01
    1.7600025177e+01    4.5713400841e-01
    1.7699996948e+01    4.6102395654e-01
    1.7799940109e+01    4.6491014957e-01
    1.7899919510e+01    4.6879360080e-01
    1.8000017166e+01    4.7267854214e-01
    1.8099939346e+01    4.7655111551e-01
    1.8199924469e+01    4.8042175174e-01
    1.8299953461e+01    4.8428881168e-01
    1.8399957657e+01    4.8815071583e-01
    1.8499948502e+01    4.9200880527e-01
    1.8599931717e+01    4.9586346745e-01
    1.8699991226e+01    4.9971780181e-01
    1.8799934387e+01    5.0356400013e-01
    1.8899972916e+01    5.0740969181e-01
    1.8999963760e+01    5.1125091314e-01
    1.9099973679e+01    5.1508891582e-01
    1.9199996948e+01    5.1892220974e-01
    1.9299995422e+01    5.2275019884e-01
    1.9399946213e+01    5.2656954527e-01
    1.9499996185e+01    5.3038609028e-01
    1.9599994659e+01    5.3419411182e-01
    1.9699935913e+01    5.3799355030e-01
    1.9799968719e+01    5.4179018736e-01
    1.9899974823e+01    5.4557955265e-01
    1.9999952316e+01    5.4936069250e-01
    2.0099998474e+01    5.5583041906e-01
    2.0200006485e+01    5.6229215860e-01
    2.0299951553e+01    5.6874388456e-01
    2.0400009155e+01    5.7519763708e-01
    2.0499977112e+01    5.8163881302e-01
    2.0600036621e+01    5.8808100224e-01
    2.0699979782e+01    5.9451007843e-01
    2.0800039291e+01    6.0094130039e-01
    2.0899959564e+01    6.0735726357e-01
    2.0999990463e+01    6.1377543211e-01
    2.1100013733e+01    6.2018781900e-01
    2.1199977875e+01    6.2658971548e-01
    2.1299930573e+01    6.3298630714e-01
    2.1399942398e+01    6.3938033581e-01
    2.1499925613e+01    6.4576816559e-01
    2.1600021362e+01    6.5215724707e-01
    2.1699964523e+01    6.5853142738e-01
    2.1800018311e+01    6.6490763426e-01
    2.1899980545e+01    6.7127132416e-01
    2.1999937057e+01    6.7762941122e-01
    2.2100044250e+01    6.8399137259e-01
    2.2199974060e+01    6.9033658504e-01
    2.2300033569e+01    6.9668447971e-01
    2.2399976730e+01    7.0301800966e-01
    2.2499940872e+01    7.0934450626e-01
    2.2599935532e+01    7.1566432714e-01
    2.2699979782e+01    7.2197949886e-01
    2.2799964905e+01    7.2828346491e-01
    2.2900024414e+01    7.3458617926e-01
    2.2999969482e+01    7.4087691307e-01
    2.3100027084e+01    7.4717128277e-01
    2.3199935913e+01    7.5345200300e-01
    2.3300001144e+01    7.5973939896e-01
    2.3400028229e+01    7.6602089405e-01
    2.3500007629e+01    7.7229392529e-01
    2.3599969864e+01    7.7856171131e-01
    2.3700029373e+01    7.8482800722e-01
    2.3799972534e+01    7.9108178616e-01
    2.3899986267e+01    7.9733389616e-01
    2.4000022888e+01    8.0358064175e-01
    2.4099994659e+01    8.0981731415e-01
    2.4200017929e+01    8.1605172157e-01
    2.4300050735e+01    8.2228022814e-01
    2.4399963379e+01    8.2849568129e-01
    2.4500024796e+01    8.3471477032e-01
    2.4599969864e+01    8.4092080593e-01
    2.4699968338e+01    8.4712350368e-01
    2.4799945831e+01    8.5332006216e-01
    2.4900024414e+01    8.5951501131e-01
    2.4999944687e+01    8.6569243670e-01
    2.5099998474e+01    8.7187159061e-01
    2.5199951172e+01    8.7803578377e-01
    2.5299957275e+01    8.8419646025e-01
    2.5400018692e+01    8.9035362005e-01
    2.5500009537e+01    8.9649963379e-01
    2.5599958420e+01    9.0263742208e-01
    2.5700046539e+01    9.0877687931e-01
    2.5800046921e+01    9.1490381956e-01
    2.5899991989e+01    9.2102319002e-01
    2.6000051498e+01    9.2714238167e-01
    2.6099996567e+01    9.3325001001e-01
    2.6199958801e+01    9.3935424089e-01
    2.6299968719e+01    9.4545471668e-01
    2.6400060654e+01    9.5155507326e-01
    2.6500003815e+01    9.5764052868e-01
    2.6600051880e+01    9.6372205019e-01
    2.6700040817e+01    9.6980488300e-01
    2.6800010681e+01    9.7587192059e-01
    2.6899951935e+01    9.8193281889e-01
    2.6999990463e+01    9.8799663782e-01
    2.7100057602e+01    9.9404287338e-01
    2.7200048447e+01    1.0000921488e+00
    2.7299993515e+01    1.0061237812e+00
    2.7400066376e+01    1.0121570826e+00
    2.7500011444e+01    1.0181741714e+00
    2.7600004196e+01    1.0241842270e+00
    2.7699985504e+01    1.0301877260e+00
    2.7800041199e+01    1.0361936092e+00
    2.7899955750e+01    1.0421826839e+00
    2.8000005722e+01    1.0481613874e+00
    2.8100065231e+01    1.0541402102e+00
    2.8199958801e+01    1.0601003170e+00
    2.8300006866e+01    1.0660592318e+00
    2.8400022507e+01    1.0719991922e+00
    2.8500055313e+01    1.0779402256e+00
    2.8600000381e+01    1.0838643312e+00
    2.8700059891e+01    1.0897803307e+00
    2.8800003052e+01    1.0956903696e+00
    2.8900062561e+01    1.1016025543e+00
    2.9000005722e+01    1.1074986458e+00
    2.9100063324e+01    1.1133964062e+00
    2.9199991226e+01    1.1192770004e+00
    2.9300069809e+01    1.1251574755e+00
    2.9400045395e+01    1.1310191154e+00
    2.9500024796e+01    1.1368701458e+00
    2.9600048065e+01    1.1427202225e+00
    2.9700048447e+01    1.1485501528e+00
    2.9800052643e+01    1.1543794870e+00
    2.9899972916e+01    1.1601797342e+00
    2.9999971390e+01    1.1659896374e+00
    3.0100044250e+01    1.1777694225e+00
    3.0200012207e+01    1.1895403862e+00
    3.0299964905e+01    1.2012916803e+00
    3.0400024414e+01    1.2130420208e+00
    3.0499967575e+01    1.2247830629e+00
    3.0600027084e+01    1.2365130186e+00
    3.0700054169e+01    1.2482329607e+00
    3.0800069809e+01    1.2599428892e+00
    3.0900022507e+01    1.2716331482e+00
    3.1000040054e+01    1.2833224535e+00
    3.1100063324e+01    1.2950115204e+00
    3.1200012207e+01    1.3066710234e+00
    3.1300024033e+01    1.3183300495e+00
    3.1399967194e+01    1.3299701214e+00
    3.1499969482e+01    1.3416004181e+00
    3.1600028992e+01    1.3532406092e+00
    3.1700004578e+01    1.3648521900e+00
    3.1800060272e+01    1.3764728308e+00
    3.1900005341e+01    1.3880642653e+00
    3.2000064850e+01    1.3996642828e+00
    3.2100002289e+01    1.4112358093e+00
    3.2200019836e+01    1.4228067398e+00
    3.2300067902e+01    1.4343669415e+00
    3.2400001526e+01    1.4459068775e+00
    3.2500068665e+01    1.4574517012e+00
    3.2599994659e+01    1.4689540863e+00
    3.2700050354e+01    1.4804716110e+00
    3.2800056458e+01    1.4919689894e+00
    3.2900001526e+01    1.5034489632e+00
    3.3000064850e+01    1.5149430037e+00
    3.3100006104e+01    1.5264139175e+00
    3.3199951172e+01    1.5378829241e+00
    3.3299949646e+01    1.5493479967e+00
    3.3400020599e+01    1.5608279705e+00
    3.3499973297e+01    1.5722849369e+00
    3.3600032806e+01    1.5837539434e+00
    3.3700016022e+01    1.5951960087e+00
    3.3799945831e+01    1.6066299677e+00
    3.3900016785e+01    1.6180729866e+00
    3.4000026703e+01    1.6294959784e+00
    3.4100048065e+01    1.6409089565e+00
    3.4200046539e+01    1.6523119211e+00
    3.4299957275e+01    1.6636838913e+00
    3.4400020599e+01    1.6750749350e+00
    3.4499965668e+01    1.6864368916e+00
    3.4600028992e+01    1.6978069544e+00
    3.4699993134e+01    1.7091479301e+00
    3.4799972534e+01    1.7204869986e+00
    3.4899971008e+01    1.7318029404e+00
    3.4999988556e+01    1.7431139946e+00
    3.5099937439e+01    1.7544010878e+00
    3.5200000763e+01    1.7656919956e+00
    3.5299976349e+01    1.7769598961e+00
    3.5399971008e+01    1.7882039547e+00
    3.5499912262e+01    1.7994350195e+00
    3.5599960327e+01    1.8106709719e+00
    3.5699920654e+01    1.8218740225e+00
    3.5799983978e+01    1.8330819607e+00
    3.5899929047e+01    1.8442589045e+00
    3.5999992371e+01    1.8554309607e+00
    3.6099937439e+01    1.8665820360e+00
    3.6200000763e+01    1.8777389526e+00
    3.6299945831e+01    1.8888649940e+00
    3.6400005341e+01    1.8999959230e+00
    3.6499950409e+01    1.9110950232e+00
    3.6600013733e+01    1.9221879244e+00
    3.6699954987e+01    1.9332590103e+00
    3.6799968719e+01    1.9443259239e+00
    3.6899906158e+01    1.9553710222e+00
    3.6999958038e+01    1.9664199352e+00
    3.7099903107e+01    1.9774360657e+00
    3.7199962616e+01    1.9884449244e+00
    3.7299903870e+01    1.9994310141e+00
    3.7399963379e+01    2.0104188919e+00
    3.7499908447e+01    2.0213739872e+00
    3.7599964142e+01    2.0323328972e+00
    3.7699909210e+01    2.0432600975e+00
    3.7799964905e+01    2.0541779995e+00
    3.7899909973e+01    2.0650711060e+00
    3.7999965668e+01    2.0759620667e+00
    3.8099906921e+01    2.0868139267e+00
    3.8199920654e+01    2.0976529121e+00
    3.8299953461e+01    2.1084721088e+00
    3.8399894714e+01    2.1192619801e+00
    3.8499973297e+01    2.1300520897e+00
    3.8599960327e+01    2.1408069134e+00
    3.8699901581e+01    2.1515460014e+00
    3.8799957275e+01    2.1622869968e+00
    3.8899898529e+01    2.1729941368e+00
    3.8999954224e+01    2.1837019920e+00
    3.9099903107e+01    2.1943750381e+00
    3.9199890137e+01    2.2050278187e+00
    3.9299903870e+01    2.2156701088e+00
    3.9399909973e+01    2.2262899876e+00
    3.9499927521e+01    2.2368850708e+00
    3.9599956512e+01    2.2474539280e+00
    3.9699901581e+01    2.2579901218e+00
    3.9799957275e+01    2.2685179710e+00
    3.9899902344e+01    2.2790040970e+00
    3.9999942780e+01    2.2894740105e+00
    4.0099853516e+01    2.3076941967e+00
    4.0199840546e+01    2.3259000778e+00
    4.0299846649e+01    2.3440921307e+00
    4.0399902344e+01    2.3622589111e+00
    4.0499847412e+01    2.3803958893e+00
    4.0599903107e+01    2.3985278606e+00
    4.0699890137e+01    2.4166188240e+00
    4.0799930573e+01    2.4346961975e+00
    4.0899845123e+01    2.4527349472e+00
    4.0999931335e+01    2.4707770348e+00
    4.1099922180e+01    2.4887909889e+00
    4.1199867249e+01    2.5067639351e+00
    4.1299922943e+01    2.5247440338e+00
    4.1399864197e+01    2.5426759720e+00
    4.1499923706e+01    2.5606172085e+00
    4.1599822998e+01    2.5785121918e+00
    4.1699928284e+01    2.5964221954e+00
    4.1799907684e+01    2.6142849922e+00
    4.1899887085e+01    2.6321280003e+00
    4.1999843597e+01    2.6499509811e+00
    4.2099887848e+01    2.6677629948e+00
    4.2199913025e+01    2.6855559349e+00
    4.2299922943e+01    2.7033300400e+00
    4.2399818420e+01    2.7210550308e+00
    4.2499847412e+01    2.7387919426e+00
    4.2599918365e+01    2.7565031052e+00
    4.2699867249e+01    2.7741639614e+00
    4.2799869537e+01    2.7918219566e+00
    4.2899909973e+01    2.8094627857e+00
    4.2999870300e+01    2.8270821571e+00
    4.3099910736e+01    2.8446979523e+00
    4.3199855804e+01    2.8622949123e+00
    4.3299827576e+01    2.8798809052e+00
    4.3399806976e+01    2.8974528313e+00
    4.3499809265e+01    2.9150199890e+00
    4.3599868774e+01    2.9325778484e+00
    4.3699874878e+01    2.9500980377e+00
    4.3799880981e+01    2.9676101208e+00
    4.3899784088e+01    2.9850831032e+00
    4.3999858856e+01    3.0025599003e+00
    4.4099884033e+01    3.0200068951e+00
    4.4199817657e+01    3.0374159813e+00
    4.4299839020e+01    3.0548210144e+00
    4.4399780273e+01    3.0722000599e+00
    4.4499843597e+01    3.0895650387e+00
    4.4599811554e+01    3.1069049835e+00
    4.4699859619e+01    3.1242430210e+00
    4.4799858093e+01    3.1415400505e+00
    4.4899803162e+01    3.1588168144e+00
    4.4999816895e+01    3.1760761738e+00
    4.5099811554e+01    3.1933000088e+00
    4.5199859619e+01    3.2105169296e+00
    4.5299812317e+01    3.2276809216e+00
    4.5399776459e+01    3.2448310852e+00
    4.5499870300e+01    3.2619838715e+00
    4.5599861145e+01    3.2790868282e+00
    4.5699859619e+01    3.2961769104e+00
    4.5799842834e+01    3.3132359982e+00
    4.5899772644e+01    3.3302659988e+00
    4.5999832153e+01    3.3473019600e+00
    4.6099773407e+01    3.3642919064e+00
    4.6199832916e+01    3.3812890053e+00
    4.6299766541e+01    3.3982419968e+00
    4.6399822235e+01    3.4152002335e+00
    4.6499763489e+01    3.4321110249e+00
    4.6599822998e+01    3.4490270615e+00
    4.6699764252e+01    3.4659070969e+00
    4.6799819946e+01    3.4827718735e+00
    4.6899810791e+01    3.4996190071e+00
    4.6999774933e+01    3.5164349079e+00
    4.7099758148e+01    3.5332269669e+00
    4.7199813843e+01    3.5500111580e+00
    4.7299755096e+01    3.5667450428e+00
    4.7399810791e+01    3.5834798813e+00
    4.7499752045e+01    3.6001648903e+00
    4.7599807739e+01    3.6168522835e+00
    4.7699748993e+01    3.6334879398e+00
    4.7799751282e+01    3.6501150131e+00
    4.7899826050e+01    3.6667208672e+00
    4.7999767303e+01    3.6832690239e+00
    4.8099819183e+01    3.6998097897e+00
    4.8199802399e+01    3.7162990570e+00
    4.8299747467e+01    3.7327570915e+00
    4.8399742126e+01    3.7491807938e+00
    4.8499797821e+01    3.7655920982e+00
    4.8599739075e+01    3.7819497585e+00
    4.8699794769e+01    3.7983050346e+00
    4.8799732208e+01    3.8146071434e+00
    4.8899787903e+01    3.8309080601e+00
    4.8999725342e+01    3.8471541405e+00
    4.9099777222e+01    3.8633959293e+00
    4.9199810028e+01    3.8795971870e+00
    4.9299709320e+01    3.8957488537e+00
    4.9399723053e+01    3.9118790627e+00
    4.9499710083e+01    3.9279623032e+00
    4.9599765778e+01    3.9440209866e+00
    4.9699741364e+01    3.9600241184e+00
    4.9799800873e+01    3.9760048389e+00
    4.9899738312e+01    3.9919240475e+00
    4.9999794006e+01    4.0078320503e+00
    5.0099708557e+01    4.0332512856e+00
    5.0199752808e+01    4.0586891174e+00
    5.0299758911e+01    4.0840730667e+00
    5.0399696350e+01    4.1094136238e+00
    5.0499748230e+01    4.1347432137e+00
    5.0599685669e+01    4.1600112915e+00
    5.0699733734e+01    4.1852660179e+00
    5.0799686432e+01    4.2104578018e+00
    5.0899738312e+01    4.2356390953e+00
    5.0999736786e+01    4.2607760429e+00
    5.1099685669e+01    4.2858581543e+00
    5.1199741364e+01    4.3109278679e+00
    5.1299678802e+01    4.3359389305e+00
    5.1399730682e+01    4.3609390259e+00
    5.1499782562e+01    4.3859052658e+00
    5.1599720001e+01    4.4108138084e+00
    5.1699691772e+01    4.4356966019e+00
    5.1799667358e+01    4.4605441093e+00
    5.1899719238e+01    4.4853711128e+00
    5.1999771118e+01    4.5101618767e+00
    5.2099662781e+01    4.5348758698e+00
    5.2199699402e+01    4.5595960617e+00
    5.2299709320e+01    4.5842709541e+00
    5.2399719238e+01    4.6089057922e+00
    5.2499736786e+01    4.6334977150e+00
    5.2599662781e+01    4.6580185890e+00
    5.2699726105e+01    4.6825380325e+00
    5.2799678802e+01    4.7069840431e+00
    5.2899730682e+01    4.7314181328e+00
    5.2999668121e+01    4.7557978630e+00
    5.3099720001e+01    4.7801733017e+00
    5.3199703217e+01    4.8045053482e+00
    5.3299713135e+01    4.8288159370e+00
    5.3399665833e+01    4.8530807495e+00
    5.3499713898e+01    4.8773384094e+00
    5.3599674225e+01    4.9015450478e+00
    5.3699729919e+01    4.9257302284e+00
    5.3799682617e+01    4.9498538971e+00
    5.3899738312e+01    4.9739627838e+00
    5.3999732971e+01    4.9980273247e+00
    5.4099700928e+01    5.0220441818e+00
    5.4199661255e+01    5.0460128784e+00
    5.4299709320e+01    5.0699696541e+00
    5.4399646759e+01    5.0938692093e+00
    5.4499694824e+01    5.1177568436e+00
    5.4599636078e+01    5.1415858269e+00
    5.4699661255e+01    5.1653947830e+00
    5.4799671173e+01    5.1891670227e+00
    5.4899696350e+01    5.2128982544e+00
    5.4999721527e+01    5.2365961075e+00
    5.5099655151e+01    5.2602167130e+00
    5.5199695587e+01    5.2838258743e+00
    5.5299678802e+01    5.3073773384e+00
    5.5399635315e+01    5.3308768272e+00
    5.5499702454e+01    5.3543701172e+00
    5.5599628448e+01    5.3777837753e+00
    5.5699623108e+01    5.4011850357e+00
    5.5799671173e+01    5.4245529175e+00
    5.5899715424e+01    5.4478850365e+00
    5.5999645233e+01    5.4711470604e+00
    5.6099693298e+01    5.4944047928e+00
    5.6199619293e+01    5.5176053047e+00
    5.6299652100e+01    5.5407810211e+00
    5.6399696350e+01    5.5639276505e+00
    5.6499622345e+01    5.5870127678e+00
    5.6599670410e+01    5.6100802422e+00
    5.6699596405e+01    5.6330761909e+00
    5.6799644470e+01    5.6560640335e+00
    5.6899631500e+01    5.6789970398e+00
    5.6999675751e+01    5.7019071579e+00
    5.7099594116e+01    5.7247462273e+00
    5.7199615479e+01    5.7475748062e+00
    5.7299659729e+01    5.7703499794e+00
    5.7399585724e+01    5.7930712700e+00
    5.7499626160e+01    5.8157701492e+00
    5.7599670410e+01    5.8384299278e+00
    5.7699596405e+01    5.8610200882e+00
    5.7799640656e+01    5.8835997581e+00
    5.7899585724e+01    5.9061102867e+00
    5.7999668121e+01    5.9286003113e+00
    5.8099613190e+01    5.9510002136e+00
    5.8199668884e+01    5.9733695984e+00
    5.8299598694e+01    5.9956803322e+00
    5.8399639130e+01    6.0179400444e+00
    5.8499565125e+01    6.0401401520e+00
    5.8599605560e+01    6.0623197556e+00
    5.8699649811e+01    6.0844597816e+00
    5.8799571991e+01    6.1065301895e+00
    5.8899612427e+01    6.1285800934e+00
    5.8999652863e+01    6.1505799294e+00
    5.9099575043e+01    6.1725196838e+00
    5.9199550629e+01    6.1944303513e+00
    5.9299568176e+01    6.2162899971e+00
    5.9399566650e+01    6.2380800247e+00
    5.9499584198e+01    6.2598400116e+00
    5.9599609375e+01    6.2815399170e+00
    5.9699600220e+01    6.3031702042e+00
    5.9799610138e+01    6.3247499466e+00
    5.9899650574e+01    6.3462896347e+00
    5.9999572754e+01    6.3677501678e+00
    6.0099624634e+01    6.4003701210e+00
    6.0199592590e+01    6.4329600334e+00
    6.0299594879e+01    6.4655098915e+00
    6.0399631500e+01    6.4980201721e+00
    6.0499553680e+01    6.5304398537e+00
    6.0599594116e+01    6.5628399849e+00
    6.0699630737e+01    6.5951900482e+00
    6.0799594879e+01    6.6274499893e+00
    6.0899559021e+01    6.6596698761e+00
    6.0999626160e+01    6.6918601990e+00
    6.1099628448e+01    6.7239704132e+00
    6.1199550629e+01    6.7560095787e+00
    6.1299587250e+01    6.7880196571e+00
    6.1399627686e+01    6.8199901581e+00
    6.1499549866e+01    6.8518695831e+00
    6.1599533081e+01    6.8837194443e+00
    6.1699592590e+01    6.9155397415e+00
    6.1799522400e+01    6.9472603798e+00
    6.1899562836e+01    6.9789705276e+00
    6.1999595642e+01    7.0106201172e+00
    6.2099517822e+01    7.0421805382e+00
    6.2199535370e+01    7.0737099648e+00
    6.2299610138e+01    7.1052098274e+00
    6.2399562836e+01    7.1366095543e+00
    6.2499576569e+01    7.1679701805e+00
    6.2599578857e+01    7.1992602348e+00
    6.2699569702e+01    7.2304902077e+00
    6.2799556732e+01    7.2616600990e+00
    6.2899578094e+01    7.2927794456e+00
    6.2999500275e+01    7.3238296509e+00
    6.3099540710e+01    7.3548698425e+00
    6.3199546814e+01    7.3858599663e+00
    6.3299488068e+01    7.4167900085e+00
    6.3399509430e+01    7.4477005005e+00
    6.3499549866e+01    7.4785604477e+00
    6.3599563599e+01    7.5093593597e+00
    6.3699489594e+01    7.5400800705e+00
    6.3799560547e+01    7.5707998276e+00
    6.3899589539e+01    7.6014299393e+00
    6.3999584198e+01    7.6319999695e+00
    6.4099563599e+01    7.6625099182e+00
    6.4199562073e+01    7.6929597855e+00
    6.4299484253e+01    7.7233300209e+00
    6.4399520874e+01    7.7536902428e+00
    6.4499557495e+01    7.7839899063e+00
    6.4599479675e+01    7.8142004013e+00
    6.4699493408e+01    7.8443899155e+00
    6.4799583435e+01    7.8745393753e+00
    6.4899559021e+01    7.9046006203e+00
    6.4999557495e+01    7.9345903397e+00
    6.5099487305e+01    7.9645099640e+00
    6.5199501038e+01    7.9943695068e+00
    6.5299484253e+01    8.0241603851e+00
    6.5399536133e+01    8.0539102554e+00
    6.5499496460e+01    8.0835695267e+00
    6.5599517822e+01    8.1131801605e+00
    6.5699562073e+01    8.1427402496e+00
    6.5799507141e+01    8.1722097397e+00
    6.5899543762e+01    8.2016201019e+00
    6.5999542236e+01    8.2310400009e+00
    6.6099456787e+01    8.2603206635e+00
    6.6199539185e+01    8.2896099091e+00
    6.6299491882e+01    8.3187599182e+00
    6.6399513245e+01    8.3478403091e+00
    6.6499504089e+01    8.3769598007e+00
    6.6599456787e+01    8.4059200287e+00
    6.6699440002e+01    8.4348096848e+00
    6.6799438477e+01    8.4637393951e+00
    6.6899444580e+01    8.4925003052e+00
    6.6999458313e+01    8.5213108063e+00
    6.7099494934e+01    8.5499496460e+00
    6.7199455261e+01    8.5786399841e+00
    6.7299453735e+01    8.6071500778e+00
    6.7399490356e+01    8.6357002258e+00
    6.7499465942e+01    8.6640796661e+00
    6.7599449158e+01    8.6924104691e+00
    6.7699424744e+01    8.7207698822e+00
    6.7799468994e+01    8.7489500046e+00
    6.7899467468e+01    8.7771701813e+00
    6.7999488831e+01    8.8052101135e+00
    6.8099426270e+01    8.8331899643e+00
    6.8199440002e+01    8.8611793518e+00
    6.8299446106e+01    8.8889894485e+00
    6.8399505615e+01    8.9168195724e+00
    6.8499488831e+01    8.9444904327e+00
    6.8599418640e+01    8.9722003937e+00
    6.8699440002e+01    8.9997406006e+00
    6.8799415588e+01    9.0272102356e+00
    6.8899505615e+01    9.0546998978e+00
    6.8999435425e+01    9.0820493698e+00
    6.9099510193e+01    9.1094093323e+00
    6.9199401855e+01    9.1366205215e+00
    6.9299438477e+01    9.1638402939e+00
    6.9399475098e+01    9.1908798218e+00
    6.9499443054e+01    9.2179403305e+00
    6.9599433899e+01    9.2448101044e+00
    6.9699417114e+01    9.2715997696e+00
    6.9799446106e+01    9.2983999252e+00
    6.9899452209e+01    9.3250198364e+00
    6.9999389648e+01    9.3516807556e+00
    7.0099388123e+01    9.3891401291e+00
    7.0199386597e+01    9.4267396927e+00
    7.0299385071e+01    9.4641504288e+00
    7.0399391174e+01    9.5015897751e+00
    7.0499488831e+01    9.5389299393e+00
    7.0599464417e+01    9.5761108398e+00
    7.0699409485e+01    9.6132106781e+00
    7.0799407959e+01    9.6503200531e+00
    7.0899406433e+01    9.6872606277e+00
    7.0999366760e+01    9.7241201401e+00
    7.1099403381e+01    9.7609796524e+00
    7.1199447632e+01    9.7977695465e+00
    7.1299415588e+01    9.8343906403e+00
    7.1399475098e+01    9.8710298538e+00
    7.1499412537e+01    9.9075098038e+00
    7.1599456787e+01    9.9439907074e+00
    7.1699417114e+01    9.9803199768e+00
    7.1799392700e+01    1.0016579628e+01
    7.1899375916e+01    1.0052850723e+01
    7.1999397278e+01    1.0088930130e+01
    7.2099388123e+01    1.0125049591e+01
    7.2199371338e+01    1.0160989761e+01
    7.2299362183e+01    1.0196849823e+01
    7.2399353027e+01    1.0232719421e+01
    7.2499359131e+01    1.0268410683e+01
    7.2599372864e+01    1.0304120064e+01
    7.2699455261e+01    1.0339719772e+01
    7.2799369812e+01    1.0375180244e+01
    7.2899368286e+01    1.0410539627e+01
    7.2999374390e+01    1.0445940018e+01
    7.3099357605e+01    1.0481170654e+01
    7.3199401855e+01    1.0516420364e+01
    7.3299430847e+01    1.0551509857e+01
    7.3399353027e+01    1.0586560249e+01
    7.3499366760e+01    1.0621610641e+01
    7.3599449158e+01    1.0656570435e+01
    7.3699432373e+01    1.0691370010e+01
    7.3799339294e+01    1.0726090431e+01
    7.3899368286e+01    1.0760820389e+01
    7.3999404907e+01    1.0795359612e+01
    7.4099342346e+01    1.0829940796e+01
    7.4199417114e+01    1.0864310265e+01
    7.4299346924e+01    1.0898729324e+01
    7.4399337769e+01    1.0932950020e+01
    7.4499382019e+01    1.0967200279e+01
    7.4599327087e+01    1.1001289368e+01
    7.4699409485e+01    1.1035379410e+01
    7.4799392700e+01    1.1069299698e+01
    7.4899353027e+01    1.1103149414e+01
    7.4999420166e+01    1.1136980057e+01
    7.5099311829e+01    1.1170660019e+01
    7.5199401855e+01    1.1204299927e+01
    7.5299385071e+01    1.1237780571e+01
    7.5399414062e+01    1.1271260262e+01
    7.5499366760e+01    1.1304570198e+01
    7.5599334717e+01    1.1337790489e+01
    7.5699356079e+01    1.1371020317e+01
    7.5799354553e+01    1.1404170036e+01
    7.5899391174e+01    1.1437139511e+01
    7.5999389648e+01    1.1470130920e+01
    7.6099327087e+01    1.1502949715e+01
    7.6199409485e+01    1.1535769463e+01
    7.6299339294e+01    1.1568440437e+01
    7.6399337769e+01    1.1601010323e+01
    7.6499382019e+01    1.1633579254e+01
    7.6599365234e+01    1.1665990829e+01
    7.6699363708e+01    1.1698400497e+01
    7.6799377441e+01    1.1730629921e+01
    7.6899322510e+01    1.1762790680e+01
    7.6999282837e+01    1.1794960022e+01
    7.7099357605e+01    1.1827030182e+01
    7.7199378967e+01    1.1858919144e+01
    7.7299346924e+01    1.1890740395e+01
    7.7399360657e+01    1.1922559738e+01
    7.7499305725e+01    1.1954199791e+01
    7.7599281311e+01    1.1985750198e+01
    7.7699295044e+01    1.2017310143e+01
    7.7799362183e+01    1.2048759460e+01
    7.7899261475e+01    1.2080050468e+01
    7.7999259949e+01    1.2111219406e+01
    7.8099372864e+01    1.2142359734e+01
    7.8199287415e+01    1.2173350334e+01
    7.8299339294e+01    1.2204299927e+01
    7.8399345398e+01    1.2235060692e+01
    7.8499305725e+01    1.2265840530e+01
    7.8599342346e+01    1.2296409607e+01
    7.8699325562e+01    1.2327000618e+01
    7.8799346924e+01    1.2357389450e+01
    7.8899276733e+01    1.2387710571e+01
    7.8999359131e+01    1.2418009758e+01
    7.9099296570e+01    1.2448140144e+01
    7.9199264526e+01    1.2478269577e+01
    7.9299308777e+01    1.2508171082e+01
    7.9399253845e+01    1.2538101196e+01
    7.9499298096e+01    1.2567789078e+01
    7.9599342346e+01    1.2597480774e+01
    7.9699249268e+01    1.2626979828e+01
    7.9799240112e+01    1.2656360626e+01
    7.9899345398e+01    1.2685699463e+01
    7.9999244690e+01    1.2714900970e+01
    8.0099258423e+01    1.2755670547e+01
    8.0199249268e+01    1.2796440125e+01
    8.0299339294e+01    1.2837200165e+01
    8.0399307251e+01    1.2877770424e+01
    8.0499244690e+01    1.2918149948e+01
    8.0599319458e+01    1.2958589554e+01
    8.0699241638e+01    1.2998759270e+01
    8.0799308777e+01    1.3038990021e+01
    8.0899314880e+01    1.3079019547e+01
    8.0999267578e+01    1.3118860245e+01
    8.1099281311e+01    1.3158680916e+01
    8.1199310303e+01    1.3198479652e+01
    8.1299247742e+01    1.3238010406e+01
    8.1399269104e+01    1.3277519226e+01
    8.1499275208e+01    1.3316930771e+01
    8.1599212646e+01    1.3356260300e+01
    8.1699295044e+01    1.3395460129e+01
    8.1799232483e+01    1.3434591293e+01
    8.1899314880e+01    1.3473580360e+01
    8.1999206543e+01    1.3512510300e+01
    8.2099311829e+01    1.3551279068e+01
    8.2199295044e+01    1.3589981079e+01
    8.2299217224e+01    1.3628589630e+01
    8.2399261475e+01    1.3667049408e+01
    8.2499229431e+01    1.3705421448e+01
    8.2599296570e+01    1.3743650436e+01
    8.2699241638e+01    1.3781799316e+01
    8.2799194336e+01    1.3819729805e+01
    8.2899276733e+01    1.3857730865e+01
    8.2999221802e+01    1.3895569801e+01
    8.3099281311e+01    1.3933279037e+01
    8.3199218750e+01    1.3970920563e+01
    8.3299247742e+01    1.4008460045e+01
    8.3399215698e+01    1.4045801163e+01
    8.3499267578e+01    1.4083229065e+01
    8.3599182129e+01    1.4120379448e+01
    8.3699256897e+01    1.4157579422e+01
    8.3799270630e+01    1.4194599152e+01
    8.3899208069e+01    1.4231419563e+01
    8.3999191284e+01    1.4268218994e+01
    8.4099266052e+01    1.4304979324e+01
    8.4199272156e+01    1.4341558456e+01
    8.4299209595e+01    1.4377948761e+01
    8.4399215698e+01    1.4414320946e+01
    8.4499183655e+01    1.4450599670e+01
    8.4599235535e+01    1.4486749649e+01
    8.4699165344e+01    1.4522838593e+01
    8.4799179077e+01    1.4558799744e+01
    8.4899200439e+01    1.4594639778e+01
    8.4999198914e+01    1.4630378723e+01
    8.5099243164e+01    1.4665990829e+01
    8.5199195862e+01    1.4701499939e+01
    8.5299240112e+01    1.4736859322e+01
    8.5399192810e+01    1.4772150993e+01
    8.5499153137e+01    1.4807310104e+01
    8.5599212646e+01    1.4842340469e+01
    8.5699188232e+01    1.4877288818e+01
    8.5799232483e+01    1.4912120819e+01
    8.5899162292e+01    1.4946859360e+01
    8.5999160767e+01    1.4981489182e+01
    8.6099182129e+01    1.5016000748e+01
    8.6199157715e+01    1.5050319672e+01
    8.6299171448e+01    1.5084709167e+01
    8.6399230957e+01    1.5118879318e+01
    8.6499160767e+01    1.5152879715e+01
    8.6599212646e+01    1.5186929703e+01
    8.6699180603e+01    1.5220680237e+01
    8.6799140930e+01    1.5254429817e+01
    8.6899215698e+01    1.5288140297e+01
    8.6999176025e+01    1.5321570396e+01
    8.7099243164e+01    1.5355069160e+01
    8.7199234009e+01    1.5388370514e+01
    8.7299186707e+01    1.5421480179e+01
    8.7399177551e+01    1.5454560280e+01
    8.7499198914e+01    1.5487520218e+01
    8.7599159241e+01    1.5520389557e+01
    8.7699127197e+01    1.5553140640e+01
    8.7799209595e+01    1.5585740089e+01
    8.7899192810e+01    1.5618249893e+01
    8.7999183655e+01    1.5650621414e+01
    8.8099136353e+01    1.5682889938e+01
    8.8199180603e+01    1.5715000153e+01
    8.8299156189e+01    1.5746999741e+01
    8.8399208069e+01    1.5778860092e+01
    8.8499206543e+01    1.5810609818e+01
    8.8599121094e+01    1.5842279434e+01
    8.8699150085e+01    1.5873800278e+01
    8.8799209595e+01    1.5905189514e+01
    8.8899208069e+01    1.5936489105e+01
    8.8999114990e+01    1.5967700958e+01
    8.9099174500e+01    1.5998750687e+01
    8.9199119568e+01    1.6029720306e+01
    8.9299133301e+01    1.6060529709e+01
    8.9399185181e+01    1.6091211319e+01
    8.9499122620e+01    1.6121700287e+01
    8.9599105835e+01    1.6152139664e+01
    8.9699195862e+01    1.6182500839e+01
    8.9799140930e+01    1.6212690353e+01
    8.9899169922e+01    1.6242719650e+01
    8.9999168396e+01    1.6272640228e+01
    9.0099174500e+01    1.6316839218e+01
    9.0199165344e+01    1.6361019135e+01
    9.0299156189e+01    1.6405078888e+01
    9.0399093628e+01    1.6449029922e+01
    9.0499145508e+01    1.6492910385e+01
    9.0599128723e+01    1.6536579132e+01
    9.0699134827e+01    1.6580209732e+01
    9.0799125671e+01    1.6623620987e+01
    9.0899169922e+01    1.6666969299e+01
    9.0999130249e+01    1.6710121155e+01
    9.1099159241e+01    1.6753120422e+01
    9.1199089050e+01    1.6796020508e+01
    9.1299148560e+01    1.6838850021e+01
    9.1399162292e+01    1.6881469727e+01
    9.1499099731e+01    1.6923999786e+01
    9.1599060059e+01    1.6966400146e+01
    9.1699058533e+01    1.7008760452e+01
    9.1799110413e+01    1.7050870895e+01
    9.1899085999e+01    1.7092880249e+01
    9.1999160767e+01    1.7134830475e+01
    9.2099105835e+01    1.7176589966e+01
    9.2199081421e+01    1.7218210220e+01
    9.2299079895e+01    1.7259780884e+01
    9.2399032593e+01    1.7301149368e+01
    9.2499122620e+01    1.7342420578e+01
    9.2599113464e+01    1.7383501053e+01
    9.2699058533e+01    1.7424449921e+01
    9.2799095154e+01    1.7465339661e+01
    9.2899139404e+01    1.7506008148e+01
    9.2999122620e+01    1.7546689987e+01
    9.3099060059e+01    1.7587070465e+01
    9.3199066162e+01    1.7627510071e+01
    9.3299133301e+01    1.7667808533e+01
    9.3399063110e+01    1.7707849503e+01
    9.3499130249e+01    1.7747909546e+01
    9.3599067688e+01    1.7787788391e+01
    9.3699050903e+01    1.7827529907e+01
    9.3799064636e+01    1.7867219925e+01
    9.3899047852e+01    1.7906688690e+01
    9.3999084473e+01    1.7946098328e+01
    9.4099029541e+01    1.7985321045e+01
    9.4199028015e+01    1.8024391174e+01
    9.4299018860e+01    1.8063341141e+01
    9.4399032593e+01    1.8102237701e+01
    9.4499015808e+01    1.8140930176e+01
    9.4599098206e+01    1.8179561615e+01
    9.4699028015e+01    1.8218019485e+01
    9.4799064636e+01    1.8256309509e+01
    9.4899070740e+01    1.8294570923e+01
    9.4999069214e+01    1.8332599640e+01
    9.5099113464e+01    1.8370559692e+01
    9.5199066162e+01    1.8408309937e+01
    9.5299102783e+01    1.8445890427e+01
    9.5399032593e+01    1.8483360291e+01
    9.5499092102e+01    1.8520740509e+01
    9.5599052429e+01    1.8557941437e+01
    9.5699089050e+01    1.8595069885e+01
    9.5799003601e+01    1.8631910324e+01
    9.5899101257e+01    1.8668840408e+01
    9.5999046326e+01    1.8705410004e+01
    9.6099075317e+01    1.8742000580e+01
    9.6199028015e+01    1.8778400421e+01
    9.6299072266e+01    1.8814720154e+01
    9.6399078369e+01    1.8850820541e+01
    9.6499038696e+01    1.8886789322e+01
    9.6599021912e+01    1.8922611237e+01
    9.6699073792e+01    1.8958360672e+01
    9.6799095154e+01    1.8993991852e+01
    9.6899070740e+01    1.9029411316e+01
    9.6999046326e+01    1.9064689636e+01
    9.7099082947e+01    1.9099918365e+01
    9.7199081421e+01    1.9134920120e+01
    9.7299041748e+01    1.9169799805e+01
    9.7399017334e+01    1.9204530716e+01
    9.7499015808e+01    1.9239099503e+01
    9.7599037170e+01    1.9273700714e+01
    9.7698982239e+01    1.9308000565e+01
    9.7798957825e+01    1.9342201233e+01
    9.7899040222e+01    1.9376199722e+01
    9.7999015808e+01    1.9410099030e+01
    9.8098991394e+01    1.9443799973e+01
    9.8198989868e+01    1.9477500916e+01
    9.8299034119e+01    1.9510898590e+01
    9.8399040222e+01    1.9544200897e+01
    9.8498954773e+01    1.9577301025e+01
    9.8599021912e+01    1.9610300064e+01
    9.8698959351e+01    1.9643199921e+01
    9.8799003601e+01    1.9675899506e+01
    9.8899055481e+01    1.9708599091e+01
    9.8999046326e+01    1.9741001129e+01
    9.9099006653e+01    1.9773300171e+01
    9.9198966980e+01    1.9805400848e+01
    9.9299049377e+01    1.9837400436e+01
    9.9399002075e+01    1.9869199753e+01
    9.9498992920e+01    1.9900800705e+01
    9.9598937988e+01    1.9932300568e+01
    9.9698951721e+01    1.9963699341e+01
    9.9799018860e+01    1.9994800568e+01
    9.9898986816e+01    2.0025899887e+01
    9.9999023438e+01    2.0056701660e+01
    1.0009895325e+02    2.0104900360e+01
    1.0019902039e+02    2.0153099060e+01
    1.0029898071e+02    2.0201099396e+01
    1.0039891052e+02    2.0248802185e+01
    1.0049893951e+02    2.0296600342e+01
    1.0059896088e+02    2.0344100952e+01
    1.0069899750e+02    2.0391498566e+01
    1.0079898834e+02    2.0438701630e+01
    1.0089895630e+02    2.0485698700e+01
    1.0099893951e+02    2.0532600403e+01
    1.0109896851e+02    2.0579399109e+01
    1.0119895172e+02    2.0625900269e+01
    1.0129898834e+02    2.0672298431e+01
    1.0139897156e+02    2.0718700409e+01
    1.0149896240e+02    2.0764799118e+01
    1.0159893799e+02    2.0810800552e+01
    1.0169896698e+02    2.0856597900e+01
    1.0179895020e+02    2.0902301788e+01
    1.0189891815e+02    2.0947799683e+01
    1.0199894714e+02    2.0993200302e+01
    1.0209900665e+02    2.1038501740e+01
    1.0219895935e+02    2.1083599091e+01
    1.0229889679e+02    2.1128398895e+01
    1.0239891052e+02    2.1173101425e+01
    1.0249899292e+02    2.1217901230e+01
    1.0259896088e+02    2.1262199402e+01
    1.0269898987e+02    2.1306501389e+01
    1.0279895782e+02    2.1350601196e+01
    1.0289891815e+02    2.1394598007e+01
    1.0299896240e+02    2.1438400269e+01
    1.0309893799e+02    2.1482200623e+01
    1.0319898224e+02    2.1525699615e+01
    1.0329898071e+02    2.1569202423e+01
    1.0339894867e+02    2.1612499237e+01
    1.0349890137e+02    2.1655597687e+01
    1.0359886932e+02    2.1698600769e+01
    1.0369893646e+02    2.1741500854e+01
    1.0379891968e+02    2.1784198761e+01
    1.0389894867e+02    2.1826801300e+01
    1.0399891663e+02    2.1869098663e+01
    1.0409886932e+02    2.1911300659e+01
    1.0419898224e+02    2.1953498840e+01
    1.0429885864e+02    2.1995300293e+01
    1.0439891815e+02    2.2037097931e+01
    1.0449889374e+02    2.2078701019e+01
    1.0459893799e+02    2.2120199203e+01
    1.0469891357e+02    2.2161500931e+01
    1.0479891968e+02    2.2202697754e+01
    1.0489893341e+02    2.2243700027e+01
    1.0499893951e+02    2.2284498215e+01
    1.0509896088e+02    2.2325199127e+01
    1.0519895935e+02    2.2365701675e+01
    1.0529894257e+02    2.2406000137e+01
    1.0539885712e+02    2.2446197510e+01
    1.0549896240e+02    2.2486198425e+01
    1.0559893036e+02    2.2526000977e+01
    1.0569888306e+02    2.2565700531e+01
    1.0579895020e+02    2.2605201721e+01
    1.0589891052e+02    2.2644500732e+01
    1.0599889374e+02    2.2683797836e+01
    1.0609883881e+02    2.2722801208e+01
    1.0619892883e+02    2.2761802673e+01
    1.0629882812e+02    2.2800600052e+01
    1.0639890289e+02    2.2839200974e+01
    1.0649890900e+02    2.2877698898e+01
    1.0659884644e+02    2.2915901184e+01
    1.0669883728e+02    2.2953998566e+01
    1.0679885864e+02    2.2992000580e+01
    1.0689882660e+02    2.3029800415e+01
    1.0699889374e+02    2.3067501068e+01
    1.0709886169e+02    2.3104999542e+01
    1.0719891357e+02    2.3142299652e+01
    1.0729888916e+02    2.3179498672e+01
    1.0739882660e+02    2.3216400146e+01
    1.0749884796e+02    2.3253398895e+01
    1.0759887695e+02    2.3290000916e+01
    1.0769883728e+02    2.3326499939e+01
    1.0779884338e+02    2.3362899780e+01
    1.0789890289e+02    2.3399097443e+01
    1.0799890137e+02    2.3435199738e+01
    1.0809883881e+02    2.3470897675e+01
    1.0819889832e+02    2.3506599426e+01
    1.0829879761e+02    2.3541999817e+01
    1.0839887238e+02    2.3577301025e+01
    1.0849884796e+02    2.3612398148e+01
    1.0859882355e+02    2.3647300720e+01
    1.0869882202e+02    2.3682201385e+01
    1.0879882812e+02    2.3716800690e+01
    1.0889887238e+02    2.3751300812e+01
    1.0899884796e+02    2.3785499573e+01
    1.0909886169e+02    2.3819601059e+01
    1.0919885254e+02    2.3853500366e+01
    1.0929888153e+02    2.3887300491e+01
    1.0939888000e+02    2.3920799255e+01
    1.0949880219e+02    2.3954101562e+01
    1.0959883118e+02    2.3987298965e+01
    1.0969882202e+02    2.4020301819e+01
    1.0979882812e+02    2.4053098679e+01
    1.0989878845e+02    2.4085601807e+01
    1.0999883270e+02    2.4118099213e+01
    1.1009886169e+02    2.4171499252e+01
    1.1019886780e+02    2.4224901199e+01
    1.1029882812e+02    2.4278200150e+01
    1.1039884186e+02    2.4331298828e+01
    1.1049884033e+02    2.4384201050e+01
    1.1059883881e+02    2.4436901093e+01
    1.1069876862e+02    2.4489299774e+01
    1.1079885101e+02    2.4541702271e+01
    1.1089882660e+02    2.4593799591e+01
    1.1099881744e+02    2.4645797729e+01
    1.1109879303e+02    2.4697500229e+01
    1.1119880676e+02    2.4749099731e+01
    1.1129885101e+02    2.4800601959e+01
    1.1139875793e+02    2.4851800919e+01
    1.1149881744e+02    2.4902799606e+01
    1.1159883118e+02    2.4953802109e+01
    1.1169879150e+02    2.5004400253e+01
    1.1179879761e+02    2.5054899216e+01
    1.1189878082e+02    2.5105298996e+01
    1.1199874878e+02    2.5155401230e+01
    1.1209874725e+02    2.5205398560e+01
    1.1219879150e+02    2.5255201340e+01
    1.1229885864e+02    2.5304800034e+01
    1.1239875031e+02    2.5354198456e+01
    1.1249878693e+02    2.5403501511e+01
    1.1259877014e+02    2.5452400208e+01
    1.1269879913e+02    2.5501298904e+01
    1.1279873657e+02    2.5549901962e+01
    1.1289882660e+02    2.5598400116e+01
    1.1299881744e+02    2.5646701813e+01
    1.1309882355e+02    2.5694900513e+01
    1.1319883728e+02    2.5742898941e+01
    1.1329884338e+02    2.5790800095e+01
    1.1339882660e+02    2.5838399887e+01
    1.1349880219e+02    2.5885799408e+01
    1.1359880066e+02    2.5933101654e+01
    1.1369879150e+02    2.5980199814e+01
    1.1379879761e+02    2.6027202606e+01
    1.1389878845e+02    2.6073902130e+01
    1.1399877167e+02    2.6120500565e+01
    1.1409873199e+02    2.6166898727e+01
    1.1419877625e+02    2.6213100433e+01
    1.1429872131e+02    2.6259099960e+01
    1.1439874268e+02    2.6304899216e+01
    1.1449874878e+02    2.6350601196e+01
    1.1459873962e+02    2.6395999908e+01
    1.1469882202e+02    2.6441400528e+01
    1.1479876709e+02    2.6486499786e+01
    1.1489874268e+02    2.6531497955e+01
    1.1499880219e+02    2.6576200485e+01
    1.1509873199e+02    2.6620700836e+01
    1.1519876862e+02    2.6665098190e+01
    1.1529872894e+02    2.6709300995e+01
    1.1539869690e+02    2.6753099442e+01
    1.1549880219e+02    2.6797000885e+01
    1.1559870911e+02    2.6840600967e+01
    1.1569869995e+02    2.6883998871e+01
    1.1579878235e+02    2.6927301407e+01
    1.1589868164e+02    2.6970201492e+01
    1.1599871826e+02    2.7013099670e+01
    1.1609873962e+02    2.7055801392e+01
    1.1619870758e+02    2.7098300934e+01
    1.1629878998e+02    2.7140697479e+01
    1.1639874268e+02    2.7182901382e+01
    1.1649873352e+02    2.7224700928e+01
    1.1659877777e+02    2.7266502380e+01
    1.1669869995e+02    2.7308000565e+01
    1.1679876709e+02    2.7349498749e+01
    1.1689866638e+02    2.7390598297e+01
    1.1699867249e+02    2.7431701660e+01
    1.1709873962e+02    2.7472599030e+01
    1.1719869995e+02    2.7513200760e+01
    1.1729876709e+02    2.7553600311e+01
    1.1739871979e+02    2.7593997955e+01
    1.1749877167e+02    2.7634099960e+01
    1.1759874725e+02    2.7673900604e+01
    1.1769872284e+02    2.7713598251e+01
    1.1779865265e+02    2.7753097534e+01
    1.1789866638e+02    2.7792499542e+01
    1.1799874115e+02    2.7831499100e+01
    1.1809873199e+02    2.7870401382e+01
    1.1819873810e+02    2.7909198761e+01
    1.1829875183e+02    2.7947700500e+01
    1.1839869690e+02    2.7985900879e+01
    1.1849867249e+02    2.8024000168e+01
    1.1859868622e+02    2.8061798096e+01
    1.1869867706e+02    2.8099500656e+01
    1.1879872131e+02    2.8137098312e+01
    1.1889871216e+02    2.8174400330e+01
    1.1899870300e+02    2.8211599350e+01
    1.1909868622e+02    2.8248498917e+01
    1.1919875336e+02    2.8285200119e+01
    1.1929869843e+02    2.8321699142e+01
    1.1939871216e+02    2.8358001709e+01
    1.1949864960e+02    2.8394001007e+01
    1.1959871674e+02    2.8429899216e+01
    1.1969870758e+02    2.8465600967e+01
    1.1979866028e+02    2.8501100540e+01
    1.1989871216e+02    2.8536199570e+01
    1.1999864960e+02    2.8571302414e+01
    1.2009867859e+02    2.8629400253e+01
    1.2019863129e+02    2.8687501907e+01
    1.2029866028e+02    2.8745502472e+01
    1.2039862823e+02    2.8803197861e+01
    1.2049873352e+02    2.8860801697e+01
    1.2059866333e+02    2.8917999268e+01
    1.2069870758e+02    2.8975198746e+01
    1.2079866028e+02    2.9032098770e+01
    1.2089869690e+02    2.9088699341e+01
    1.2099864960e+02    2.9145101547e+01
    1.2109863281e+02    2.9201400757e+01
    1.2119870758e+02    2.9257499695e+01
    1.2129862976e+02    2.9313198090e+01
    1.2139859772e+02    2.9368898392e+01
    1.2149871063e+02    2.9424301147e+01
    1.2159870148e+02    2.9479499817e+01
    1.2169867706e+02    2.9534500122e+01
    1.2179863739e+02    2.9589300156e+01
    1.2189869690e+02    2.9643999100e+01
    1.2199865723e+02    2.9698301315e+01
    1.2209867096e+02    2.9752500534e+01
    1.2219862366e+02    2.9806402206e+01
    1.2229863739e+02    2.9860097885e+01
    1.2239868927e+02    2.9913599014e+01
    1.2249867249e+02    2.9966897964e+01
    1.2259866333e+02    3.0019998550e+01
    1.2269860077e+02    3.0072801590e+01
    1.2279860687e+02    3.0125400543e+01
    1.2289865112e+02    3.0177900314e+01
    1.2299859619e+02    3.0230100632e+01
    1.2309864807e+02    3.0282100677e+01
    1.2319862366e+02    3.0334001541e+01
    1.2329859161e+02    3.0385698318e+01
    1.2339864349e+02    3.0437099457e+01
    1.2349864197e+02    3.0488399506e+01
    1.2359864807e+02    3.0539499283e+01
    1.2369860840e+02    3.0590299606e+01
    1.2379866028e+02    3.0641000748e+01
    1.2389862061e+02    3.0691400528e+01
    1.2399867249e+02    3.0741600037e+01
    1.2409857178e+02    3.0791599274e+01
    1.2419859314e+02    3.0841299057e+01
    1.2429866791e+02    3.0891002655e+01
    1.2439865875e+02    3.0940298080e+01
    1.2449858856e+02    3.0989400864e+01
    1.2459863281e+02    3.1038398743e+01
    1.2469864655e+02    3.1087100983e+01
    1.2479865265e+02    3.1135601044e+01
    1.2489855957e+02    3.1184001923e+01
    1.2499861908e+02    3.1232002258e+01
    1.2509861755e+02    3.1279897690e+01
    1.2519862366e+02    3.1327497482e+01
    1.2529856110e+02    3.1374799728e+01
    1.2539856720e+02    3.1421998978e+01
    1.2549854279e+02    3.1468900681e+01
    1.2559864807e+02    3.1515699387e+01
    1.2569854736e+02    3.1562200546e+01
    1.2579859924e+02    3.1608400345e+01
    1.2589862061e+02    3.1654500961e+01
    1.2599855042e+02    3.1700399399e+01
    1.2609853363e+02    3.1746099472e+01
    1.2619857025e+02    3.1791498184e+01
    1.2629856110e+02    3.1836799622e+01
    1.2639853668e+02    3.1881700516e+01
    1.2649854279e+02    3.1926500320e+01
    1.2659863281e+02    3.1971099854e+01
    1.2669853210e+02    3.2015403748e+01
    1.2679853058e+02    3.2059600830e+01
    1.2689861298e+02    3.2103500366e+01
    1.2699862671e+02    3.2147201538e+01
    1.2709860229e+02    3.2190696716e+01
    1.2719853210e+02    3.2234001160e+01
    1.2729857635e+02    3.2277099609e+01
    1.2739852142e+02    3.2319801331e+01
    1.2749851990e+02    3.2362503052e+01
    1.2759858704e+02    3.2404899597e+01
    1.2769854736e+02    3.2447101593e+01
    1.2779859161e+02    3.2489101410e+01
    1.2789856720e+02    3.2530700684e+01
    1.2799855042e+02    3.2572196960e+01
    1.2809857178e+02    3.2613498688e+01
    1.2819859314e+02    3.2654502869e+01
    1.2829850769e+02    3.2695198059e+01
    1.2839859009e+02    3.2735702515e+01
    1.2849862671e+02    3.2776000977e+01
    1.2859863281e+02    3.2816097260e+01
    1.2869856262e+02    3.2856002808e+01
    1.2879852295e+02    3.2895599365e+01
    1.2889865112e+02    3.2935199738e+01
    1.2899858093e+02    3.2974399567e+01
    1.2909863281e+02    3.3013301849e+01
    1.2919865417e+02    3.3051998138e+01
    1.2929864502e+02    3.3090602875e+01
    1.2939862061e+02    3.3128799438e+01
    1.2949862671e+02    3.3166805267e+01
    1.2959860229e+02    3.3204502106e+01
    1.2969863892e+02    3.3242095947e+01
    1.2979864502e+02    3.3279300690e+01
    1.2989871216e+02    3.3316295624e+01
    1.2999867249e+02    3.3353103638e+01
    1.3009872437e+02    3.3414897919e+01
    1.3019862366e+02    3.3476799011e+01
    1.3029873657e+02    3.3538597107e+01
    1.3039868164e+02    3.3600097656e+01
    1.3049870300e+02    3.3661197662e+01
    1.3059872437e+02    3.3722297668e+01
    1.3069869995e+02    3.3782901764e+01
    1.3079876709e+02    3.3843498230e+01
    1.3089868164e+02    3.3903602600e+01
    1.3099871826e+02    3.3963600159e+01
    1.3109878540e+02    3.4023300171e+01
    1.3119868469e+02    3.4082801819e+01
    1.3129876709e+02    3.4142101288e+01
    1.3139872742e+02    3.4200996399e+01
    1.3149876404e+02    3.4259902954e+01
    1.3159881592e+02    3.4318504333e+01
    1.3169880676e+02    3.4376796722e+01
    1.3179878235e+02    3.4434997559e+01
    1.3189875793e+02    3.4492797852e+01
    1.3199873352e+02    3.4550399780e+01
    1.3209878540e+02    3.4607799530e+01
    1.3219877625e+02    3.4665000916e+01
    1.3229884338e+02    3.4722000122e+01
    1.3239886475e+02    3.4778598785e+01
    1.3249882507e+02    3.4834999084e+01
    1.3259877014e+02    3.4891101837e+01
    1.3269877625e+02    3.4947101593e+01
    1.3279888916e+02    3.5002799988e+01
    1.3289884949e+02    3.5058200836e+01
    1.3299879456e+02    3.5113403320e+01
    1.3309883118e+02    3.5168403625e+01
    1.3319885254e+02    3.5223304749e+01
    1.3329890442e+02    3.5277797699e+01
    1.3339883423e+02    3.5332099915e+01
    1.3349891663e+02    3.5386295319e+01
    1.3359892273e+02    3.5440196991e+01
    1.3369885254e+02    3.5493797302e+01
    1.3379893494e+02    3.5547199249e+01
    1.3389888000e+02    3.5600399017e+01
    1.3399891663e+02    3.5653301239e+01
    1.3409886169e+02    3.5706001282e+01
    1.3419892883e+02    3.5758499146e+01
    1.3429898071e+02    3.5810699463e+01
    1.3439897156e+02    3.5862701416e+01
    1.3449897766e+02    3.5914402008e+01
    1.3459890747e+02    3.5965904236e+01
    1.3469892883e+02    3.6017097473e+01
    1.3479901123e+02    3.6068202972e+01
    1.3489895630e+02    3.6118896484e+01
    1.3499897766e+02    3.6169395447e+01
    1.3509898376e+02    3.6219696045e+01
    1.3519898987e+02    3.6269699097e+01
    1.3529898071e+02    3.6319396973e+01
    1.3539903259e+02    3.6368896484e+01
    1.3549896240e+02    3.6418098450e+01
    1.3559895325e+02    3.6466999054e+01
    1.3569905090e+02    3.6515701294e+01
    1.3579896545e+02    3.6564201355e+01
    1.3589898682e+02    3.6612503052e+01
    1.3599908447e+02    3.6660499573e+01
    1.3609906006e+02    3.6708301544e+01
    1.3619906616e+02    3.6755802155e+01
    1.3629908752e+02    3.6803104401e+01
    1.3639903259e+02    3.6850204468e+01
    1.3649906921e+02    3.6897003174e+01
    1.3659906006e+02    3.6943496704e+01
    1.3669911194e+02    3.6989795685e+01
    1.3679905701e+02    3.7035797119e+01
    1.3689909363e+02    3.7081600189e+01
    1.3699908447e+02    3.7127296448e+01
    1.3709906006e+02    3.7172500610e+01
    1.3719906616e+02    3.7217601776e+01
    1.3729916382e+02    3.7262500763e+01
    1.3739907837e+02    3.7307102203e+01
    1.3749917603e+02    3.7351402283e+01
    1.3759913635e+02    3.7395500183e+01
    1.3769915771e+02    3.7439300537e+01
    1.3779910278e+02    3.7482902527e+01
    1.3789909363e+02    3.7526195526e+01
    1.3799916077e+02    3.7569404602e+01
    1.3809918213e+02    3.7612102509e+01
    1.3819912720e+02    3.7654598236e+01
    1.3829916382e+02    3.7696796417e+01
    1.3839921570e+02    3.7738796234e+01
    1.3849920654e+02    3.7780498505e+01
    1.3859919739e+02    3.7821998596e+01
    1.3869914246e+02    3.7863098145e+01
    1.3879920959e+02    3.7904098511e+01
    1.3889915466e+02    3.7944900513e+01
    1.3899919128e+02    3.7985301971e+01
    1.3909927368e+02    3.8025501251e+01
    1.3919917297e+02    3.8065402985e+01
    1.3929917908e+02    3.8105003357e+01
    1.3939923096e+02    3.8144401550e+01
    1.3949920654e+02    3.8183502197e+01
    1.3959925842e+02    3.8222301483e+01
    1.3969920349e+02    3.8260795593e+01
    1.3979931641e+02    3.8299102783e+01
    1.3989927673e+02    3.8337097168e+01
    1.3999925232e+02    3.8374698639e+01
    1.4009933472e+02    3.8437000275e+01
    1.4019931030e+02    3.8499095917e+01
    1.4029933167e+02    3.8560897827e+01
    1.4039932251e+02    3.8622402191e+01
    1.4049926758e+02    3.8683696747e+01
    1.4059934998e+02    3.8744697571e+01
    1.4069934082e+02    3.8805400848e+01
    1.4079931641e+02    3.8865699768e+01
    1.4089936829e+02    3.8925800323e+01
    1.4099938965e+02    3.8985801697e+01
    1.4109931946e+02    3.9045299530e+01
    1.4119937134e+02    3.9104701996e+01
    1.4129930115e+02    3.9163696289e+01
    1.4139930725e+02    3.9222499847e+01
    1.4149932861e+02    3.9281002045e+01
    1.4159939575e+02    3.9339298248e+01
    1.4169932556e+02    3.9397399902e+01
    1.4179934692e+02    3.9455204010e+01
    1.4189935303e+02    3.9512699127e+01
    1.4199943542e+02    3.9569900513e+01
    1.4209941101e+02    3.9626903534e+01
    1.4219935608e+02    3.9683498383e+01
    1.4229942322e+02    3.9739898682e+01
    1.4239945984e+02    3.9796104431e+01
    1.4249937439e+02    3.9851898193e+01
    1.4259945679e+02    3.9907600403e+01
    1.4269938660e+02    3.9962696075e+01
    1.4279939270e+02    4.0017799377e+01
    1.4289945984e+02    4.0072502136e+01
    1.4299948120e+02    4.0127101898e+01
    1.4309945679e+02    4.0181400299e+01
    1.4319949341e+02    4.0235301971e+01
    1.4329953003e+02    4.0289096832e+01
    1.4339950562e+02    4.0342597961e+01
    1.4349946594e+02    4.0395801544e+01
    1.4359950256e+02    4.0448799133e+01
    1.4369952393e+02    4.0501499176e+01
    1.4379954529e+02    4.0553901672e+01
    1.4389953613e+02    4.0606197357e+01
    1.4399952698e+02    4.0658000946e+01
    1.4409951782e+02    4.0709602356e+01
    1.4419955444e+02    4.0760997772e+01
    1.4429953003e+02    4.0812000275e+01
    1.4439955139e+02    4.0862895966e+01
    1.4449952698e+02    4.0913398743e+01
    1.4459953308e+02    4.0963703156e+01
    1.4469961548e+02    4.1013805389e+01
    1.4479951477e+02    4.1063499451e+01
    1.4489961243e+02    4.1113002777e+01
    1.4499952698e+02    4.1162296295e+01
    1.4509954834e+02    4.1211101532e+01
    1.4519958496e+02    4.1259803772e+01
    1.4529956055e+02    4.1308197021e+01
    1.4539956665e+02    4.1356201172e+01
    1.4549957275e+02    4.1404102325e+01
    1.4559965515e+02    4.1451599121e+01
    1.4569964600e+02    4.1498901367e+01
    1.4579960632e+02    4.1545898438e+01
    1.4589962769e+02    4.1592597961e+01
    1.4599967957e+02    4.1639202118e+01
    1.4609959412e+02    4.1685298920e+01
    1.4619961548e+02    4.1731201172e+01
    1.4629966736e+02    4.1777000427e+01
    1.4639967346e+02    4.1822395325e+01
    1.4649966431e+02    4.1867599487e+01
    1.4659965515e+02    4.1912303925e+01
    1.4669970703e+02    4.1956897736e+01
    1.4679968262e+02    4.2001300812e+01
    1.4689971924e+02    4.2045303345e+01
    1.4699975586e+02    4.2089199066e+01
    1.4709971619e+02    4.2132701874e+01
    1.4719967651e+02    4.2175998688e+01
    1.4729966736e+02    4.2219001770e+01
    1.4739979553e+02    4.2261699677e+01
    1.4749972534e+02    4.2304096222e+01
    1.4759971619e+02    4.2346302032e+01
    1.4769975281e+02    4.2388301849e+01
    1.4779969788e+02    4.2429798126e+01
    1.4789979553e+02    4.2471199036e+01
    1.4799975586e+02    4.2512302399e+01
    1.4809979248e+02    4.2552997589e+01
    1.4819981384e+02    4.2593399048e+01
    1.4829972839e+02    4.2633598328e+01
    1.4839982605e+02    4.2673496246e+01
    1.4849983215e+02    4.2713001251e+01
    1.4859982300e+02    4.2752395630e+01
    1.4869975281e+02    4.2791500092e+01
    1.4879983521e+02    4.2830299377e+01
    1.4889985657e+02    4.2869003296e+01
    1.4899984741e+02    4.2907402039e+01
    1.4909980774e+02    4.2944599152e+01
    1.4919979858e+02    4.2982398987e+01
    1.4929986572e+02    4.3019901276e+01
    1.4939985657e+02    4.3057201385e+01
    1.4949980164e+02    4.3094203949e+01
    1.4959986877e+02    4.3130695343e+01
    1.4969992065e+02    4.3166000366e+01
    1.4979991150e+02    4.3202098846e+01
    1.4989985657e+02    4.3237899780e+01
    1.4999987793e+02    4.3273303986e+01
    1.5009994507e+02    4.3332397461e+01
    1.5019990540e+02    4.3390403748e+01
    1.5029992676e+02    4.3448898315e+01
    1.5039991760e+02    4.3507301331e+01
    1.5049987793e+02    4.3565399170e+01
    1.5059985352e+02    4.3622100830e+01
    1.5069995117e+02    4.3679397583e+01
    1.5079997253e+02    4.3736400604e+01
    1.5089991760e+02    4.3793296814e+01
    1.5099992371e+02    4.3849800110e+01
    1.5110000610e+02    4.3905902863e+01
    1.5119998169e+02    4.3960899353e+01
    1.5129997253e+02    4.4016502380e+01
    1.5140002441e+02    4.4071800232e+01
    1.5149993896e+02    4.4126003265e+01
    1.5160003662e+02    4.4180599213e+01
    1.5169993591e+02    4.4235301971e+01
    1.5179997253e+02    4.4289497375e+01
    1.5189997864e+02    4.4343402863e+01
    1.5200001526e+02    4.4396995544e+01
    1.5209997559e+02    4.4449401855e+01
    1.5219999695e+02    4.4502395630e+01
    1.5230003357e+02    4.4555000305e+01
    1.5239999390e+02    4.4607604980e+01
    1.5249998474e+02    4.4658699036e+01
    1.5260005188e+02    4.4710502625e+01
    1.5270010376e+02    4.4761898041e+01
    1.5280001831e+02    4.4813301086e+01
    1.5290007019e+02    4.4864097595e+01
    1.5300007629e+02    4.4913803101e+01
    1.5310009766e+02    4.4964195251e+01
    1.5320007324e+02    4.5014404297e+01
    1.5330003357e+02    4.5064300537e+01
    1.5340014648e+02    4.5113700867e+01
    1.5350007629e+02    4.5162094116e+01
    1.5360015869e+02    4.5210899353e+01
    1.5370014954e+02    4.5259605408e+01
    1.5380009460e+02    4.5308097839e+01
    1.5390017700e+02    4.5355102539e+01
    1.5400010681e+02    4.5402999878e+01
    1.5410015869e+02    4.5450401306e+01
    1.5420018005e+02    4.5497695923e+01
    1.5430018616e+02    4.5544601440e+01
    1.5440011597e+02    4.5590400696e+01
    1.5450010681e+02    4.5636703491e+01
    1.5460020447e+02    4.5682701111e+01
    1.5470019531e+02    4.5728500366e+01
    1.5480012512e+02    4.5773094177e+01
    1.5490022278e+02    4.5818199158e+01
    1.5500015259e+02    4.5863197327e+01
    1.5510014343e+02    4.5907798767e+01
    1.5520022583e+02    4.5952003479e+01
    1.5530020142e+02    4.5995002747e+01
    1.5540017700e+02    4.6038703918e+01
    1.5550019836e+02    4.6082000732e+01
    1.5560020447e+02    4.6125099182e+01
    1.5570025635e+02    4.6167800903e+01
    1.5580026245e+02    4.6209304810e+01
    1.5590023804e+02    4.6251594543e+01
    1.5600022888e+02    4.6293502808e+01
    1.5610029602e+02    4.6335098267e+01
    1.5620021057e+02    4.6375602722e+01
    1.5630032349e+02    4.6416397095e+01
    1.5640031433e+02    4.6457199097e+01
    1.5650030518e+02    4.6497604370e+01
    1.5660029602e+02    4.6537796021e+01
    1.5670033264e+02    4.6576606750e+01
    1.5680030823e+02    4.6616195679e+01
    1.5690025330e+02    4.6655601501e+01
    1.5700027466e+02    4.6694496155e+01
    1.5710026550e+02    4.6732299805e+01
    1.5720031738e+02    4.6770599365e+01
    1.5730035400e+02    4.6808700562e+01
    1.5740037537e+02    4.6846496582e+01
    1.5750038147e+02    4.6884002686e+01
    1.5760031128e+02    4.6920394897e+01
    1.5770039368e+02    4.6957199097e+01
    1.5780036926e+02    4.6993896484e+01
    1.5790037537e+02    4.7030296326e+01
    1.5800041199e+02    4.7066299438e+01
    1.5810038757e+02    4.7100997925e+01
    1.5820042419e+02    4.7136405945e+01
    1.5830032349e+02    4.7171699524e+01
    1.5840034485e+02    4.7206405640e+01
    1.5850036621e+02    4.7239997864e+01
    1.5860044861e+02    4.7274002075e+01
    1.5870036316e+02    4.7308097839e+01
    1.5880047607e+02    4.7341598511e+01
    1.5890037537e+02    4.7374099731e+01
    1.5900047302e+02    4.7406997681e+01
    1.5910049438e+02    4.7439697266e+01
    1.5920039368e+02    4.7472396851e+01
    1.5930043030e+02    4.7504501343e+01
    1.5940042114e+02    4.7535301208e+01
    1.5950047302e+02    4.7566802979e+01
    1.5960052490e+02    4.7597900391e+01
    1.5970053101e+02    4.7628799438e+01
    1.5980053711e+02    4.7659301758e+01
    1.5990049744e+02    4.7688705444e+01
    1.6000045776e+02    4.7718696594e+01
    1.6010049438e+02    4.7770294189e+01
    1.6020046997e+02    4.7821701050e+01
    1.6030052185e+02    4.7871704102e+01
    1.6040048218e+02    4.7922599792e+01
    1.6050054932e+02    4.7972900391e+01
    1.6060049438e+02    4.8022102356e+01
    1.6070048523e+02    4.8071899414e+01
    1.6080056763e+02    4.8121299744e+01
    1.6090049744e+02    4.8169601440e+01
    1.6100057983e+02    4.8218299866e+01
    1.6110055542e+02    4.8266906738e+01
    1.6120051575e+02    4.8314201355e+01
    1.6130055237e+02    4.8362098694e+01
    1.6140057373e+02    4.8409698486e+01
    1.6150057983e+02    4.8457099915e+01
    1.6160055542e+02    4.8503204346e+01
    1.6170054626e+02    4.8549995422e+01
    1.6180055237e+02    4.8596504211e+01
    1.6190063477e+02    4.8641502380e+01
    1.6200057983e+02    4.8687492371e+01
    1.6210064697e+02    4.8732902527e+01
    1.6220062256e+02    4.8777198792e+01
    1.6230064392e+02    4.8822090149e+01
    1.6240063477e+02    4.8866699219e+01
    1.6250061035e+02    4.8910102844e+01
    1.6260064697e+02    4.8954002380e+01
    1.6270060730e+02    4.8997795105e+01
    1.6280061340e+02    4.9041206360e+01
    1.6290072632e+02    4.9083000183e+01
    1.6300065613e+02    4.9125991821e+01
    1.6310072327e+02    4.9168403625e+01
    1.6320071411e+02    4.9209602356e+01
    1.6330064392e+02    4.9251708984e+01
    1.6340066528e+02    4.9293296814e+01
    1.6350073242e+02    4.9334602356e+01
    1.6360075378e+02    4.9374603271e+01
    1.6370065308e+02    4.9415496826e+01
    1.6380067444e+02    4.9454895020e+01
    1.6390072632e+02    4.9494903564e+01
    1.6400076294e+02    4.9534591675e+01
    1.6410072327e+02    4.9574203491e+01
    1.6420074463e+02    4.9612396240e+01
    1.6430081177e+02    4.9651206970e+01
    1.6440081787e+02    4.9689796448e+01
    1.6450073242e+02    4.9727294922e+01
    1.6460072327e+02    4.9765304565e+01
    1.6470074463e+02    4.9802894592e+01
    1.6480076599e+02    4.9839294434e+01
    1.6490077209e+02    4.9876403809e+01
    1.6500077820e+02    4.9913093567e+01
    1.6510084534e+02    4.9949501038e+01
    1.6520083618e+02    4.9984596252e+01
    1.6530078125e+02    5.0020507812e+01
    1.6540083313e+02    5.0055892944e+01
    1.6550085449e+02    5.0089996338e+01
    1.6560078430e+02    5.0125099182e+01
    1.6570080566e+02    5.0159591675e+01
    1.6580087280e+02    5.0192794800e+01
    1.6590087891e+02    5.0226699829e+01
    1.6600083923e+02    5.0260505676e+01
    1.6610086060e+02    5.0292808533e+01
    1.6620086670e+02    5.0325798035e+01
    1.6630090332e+02    5.0358505249e+01
    1.6640092468e+02    5.0390892029e+01
    1.6650088501e+02    5.0422096252e+01
    1.6660093689e+02    5.0453804016e+01
    1.6670091248e+02    5.0485389709e+01
    1.6680088806e+02    5.0515609741e+01
    1.6690092468e+02    5.0546401978e+01
    1.6700097656e+02    5.0577003479e+01
    1.6710096741e+02    5.0606307983e+01
    1.6720089722e+02    5.0636497498e+01
    1.6730087280e+02    5.0666206360e+01
    1.6740092468e+02    5.0694503784e+01
    1.6750097656e+02    5.0723495483e+01
    1.6760099792e+02    5.0752304077e+01
    1.6770101929e+02    5.0780708313e+01
    1.6780101013e+02    5.0807907104e+01
    1.6790098572e+02    5.0835800171e+01
    1.6800102234e+02    5.0863304138e+01
    1.6810104370e+02    5.0889503479e+01
    1.6820094299e+02    5.0916595459e+01
    1.6830096436e+02    5.0943099976e+01
    1.6840101624e+02    5.0968299866e+01
    1.6850100708e+02    5.0994194031e+01
    1.6860104370e+02    5.1019798279e+01
    1.6870101929e+02    5.1044197083e+01
    1.6880102539e+02    5.1069206238e+01
    1.6890104675e+02    5.1093894958e+01
    1.6900109863e+02    5.1118202209e+01
    1.6910110474e+02    5.1141304016e+01
    1.6920109558e+02    5.1165092468e+01
    1.6930108643e+02    5.1188598633e+01
    1.6940104675e+02    5.1210800171e+01
    1.6950109863e+02    5.1233505249e+01
    1.6960104370e+02    5.1256095886e+01
    1.6970103455e+02    5.1277297974e+01
    1.6980105591e+02    5.1299102783e+01
    1.6990113831e+02    5.1320396423e+01
    1.7000112915e+02    5.1341598511e+01
    1.7010112000e+02    5.1382598877e+01
    1.7020114136e+02    5.1423095703e+01
    1.7030111694e+02    5.1463401794e+01
    1.7040115356e+02    5.1503303528e+01
    1.7050119019e+02    5.1542793274e+01
    1.7060113525e+02    5.1582305908e+01
    1.7070112610e+02    5.1621200562e+01
    1.7080108643e+02    5.1659996033e+01
    1.7090118408e+02    5.1698089600e+01
    1.7100115967e+02    5.1736206055e+01
    1.7110116577e+02    5.1773902893e+01
    1.7120118713e+02    5.1811195374e+01
    1.7130119324e+02    5.1848304749e+01
    1.7140113831e+02    5.1885200500e+01
    1.7150120544e+02    5.1921493530e+01
    1.7160122681e+02    5.1957992554e+01
    1.7170126343e+02    5.1993003845e+01
    1.7180119324e+02    5.2028999329e+01
    1.7190122986e+02    5.2063995361e+01
    1.7200123596e+02    5.2099006653e+01
    1.7210128784e+02    5.2134994507e+01
    1.7220129395e+02    5.2169006348e+01
    1.7230122375e+02    5.2201995850e+01
    1.7240121460e+02    5.2236000061e+01
    1.7250120544e+02    5.2268997192e+01
    1.7260130310e+02    5.2303001404e+01
    1.7270127869e+02    5.2335998535e+01
    1.7280125427e+02    5.2368995667e+01
    1.7290126038e+02    5.2401000977e+01
    1.7300132751e+02    5.2431999207e+01
    1.7310130310e+02    5.2463996887e+01
    1.7320129395e+02    5.2495002747e+01
    1.7330125427e+02    5.2526000977e+01
    1.7340130615e+02    5.2556999207e+01
    1.7350128174e+02    5.2586990356e+01
    1.7360136414e+02    5.2617004395e+01
    1.7370129395e+02    5.2646995544e+01
    1.7380130005e+02    5.2675994873e+01
    1.7390133667e+02    5.2705009460e+01
    1.7400135803e+02    5.2734001160e+01
    1.7410136414e+02    5.2763000488e+01
    1.7420133972e+02    5.2790992737e+01
    1.7430136108e+02    5.2819000244e+01
    1.7440133667e+02    5.2846000671e+01
    1.7450135803e+02    5.2873992920e+01
    1.7460136414e+02    5.2900009155e+01
    1.7470143127e+02    5.2927001953e+01
    1.7480136108e+02    5.2952995300e+01
    1.7490138245e+02    5.2979003906e+01
    1.7500143433e+02    5.3005996704e+01
    1.7510142517e+02    5.3031005859e+01
    1.7520144653e+02    5.3055999756e+01
    1.7530148315e+02    5.3080993652e+01
    1.7540142822e+02    5.3105995178e+01
    1.7550138855e+02    5.3130004883e+01
    1.7560144043e+02    5.3153999329e+01
    1.7570140076e+02    5.3176994324e+01
    1.7580145264e+02    5.3200004578e+01
    1.7590147400e+02    5.3222999573e+01
    1.7600146484e+02    5.3245994568e+01
    1.7610144043e+02    5.3267990112e+01
    1.7620147705e+02    5.3290000916e+01
    1.7630143738e+02    5.3311996460e+01
    1.7640147400e+02    5.3332992554e+01
    1.7650144958e+02    5.3354003906e+01
    1.7660148621e+02    5.3375000000e+01
    1.7670156860e+02    5.3394996643e+01
    1.7680151367e+02    5.3415008545e+01
    1.7690147400e+02    5.3435005188e+01
    1.7700157166e+02    5.3454002380e+01
    1.7710156250e+02    5.3472991943e+01
    1.7720158386e+02    5.3492004395e+01
    1.7730155945e+02    5.3511001587e+01
    1.7740155029e+02    5.3528999329e+01
    1.7750152588e+02    5.3547004700e+01
    1.7760162354e+02    5.3565994263e+01
    1.7770158386e+02    5.3583007812e+01
    1.7780152893e+02    5.3599990845e+01
    1.7790158081e+02    5.3616996765e+01
    1.7800163269e+02    5.3634010315e+01
    1.7810162354e+02    5.3650001526e+01
    1.7820158386e+02    5.3666000366e+01
    1.7830160522e+02    5.3680992126e+01
    1.7840159607e+02    5.3696006775e+01
    1.7850163269e+02    5.3710998535e+01
    1.7860165405e+02    5.3724998474e+01
    1.7870164490e+02    5.3740005493e+01
    1.7880168152e+02    5.3754005432e+01
    1.7890164185e+02    5.3766998291e+01
    1.7900161743e+02    5.3780990601e+01
    1.7910168457e+02    5.3793006897e+01
    1.7920170593e+02    5.3805999756e+01
    1.7930162048e+02    5.3818992615e+01
    1.7940165710e+02    5.3831008911e+01
    1.7950169373e+02    5.3842002869e+01
    1.7960171509e+02    5.3853996277e+01
    1.7970167542e+02    5.3864990234e+01
    1.7980174255e+02    5.3875007629e+01
    1.7990176392e+02    5.3886001587e+01
    1.8000172424e+02    5.3897003174e+01
    1.8010168457e+02    5.3923995972e+01
    1.8020173645e+02    5.3950996399e+01
    1.8030177307e+02    5.3977005005e+01
    1.8040176392e+02    5.4003990173e+01
    1.8050169373e+02    5.4029998779e+01
    1.8060173035e+02    5.4054992676e+01
    1.8070175171e+02    5.4080993652e+01
    1.8080180359e+02    5.4105003357e+01
    1.8090173340e+02    5.4130004883e+01
    1.8100181580e+02    5.4153999329e+01
    1.8110183716e+02    5.4179000854e+01
    1.8120181274e+02    5.4201995850e+01
    1.8130180359e+02    5.4225997925e+01
    1.8140182495e+02    5.4249008179e+01
    1.8150178528e+02    5.4272003174e+01
    1.8160180664e+02    5.4293998718e+01
    1.8170181274e+02    5.4317001343e+01
    1.8180178833e+02    5.4337997437e+01
    1.8190188599e+02    5.4359992981e+01
    1.8200183105e+02    5.4381004333e+01
    1.8210185242e+02    5.4402000427e+01
    1.8220187378e+02    5.4423004150e+01
    1.8230183411e+02    5.4442993164e+01
    1.8240188599e+02    5.4462997437e+01
    1.8250183105e+02    5.4482002258e+01
    1.8260186768e+02    5.4502006531e+01
    1.8270191956e+02    5.4520996094e+01
    1.8280183411e+02    5.4540000916e+01
    1.8290191650e+02    5.4557991028e+01
    1.8300192261e+02    5.4575996399e+01
    1.8310188293e+02    5.4594001770e+01
    1.8320190430e+02    5.4611999512e+01
    1.8330195618e+02    5.4628005981e+01
    1.8340190125e+02    5.4644989014e+01
    1.8350192261e+02    5.4661987305e+01
    1.8360197449e+02    5.4679000854e+01
    1.8370188904e+02    5.4694000244e+01
    1.8380192566e+02    5.4708999634e+01
    1.8390199280e+02    5.4725006104e+01
    1.8400198364e+02    5.4739990234e+01
    1.8410194397e+02    5.4754989624e+01
    1.8420199585e+02    5.4768997192e+01
    1.8430201721e+02    5.4784011841e+01
    1.8440193176e+02    5.4796997070e+01
    1.8450204468e+02    5.4811004639e+01
    1.8460197449e+02    5.4823989868e+01
    1.8470205688e+02    5.4836990356e+01
    1.8480204773e+02    5.4848999023e+01
    1.8490199280e+02    5.4860992432e+01
    1.8500199890e+02    5.4873992920e+01
    1.8510203552e+02    5.4885009766e+01
    1.8520199585e+02    5.4896987915e+01
    1.8530198669e+02    5.4908004761e+01
    1.8540206909e+02    5.4919006348e+01
    1.8550205994e+02    5.4929000854e+01
    1.8560209656e+02    5.4940002441e+01
    1.8570208740e+02    5.4949005127e+01
    1.8580206299e+02    5.4959991455e+01
    1.8590205383e+02    5.4969009399e+01
    1.8600204468e+02    5.4977996826e+01
    1.8610209656e+02    5.4986999512e+01
    1.8620207214e+02    5.4995010376e+01
    1.8630206299e+02    5.5004013062e+01
    1.8640211487e+02    5.5011001587e+01
    1.8650210571e+02    5.5020004272e+01
    1.8660217285e+02    5.5026000977e+01
    1.8670211792e+02    5.5033996582e+01
    1.8680206299e+02    5.5041000366e+01
    1.8690208435e+02    5.5048004150e+01
    1.8700212097e+02    5.5054000854e+01
    1.8710218811e+02    5.5059997559e+01
    1.8720219421e+02    5.5065002441e+01
    1.8730221558e+02    5.5070999146e+01
    1.8740216064e+02    5.5076004028e+01
    1.8750219727e+02    5.5081008911e+01
    1.8760221863e+02    5.5085998535e+01
    1.8770213318e+02    5.5089996338e+01
    1.8780223083e+02    5.5093994141e+01
    1.8790220642e+02    5.5097000122e+01
    1.8800221252e+02    5.5101013184e+01
    1.8810220337e+02    5.5104003906e+01
    1.8820216370e+02    5.5108001709e+01
    1.8830226135e+02    5.5110000610e+01
    1.8840219116e+02    5.5112991333e+01
    1.8850224304e+02    5.5113998413e+01
    1.8860223389e+02    5.5116012573e+01
    1.8870225525e+02    5.5117004395e+01
    1.8880221558e+02    5.5117996216e+01
    1.8890226746e+02    5.5118988037e+01
    1.8900221252e+02    5.5119003296e+01
    1.8910224915e+02    5.5120010376e+01
    1.8920222473e+02    5.5119003296e+01
    1.8930224609e+02    5.5119995117e+01
    1.8940228271e+02    5.5117996216e+01
    1.8950231934e+02    5.5117996216e+01
    1.8960231018e+02    5.5115997314e+01
    1.8970231628e+02    5.5115005493e+01
    1.8980236816e+02    5.5112991333e+01
    1.8990229797e+02    5.5110992432e+01
    1.9000227356e+02    5.5108993530e+01
    1.9010227966e+02    5.5121002197e+01
    1.9020233154e+02    5.5132995605e+01
    1.9030233765e+02    5.5144989014e+01
    1.9040235901e+02    5.5156005859e+01
    1.9050239563e+02    5.5166000366e+01
    1.9060241699e+02    5.5177001953e+01
    1.9070234680e+02    5.5186996460e+01
    1.9080239868e+02    5.5197998047e+01
    1.9090234375e+02    5.5207992554e+01
    1.9100241089e+02    5.5216995239e+01
    1.9110238647e+02    5.5225997925e+01
    1.9120240784e+02    5.5235000610e+01
    1.9130241394e+02    5.5244003296e+01
    1.9140243530e+02    5.5251998901e+01
    1.9150239563e+02    5.5259994507e+01
    1.9160237122e+02    5.5268997192e+01
    1.9170245361e+02    5.5277008057e+01
    1.9180244446e+02    5.5283996582e+01
    1.9190237427e+02    5.5291000366e+01
    1.9200250244e+02    5.5298004150e+01
    1.9210243225e+02    5.5304000854e+01
    1.9220249939e+02    5.5310989380e+01
    1.9230242920e+02    5.5317001343e+01
    1.9240243530e+02    5.5322998047e+01
    1.9250247192e+02    5.5328002930e+01
    1.9260249329e+02    5.5332992554e+01
    1.9270254517e+02    5.5337997437e+01
    1.9280252075e+02    5.5343002319e+01
    1.9290252686e+02    5.5348007202e+01
    1.9300245667e+02    5.5352996826e+01
    1.9310247803e+02    5.5357009888e+01
    1.9320249939e+02    5.5360000610e+01
    1.9330253601e+02    5.5363998413e+01
    1.9340252686e+02    5.5367004395e+01
    1.9350250244e+02    5.5370010376e+01
    1.9360249329e+02    5.5373001099e+01
    1.9370248413e+02    5.5376007080e+01
    1.9380250549e+02    5.5377990723e+01
    1.9390258789e+02    5.5380004883e+01
    1.9400256348e+02    5.5381988525e+01
    1.9410258484e+02    5.5384002686e+01
    1.9420263672e+02    5.5386001587e+01
    1.9430256653e+02    5.5386001587e+01
    1.9440257263e+02    5.5388000488e+01
[...]
    2.5130607605e+02    6.6384002686e+01
    2.5140608215e+02    6.6419006348e+01
    2.5150602722e+02    6.6453002930e+01
    2.5160603333e+02    6.6488006592e+01
    2.5170605469e+02    6.6522003174e+01
    2.5180613708e+02    6.6555999756e+01
    2.5190614319e+02    6.6589996338e+01
    2.5200607300e+02    6.6623992920e+01
    2.5210610962e+02    6.6657012939e+01
    2.5220608521e+02    6.6690002441e+01
    2.5230612183e+02    6.6722991943e+01
    2.5240609741e+02    6.6755004883e+01
    2.5250613403e+02    6.6787994385e+01
    2.5260618591e+02    6.6820007324e+01
    2.5270611572e+02    6.6852996826e+01
    2.5280613708e+02    6.6885009766e+01
    2.5290618896e+02    6.6915985107e+01
    2.5300621033e+02    6.6946990967e+01
    2.5310612488e+02    6.6979003906e+01
    2.5320617676e+02    6.7009979248e+01
    2.5330613708e+02    6.7040985107e+01
    2.5340620422e+02    6.7070983887e+01
    2.5350624084e+02    6.7101989746e+01
    2.5360624695e+02    6.7130981445e+01
    2.5370623779e+02    6.7160980225e+01
    2.5380618286e+02    6.7190979004e+01
    2.5390621948e+02    6.7220977783e+01
    2.5400625610e+02    6.7250000000e+01
    2.5410621643e+02    6.7278991699e+01
    2.5420622253e+02    6.7306976318e+01
    2.5430627441e+02    6.7335998535e+01
    2.5440623474e+02    6.7363983154e+01
    2.5450622559e+02    6.7392974854e+01
    2.5460627747e+02    6.7419982910e+01
    2.5470628357e+02    6.7447998047e+01
    2.5480628967e+02    6.7475006104e+01
    2.5490631104e+02    6.7500976562e+01
    2.5500633240e+02    6.7527984619e+01
    2.5510626221e+02    6.7554992676e+01
    2.5520626831e+02    6.7580993652e+01
    2.5530630493e+02    6.7606994629e+01
    2.5540634155e+02    6.7631988525e+01
    2.5550634766e+02    6.7656982422e+01
    2.5560629272e+02    6.7682006836e+01
    2.5570628357e+02    6.7706024170e+01
    2.5580636597e+02    6.7729980469e+01
    2.5590632629e+02    6.7753997803e+01
    2.5600634766e+02    6.7777984619e+01
    2.5610635376e+02    6.7800018311e+01
    2.5620635986e+02    6.7822998047e+01
    2.5630639648e+02    6.7845001221e+01
    2.5640634155e+02    6.7868011475e+01
    2.5650631714e+02    6.7890014648e+01
    2.5660635376e+02    6.7911010742e+01
    2.5670635986e+02    6.7930999756e+01
    2.5680636597e+02    6.7951995850e+01
    2.5690643311e+02    6.7972015381e+01
    2.5700634766e+02    6.7992004395e+01
    2.5710641479e+02    6.8012023926e+01
    2.5720639038e+02    6.8032012939e+01
    2.5730642700e+02    6.8050018311e+01
    2.5740640259e+02    6.8067993164e+01
    2.5750643921e+02    6.8087005615e+01
    2.5760641479e+02    6.8105010986e+01
    2.5770639038e+02    6.8123016357e+01
    2.5780639648e+02    6.8140014648e+01
    2.5790649414e+02    6.8157012939e+01
    2.5800650024e+02    6.8173004150e+01
    2.5810647583e+02    6.8188995361e+01
    2.5820642090e+02    6.8205017090e+01
    2.5830648804e+02    6.8221008301e+01
    2.5840649414e+02    6.8236999512e+01
    2.5850646973e+02    6.8252014160e+01
    2.5860641479e+02    6.8265991211e+01
    2.5870654297e+02    6.8281005859e+01
    2.5880648804e+02    6.8295013428e+01
    2.5890652466e+02    6.8308990479e+01
    2.5900653076e+02    6.8322998047e+01
    2.5910656738e+02    6.8335998535e+01
    2.5920648193e+02    6.8350006104e+01
    2.5930657959e+02    6.8361999512e+01
    2.5940649414e+02    6.8373992920e+01
    2.5950659180e+02    6.8385986328e+01
    2.5960659790e+02    6.8398010254e+01
    2.5970654297e+02    6.8410003662e+01
    2.5980651855e+02    6.8421997070e+01
    2.5990655518e+02    6.8433013916e+01
    2.6000656128e+02    6.8441986084e+01
    2.6010653687e+02    6.8454010010e+01
    2.6020660400e+02    6.8465026855e+01
    2.6030654907e+02    6.8475006104e+01
    2.6040655518e+02    6.8484985352e+01
    2.6050665283e+02    6.8493988037e+01
    2.6060662842e+02    6.8503997803e+01
    2.6070657349e+02    6.8511993408e+01
    2.6080667114e+02    6.8520996094e+01
    2.6090664673e+02    6.8530029297e+01
    2.6100662231e+02    6.8536987305e+01
    2.6110665894e+02    6.8544982910e+01
    2.6120666504e+02    6.8552001953e+01
    2.6130667114e+02    6.8558990479e+01
    2.6140664673e+02    6.8565002441e+01
    2.6150665283e+02    6.8572021484e+01
    2.6160665894e+02    6.8576995850e+01
    2.6170666504e+02    6.8582977295e+01
    2.6180664062e+02    6.8587982178e+01
    2.6190673828e+02    6.8592987061e+01
    2.6200665283e+02    6.8598999023e+01
    2.6210665894e+02    6.8602020264e+01
    2.6220666504e+02    6.8607025146e+01
    2.6230670166e+02    6.8610015869e+01
    2.6240670776e+02    6.8613983154e+01
    2.6250668335e+02    6.8615997314e+01
    2.6260678101e+02    6.8618988037e+01
    2.6270669556e+02    6.8622009277e+01
    2.6280670166e+02    6.8623016357e+01
    2.6290676880e+02    6.8625000000e+01
    2.6300671387e+02    6.8625976562e+01
    2.6310678101e+02    6.8627990723e+01
    2.6320678711e+02    6.8628997803e+01
    2.6330682373e+02    6.8628997803e+01
    2.6340682983e+02    6.8628997803e+01
    2.6350680542e+02    6.8628997803e+01
    2.6360675049e+02    6.8628997803e+01
    2.6370678711e+02    6.8626983643e+01
    2.6380685425e+02    6.8626007080e+01
    2.6390679932e+02    6.8623992920e+01
    2.6400680542e+02    6.8623016357e+01
    2.6410687256e+02    6.8621002197e+01
    2.6420678711e+02    6.8617004395e+01
    2.6430679321e+02    6.8614013672e+01
    2.6440686035e+02    6.8610992432e+01
    2.6450686646e+02    6.8606994629e+01
    2.6460684204e+02    6.8602996826e+01
    2.6470684814e+02    6.8598022461e+01
    2.6480682373e+02    6.8593017578e+01
    2.6490682983e+02    6.8587982178e+01
    2.6500686646e+02    6.8583007812e+01
    2.6510693359e+02    6.8575988770e+01
    2.6520687866e+02    6.8570007324e+01
    2.6530685425e+02    6.8563018799e+01
    2.6540689087e+02    6.8555999756e+01
    2.6550689697e+02    6.8548004150e+01
    2.6560690308e+02    6.8539978027e+01
    2.6570687866e+02    6.8530975342e+01
    2.6580694580e+02    6.8523010254e+01
    2.6590698242e+02    6.8514007568e+01
    2.6600695801e+02    6.8503997803e+01
    2.6610696411e+02    6.8495025635e+01
    2.6620690918e+02    6.8484008789e+01
    2.6630694580e+02    6.8473999023e+01
    2.6640698242e+02    6.8462005615e+01
    2.6650692749e+02    6.8450988770e+01
    2.6660696411e+02    6.8438995361e+01
    2.6670703125e+02    6.8427001953e+01
    2.6680691528e+02    6.8415008545e+01
    2.6690698242e+02    6.8401977539e+01
    2.6700704956e+02    6.8389007568e+01
    2.6710702515e+02    6.8376007080e+01
    2.6720697021e+02    6.8361999512e+01
    2.6730706787e+02    6.8348022461e+01
    2.6740707397e+02    6.8333007812e+01
    2.6750701904e+02    6.8319000244e+01
    2.6760705566e+02    6.8303985596e+01
    2.6770700073e+02    6.8289001465e+01
    2.6780709839e+02    6.8272003174e+01
    2.6790710449e+02    6.8257019043e+01
    2.6800704956e+02    6.8240020752e+01
    2.6810702515e+02    6.8223999023e+01
    2.6820712280e+02    6.8207000732e+01
    2.6830706787e+02    6.8190002441e+01
    2.6840710449e+02    6.8171997070e+01
    2.6850714111e+02    6.8153991699e+01
    2.6860708618e+02    6.8136016846e+01
    2.6870712280e+02    6.8117004395e+01
    2.6880706787e+02    6.8097991943e+01
    2.6890713501e+02    6.8078002930e+01
    2.6900714111e+02    6.8058990479e+01
    2.6910711670e+02    6.8040008545e+01
    2.6920709229e+02    6.8019012451e+01
    2.6930712891e+02    6.7998016357e+01
    2.6940710449e+02    6.7977020264e+01
    2.6950711060e+02    6.7955993652e+01
    2.6960714722e+02    6.7932983398e+01
    2.6970721436e+02    6.7911010742e+01
    2.6980712891e+02    6.7889007568e+01
    2.6990716553e+02    6.7865997314e+01
    2.7000717163e+02    6.7842010498e+01
    2.7010723877e+02    6.7817016602e+01
    2.7020724487e+02    6.7790985107e+01
    2.7030722046e+02    6.7764984131e+01
    2.7040719604e+02    6.7739013672e+01
    2.7050726318e+02    6.7712005615e+01
    2.7060717773e+02    6.7684997559e+01
    2.7070727539e+02    6.7656982422e+01
    2.7080722046e+02    6.7629974365e+01
    2.7090725708e+02    6.7602020264e+01
    2.7100726318e+02    6.7572998047e+01
    2.7110729980e+02    6.7544006348e+01
    2.7120724487e+02    6.7513977051e+01
    2.7130725098e+02    6.7485015869e+01
    2.7140725708e+02    6.7455017090e+01
    2.7150726318e+02    6.7424987793e+01
    2.7160729980e+02    6.7393981934e+01
    2.7170724487e+02    6.7363983154e+01
    2.7180731201e+02    6.7332000732e+01
    2.7190725708e+02    6.7300994873e+01
    2.7200735474e+02    6.7268981934e+01
    2.7210733032e+02    6.7236999512e+01
    2.7220733643e+02    6.7204010010e+01
    2.7230734253e+02    6.7171997070e+01
    2.7240734863e+02    6.7139007568e+01
    2.7250729370e+02    6.7103973389e+01
    2.7260739136e+02    6.7070983887e+01
    2.7270733643e+02    6.7036010742e+01
    2.7280740356e+02    6.7002014160e+01
    2.7290740967e+02    6.6966979980e+01
    2.7300732422e+02    6.6931976318e+01
    2.7310733032e+02    6.6897003174e+01
    2.7320733643e+02    6.6860992432e+01
    2.7330743408e+02    6.6824005127e+01
    2.7340740967e+02    6.6787994385e+01
    2.7350744629e+02    6.6750976562e+01
    2.7360745239e+02    6.6714019775e+01
    2.7370745850e+02    6.6675994873e+01
    2.7380740356e+02    6.6638000488e+01
    2.7390747070e+02    6.6599029541e+01
    2.7400747681e+02    6.6559997559e+01
    2.7410745239e+02    6.6522003174e+01
    2.7420742798e+02    6.6483001709e+01
    2.7430749512e+02    6.6442993164e+01
    2.7440747070e+02    6.6403015137e+01
    2.7450744629e+02    6.6363006592e+01
    2.7460748291e+02    6.6321990967e+01
    2.7470739746e+02    6.6280975342e+01
    2.7480749512e+02    6.6239990234e+01
    2.7490753174e+02    6.6199005127e+01
    2.7500747681e+02    6.6156005859e+01
    2.7510745239e+02    6.6113983154e+01
    2.7520751953e+02    6.6071990967e+01
    2.7530749512e+02    6.6029022217e+01
    2.7540756226e+02    6.5985992432e+01
    2.7550747681e+02    6.5944000244e+01
    2.7560754395e+02    6.5899993896e+01
    2.7570755005e+02    6.5856018066e+01
    2.7580752563e+02    6.5812011719e+01
    2.7590750122e+02    6.5768005371e+01
    2.7600753784e+02    6.5723999023e+01
    2.7610751343e+02    6.5678009033e+01
    2.7620755005e+02    6.5632995605e+01
    2.7630755615e+02    6.5588012695e+01
    2.7640759277e+02    6.5542999268e+01
    2.7650762939e+02    6.5496978760e+01
    2.7660754395e+02    6.5451019287e+01
    2.7670755005e+02    6.5404998779e+01
    2.7680761719e+02    6.5359008789e+01
    2.7690762329e+02    6.5311981201e+01
    2.7700765991e+02    6.5264984131e+01
    2.7710760498e+02    6.5219024658e+01
    2.7720761108e+02    6.5170989990e+01
    2.7730761719e+02    6.5122985840e+01
    2.7740759277e+02    6.5075012207e+01
    2.7750769043e+02    6.5027984619e+01
    2.7760766602e+02    6.4979003906e+01
    2.7770770264e+02    6.4929992676e+01
    2.7780770874e+02    6.4880981445e+01
    2.7790771484e+02    6.4832000732e+01
    2.7800772095e+02    6.4783020020e+01
    2.7810772705e+02    6.4734008789e+01
    2.7820773315e+02    6.4683990479e+01
    2.7830770874e+02    6.4634002686e+01
    2.7840774536e+02    6.4584014893e+01
    2.7850769043e+02    6.4533996582e+01
    2.7860772705e+02    6.4483001709e+01
    2.7870770264e+02    6.4430999756e+01
    2.7880770874e+02    6.4380004883e+01
    2.7890771484e+02    6.4328002930e+01
    2.7900778198e+02    6.4276000977e+01
    2.7910772705e+02    6.4225006104e+01
    2.7920770264e+02    6.4172973633e+01
    2.7930776978e+02    6.4119995117e+01
    2.7940771484e+02    6.4067993164e+01
    2.7950781250e+02    6.4014984131e+01
    2.7960772705e+02    6.3962005615e+01
    2.7970773315e+02    6.3907012939e+01
    2.7980780029e+02    6.3855010986e+01
    2.7990774536e+02    6.3799987793e+01
    2.8000778198e+02    6.3746002197e+01
    2.8010781860e+02    6.3688018799e+01
    2.8020776367e+02    6.3629974365e+01
    2.8030786133e+02    6.3571014404e+01
    2.8040777588e+02    6.3513000488e+01
    2.8050778198e+02    6.3454010010e+01
    2.8060781860e+02    6.3395019531e+01
    2.8070779419e+02    6.3335998535e+01
    2.8080786133e+02    6.3277008057e+01
    2.8090789795e+02    6.3217010498e+01
    2.8100790405e+02    6.3157989502e+01
    2.8110781860e+02    6.3097991943e+01
    2.8120782471e+02    6.3037994385e+01
    2.8130789185e+02    6.2976989746e+01
    2.8140789795e+02    6.2917999268e+01
    2.8150790405e+02    6.2856994629e+01
    2.8160794067e+02    6.2794982910e+01
    2.8170785522e+02    6.2734008789e+01
    2.8180795288e+02    6.2672973633e+01
    2.8190792847e+02    6.2611999512e+01
    2.8200796509e+02    6.2550994873e+01
    2.8210794067e+02    6.2489013672e+01
    2.8220785522e+02    6.2427001953e+01
    2.8230792236e+02    6.2364013672e+01
    2.8240792847e+02    6.2302001953e+01
    2.8250790405e+02    6.2239013672e+01
    2.8260791016e+02    6.2175994873e+01
    2.8270800781e+02    6.2114013672e+01
    2.8280798340e+02    6.2049987793e+01
    2.8290795898e+02    6.1986999512e+01
    2.8300799561e+02    6.1923004150e+01
    2.8310797119e+02    6.1859985352e+01
    2.8320794678e+02    6.1794982910e+01
    2.8330798340e+02    6.1731018066e+01
    2.8340805054e+02    6.1666992188e+01
    2.8350799561e+02    6.1602020264e+01
    2.8360797119e+02    6.1537994385e+01
    2.8370803833e+02    6.1473022461e+01
    2.8380807495e+02    6.1408020020e+01
    2.8390805054e+02    6.1342010498e+01
    2.8400808716e+02    6.1278015137e+01
    2.8410806274e+02    6.1212005615e+01
    2.8420803833e+02    6.1145996094e+01
    2.8430807495e+02    6.1080993652e+01
    2.8440811157e+02    6.1014984131e+01
    2.8450811768e+02    6.0949005127e+01
    2.8460812378e+02    6.0882995605e+01
    2.8470806885e+02    6.0816986084e+01
    2.8480810547e+02    6.0750000000e+01
    2.8490805054e+02    6.0684020996e+01
    2.8500805664e+02    6.0617980957e+01
    2.8510815430e+02    6.0551025391e+01
    2.8520809937e+02    6.0484008789e+01
    2.8530807495e+02    6.0417999268e+01
    2.8540814209e+02    6.0350006104e+01
    2.8550817871e+02    6.0283996582e+01
    2.8560809326e+02    6.0217010498e+01
    2.8570816040e+02    6.0148986816e+01
    2.8580816650e+02    6.0082000732e+01
    2.8590820312e+02    6.0015014648e+01
    2.8600820923e+02    5.9946990967e+01
    2.8610815430e+02    5.9878997803e+01
    2.8620812988e+02    5.9811981201e+01
    2.8630819702e+02    5.9743988037e+01
    2.8640820312e+02    5.9674987793e+01
    2.8650814819e+02    5.9608001709e+01
    2.8660818481e+02    5.9539978027e+01
    2.8670816040e+02    5.9471008301e+01
    2.8680816650e+02    5.9402008057e+01
    2.8690817261e+02    5.9334014893e+01
    2.8700823975e+02    5.9265014648e+01
    2.8710824585e+02    5.9197021484e+01
    2.8720822144e+02    5.9127960205e+01
    2.8730822754e+02    5.9058013916e+01
    2.8740820312e+02    5.8989013672e+01
    2.8750820923e+02    5.8920043945e+01
    2.8760818481e+02    5.8850982666e+01
    2.8770822144e+02    5.8781036377e+01
    2.8780831909e+02    5.8712036133e+01
    2.8790832520e+02    5.8640991211e+01
    2.8800830078e+02    5.8571014404e+01
    2.8810827637e+02    5.8502014160e+01
    2.8820825195e+02    5.8430999756e+01
    2.8830825806e+02    5.8361022949e+01
    2.8840832520e+02    5.8291015625e+01
    2.8850830078e+02    5.8219970703e+01
    2.8860836792e+02    5.8148010254e+01
    2.8870831299e+02    5.8079010010e+01
    2.8880831909e+02    5.8006988525e+01
    2.8890838623e+02    5.7934997559e+01
    2.8900830078e+02    5.7864013672e+01
    2.8910833740e+02    5.7793029785e+01
    2.8920837402e+02    5.7721984863e+01
    2.8930831909e+02    5.7650024414e+01
    2.8940841675e+02    5.7579010010e+01
    2.8950833130e+02    5.7506988525e+01
    2.8960836792e+02    5.7435028076e+01
    2.8970837402e+02    5.7364013672e+01
    2.8980841064e+02    5.7290985107e+01
    2.8990841675e+02    5.7219024658e+01
    2.9000839233e+02    5.7145965576e+01
    2.9010842896e+02    5.7068969727e+01
    2.9020846558e+02    5.6990997314e+01
    2.9030838013e+02    5.6914031982e+01
    2.9040838623e+02    5.6837005615e+01
    2.9050845337e+02    5.6758972168e+01
    2.9060848999e+02    5.6681976318e+01
    2.9070849609e+02    5.6602996826e+01
    2.9080850220e+02    5.6525024414e+01
    2.9090850830e+02    5.6448028564e+01
    2.9100848389e+02    5.6368988037e+01
    2.9110852051e+02    5.6290985107e+01
    2.9120846558e+02    5.6212005615e+01
    2.9130850220e+02    5.6134002686e+01
    2.9140853882e+02    5.6054962158e+01
    2.9150845337e+02    5.5976989746e+01
    2.9160852051e+02    5.5898010254e+01
    2.9170852661e+02    5.5819030762e+01
    2.9180853271e+02    5.5741027832e+01
    2.9190856934e+02    5.5661987305e+01
    2.9200854492e+02    5.5582000732e+01
    2.9210858154e+02    5.5503997803e+01
    2.9220852661e+02    5.5425018311e+01
    2.9230853271e+02    5.5344970703e+01
    2.9240856934e+02    5.5265960693e+01
    2.9250857544e+02    5.5186004639e+01
    2.9260855103e+02    5.5107025146e+01
    2.9270852661e+02    5.5028015137e+01
    2.9280856323e+02    5.4947967529e+01
    2.9290856934e+02    5.4868011475e+01
    2.9300863647e+02    5.4789001465e+01
    2.9310858154e+02    5.4709014893e+01
    2.9320861816e+02    5.4628967285e+01
    2.9330859375e+02    5.4549987793e+01
    2.9340863037e+02    5.4470001221e+01
    2.9350863647e+02    5.4389984131e+01
    2.9360861206e+02    5.4310028076e+01
    2.9370858765e+02    5.4229980469e+01
    2.9380862427e+02    5.4149993896e+01
    2.9390869141e+02    5.4070007324e+01
    2.9400866699e+02    5.3990020752e+01
    2.9410870361e+02    5.3911010742e+01
    2.9420861816e+02    5.3830963135e+01
    2.9430868530e+02    5.3750000000e+01
    2.9440869141e+02    5.3670989990e+01
    2.9450866699e+02    5.3591003418e+01
    2.9460867310e+02    5.3509979248e+01
    2.9470874023e+02    5.3430969238e+01
    2.9480865479e+02    5.3351013184e+01
    2.9490872192e+02    5.3270019531e+01
    2.9500872803e+02    5.3191009521e+01
    2.9510876465e+02    5.3109985352e+01
    2.9520870972e+02    5.3029998779e+01
    2.9530874634e+02    5.2950988770e+01
    2.9540872192e+02    5.2871032715e+01
    2.9550872803e+02    5.2789978027e+01
    2.9560879517e+02    5.2710968018e+01
    2.9570874023e+02    5.2630004883e+01
    2.9580868530e+02    5.2550018311e+01
    2.9590881348e+02    5.2471008301e+01
    2.9600872803e+02    5.2389984131e+01
    2.9610879517e+02    5.2309997559e+01
    2.9620874023e+02    5.2230987549e+01
    2.9630874634e+02    5.2150024414e+01
    2.9640881348e+02    5.2071014404e+01
    2.9650875854e+02    5.1989990234e+01
    2.9660879517e+02    5.1910003662e+01
    2.9670880127e+02    5.1829010010e+01
    2.9680880737e+02    5.1750030518e+01
    2.9690887451e+02    5.1668975830e+01
    2.9700888062e+02    5.1588989258e+01
    2.9710885620e+02    5.1507995605e+01
    2.9720886230e+02    5.1428009033e+01
    2.9730886841e+02    5.1348022461e+01
    2.9740881348e+02    5.1267974854e+01
    2.9750891113e+02    5.1187011719e+01
    2.9760888672e+02    5.1106994629e+01
    2.9770883179e+02    5.1026031494e+01
    2.9780889893e+02    5.0944976807e+01
    2.9790890503e+02    5.0865966797e+01
    2.9800888062e+02    5.0785003662e+01
    2.9810885620e+02    5.0705017090e+01
    2.9820889282e+02    5.0625030518e+01
    2.9830889893e+02    5.0543975830e+01
    2.9840893555e+02    5.0463012695e+01
    2.9850891113e+02    5.0384002686e+01
    2.9860894775e+02    5.0303009033e+01
    2.9870898438e+02    5.0223022461e+01
    2.9880899048e+02    5.0142974854e+01
    2.9890896606e+02    5.0062011719e+01
    2.9900900269e+02    4.9983001709e+01
    2.9910900879e+02    4.9902008057e+01
    2.9920895386e+02    4.9821990967e+01
    2.9930899048e+02    4.9742980957e+01
    2.9940896606e+02    4.9662994385e+01
    2.9950894165e+02    4.9582031250e+01
    2.9960900879e+02    4.9503021240e+01
    2.9970895386e+02    4.9422973633e+01
    2.9980895996e+02    4.9343017578e+01
    2.9990899658e+02    4.9264007568e+01
endcurve
