Curveplot
LS-DYNA keyword deck by LS-PrePost
Z-displ
Z-force
Mat/Node Ids
1 #pts=1000
* Minval=    -1.5473029785e+03 at time=       -19.9928512573
* Maxval=     8.4593661129e-02 at time=         0.0000399002
    3.9900194679e-05    8.4593661129e-02
    5.0281589210e-05    6.3014432788e-02
    6.1148210079e-05    3.1633310020e-02
    7.2100359830e-05   -1.1049069464e-02
    8.2578422735e-05   -6.6440120339e-02
    9.1882968263e-05   -1.3592046499e-01
    9.9154080090e-05   -2.2077590227e-01
    1.0335969273e-04   -3.2212477922e-01
    1.0328533972e-04   -4.4113814831e-01
    9.7528980405e-05   -5.7856404781e-01
    8.4511535533e-05   -7.3513078690e-01
    6.2373699620e-05   -9.1199547052e-01
    2.9208293199e-05   -1.1089749336e+00
   -1.7265225324e-05   -1.3268729448e+00
   -7.9522120359e-05   -1.5659600496e+00
   -1.6002819757e-04   -1.8256610632e+00
   -2.6172658545e-04   -2.1061522961e+00
   -3.8747317740e-04   -2.4064028263e+00
   -5.4070737679e-04   -2.7262129784e+00
   -7.2483957047e-04   -3.0646021366e+00
   -9.4331719447e-04   -3.4206333160e+00
   -1.2001276482e-03   -3.7944104671e+00
   -1.4991847565e-03   -4.1859035492e+00
   -1.8443296431e-03   -4.5952177048e+00
   -2.2409122903e-03   -5.0237851143e+00
   -2.6919101365e-03   -5.4703426361e+00
   -3.2033470925e-03   -5.9360766411e+00
   -3.7794925738e-03   -6.4204316139e+00
   -4.4255722314e-03   -6.9234523773e+00
   -5.1471693441e-03   -7.4453063011e+00
   -5.9485533275e-03   -7.9849987030e+00
   -6.8359896541e-03   -8.5427103043e+00
   -7.8145544976e-03   -9.1178274155e+00
   -8.8911382481e-03   -9.7110061646e+00
   -1.0069918819e-02   -1.0321314812e+01
   -1.1359343305e-02   -1.0949610710e+01
   -1.2762476690e-02   -1.1594320297e+01
   -1.4288227074e-02   -1.2256467819e+01
   -1.5943363309e-02   -1.2935562134e+01
   -1.7730569467e-02   -1.3629717827e+01
   -1.9660746679e-02   -1.4339733124e+01
   -2.1738713607e-02   -1.5064384460e+01
   -2.3974480107e-02   -1.5804308891e+01
   -2.6369553059e-02   -1.6557006836e+01
   -2.8933547437e-02   -1.7323392868e+01
   -3.1676933169e-02   -1.8104125977e+01
   -3.4600503743e-02   -1.8897794724e+01
   -3.7717606872e-02   -1.9706762314e+01
   -4.1032705456e-02   -2.0530811310e+01
   -4.4554024935e-02   -2.1370956421e+01
   -4.8287473619e-02   -2.2227277756e+01
   -5.2244719118e-02   -2.3100957870e+01
   -5.6430514902e-02   -2.3991666794e+01
   -6.0853056610e-02   -2.4899755478e+01
   -6.5519236028e-02   -2.5825607300e+01
   -7.0439584553e-02   -2.6770107269e+01
   -7.5618155301e-02   -2.7733102798e+01
   -8.1071205437e-02   -2.8716428757e+01
   -8.6798846722e-02   -2.9718906403e+01
   -9.2809461057e-02   -3.0740552902e+01
   -9.9106729031e-02   -3.1780717850e+01
   -1.0571575165e-01   -3.2841865540e+01
   -1.1263053119e-01   -3.3921524048e+01
   -1.1985950172e-01   -3.5019546509e+01
   -1.2741042674e-01   -3.6134841919e+01
   -1.3530594110e-01   -3.7268619537e+01
   -1.4353246987e-01   -3.8416591644e+01
   -1.5211246908e-01   -3.9579994202e+01
   -1.6105286777e-01   -4.0757888794e+01
   -1.7035572231e-01   -4.1948608398e+01
   -1.8003167212e-01   -4.3152072906e+01
   -1.9008433819e-01   -4.4367111206e+01
   -2.0053353906e-01   -4.5594902039e+01
   -2.1137802303e-01   -4.6834125519e+01
   -2.2263433039e-01   -4.8085300446e+01
   -2.3429644108e-01   -4.9347076416e+01
   -2.4637570977e-01   -5.0619945526e+01
   -2.5888785720e-01   -5.1905052185e+01
   -2.7183985710e-01   -5.3202686310e+01
   -2.8522565961e-01   -5.4512302399e+01
   -2.9906633496e-01   -5.5836128235e+01
   -3.1337174773e-01   -5.7175434113e+01
   -3.2814222574e-01   -5.8530612946e+01
   -3.4337526560e-01   -5.9901802063e+01
   -3.5910284519e-01   -6.1291831970e+01
   -3.7531283498e-01   -6.2699409485e+01
   -3.9199930429e-01   -6.4123542786e+01
   -4.0921026468e-01   -6.5567276001e+01
   -4.2692264915e-01   -6.7028259277e+01
   -4.4514498115e-01   -6.8505966187e+01
   -4.6388983727e-01   -7.0000320435e+01
   -4.8314416409e-01   -7.1509231567e+01
   -5.0294655561e-01   -7.3034858704e+01
   -5.2329802513e-01   -7.4576080322e+01
   -5.4417723417e-01   -7.6130950928e+01
   -5.6561130285e-01   -7.7700950623e+01
   -5.8760607243e-01   -7.9285949707e+01
   -6.1016762257e-01   -8.0886909485e+01
   -6.3327521086e-01   -8.2502243042e+01
   -6.5697783232e-01   -8.4135490417e+01
   -6.8124252558e-01   -8.5783882141e+01
   -7.0609456301e-01   -8.7451110840e+01
   -7.3153239489e-01   -8.9133186340e+01
   -7.5754415989e-01   -9.0830055237e+01
   -7.8417074680e-01   -9.2544143677e+01
   -8.1140309572e-01   -9.4273406982e+01
   -8.3922934532e-01   -9.6017807007e+01
   -8.6766421795e-01   -9.7778350830e+01
   -8.9669936895e-01   -9.9551071167e+01
   -9.2635160685e-01   -1.0134108734e+02
   -9.5664525032e-01   -1.0314834595e+02
   -9.8753321171e-01   -1.0496916962e+02
   -1.0190534592e+00   -1.0680876160e+02
   -1.0512042046e+00   -1.0866645813e+02
   -1.0839722157e+00   -1.1053751373e+02
   -1.1173939705e+00   -1.1242674255e+02
   -1.1514178514e+00   -1.1432716370e+02
   -1.1860738993e+00   -1.1624288177e+02
   -1.2213973999e+00   -1.1817200470e+02
   -1.2573579550e+00   -1.2011563110e+02
   -1.2939482927e+00   -1.2207060242e+02
   -1.3311744928e+00   -1.2403886414e+02
   -1.3690350056e+00   -1.2602034760e+02
   -1.4075565338e+00   -1.2802075195e+02
   -1.4466904402e+00   -1.3003570557e+02
   -1.4864919186e+00   -1.3207225037e+02
   -1.5269209146e+00   -1.3413044739e+02
   -1.5680084229e+00   -1.3621199036e+02
   -1.6097447872e+00   -1.3831881714e+02
   -1.6520919800e+00   -1.4044630432e+02
   -1.6950972080e+00   -1.4259918213e+02
   -1.7387573719e+00   -1.4477505493e+02
   -1.7830533981e+00   -1.4697448730e+02
   -1.8279873133e+00   -1.4919328308e+02
   -1.8735313416e+00   -1.5143203735e+02
   -1.9197199345e+00   -1.5369456482e+02
   -1.9665361643e+00   -1.5597915649e+02
   -2.0139827728e+00   -1.5828582764e+02
   -2.0620901585e+00   -1.6061468506e+02
   -2.1108164787e+00   -1.6296665955e+02
   -2.1601293087e+00   -1.6533639526e+02
   -2.2100722790e+00   -1.6772949219e+02
   -2.2606267929e+00   -1.7014343262e+02
   -2.3118143082e+00   -1.7257786560e+02
   -2.3635835648e+00   -1.7503306580e+02
   -2.4160230160e+00   -1.7751048279e+02
   -2.4689879417e+00   -1.8000535583e+02
   -2.5225627422e+00   -1.8252442932e+02
   -2.5767927170e+00   -1.8506678772e+02
   -2.6315672398e+00   -1.8762730408e+02
   -2.6869499683e+00   -1.9021313477e+02
   -2.7428598404e+00   -1.9281675720e+02
   -2.7993938923e+00   -1.9544479370e+02
   -2.8564901352e+00   -1.9809555054e+02
   -2.9141175747e+00   -2.0076936340e+02
   -2.9723794460e+00   -2.0346682739e+02
   -3.0311648846e+00   -2.0618899536e+02
   -3.0904588699e+00   -2.0893008423e+02
   -3.1503052711e+00   -2.1169660950e+02
   -3.2107331753e+00   -2.1448660278e+02
   -3.2716636658e+00   -2.1730079651e+02
   -3.3331432343e+00   -2.2014033508e+02
   -3.3950850964e+00   -2.2299952698e+02
   -3.4575932026e+00   -2.2588523865e+02
   -3.5205650330e+00   -2.2879519653e+02
   -3.5840730667e+00   -2.3172987366e+02
   -3.6481106281e+00   -2.3469033813e+02
   -3.7125613689e+00   -2.3767129517e+02
   -3.7775208950e+00   -2.4068061829e+02
   -3.8429250717e+00   -2.4371704102e+02
   -3.9088375568e+00   -2.4678179932e+02
   -3.9751477242e+00   -2.4987594604e+02
   -4.0419793129e+00   -2.5300074768e+02
   -4.1092095375e+00   -2.5615823364e+02
   -4.1769089699e+00   -2.5935174561e+02
   -4.2449960709e+00   -2.6257754517e+02
   -4.3134770393e+00   -2.6583853149e+02
   -4.3824529648e+00   -2.6914190674e+02
   -4.4517583847e+00   -2.7247982788e+02
   -4.5214333534e+00   -2.7585311890e+02
   -4.5915861130e+00   -2.7926705933e+02
   -4.6620922089e+00   -2.8271902466e+02
   -4.7328948975e+00   -2.8620162964e+02
   -4.8041429520e+00   -2.8972192383e+02
   -4.8757472038e+00   -2.9327633667e+02
   -4.9476766586e+00   -2.9686422729e+02
   -5.0199537277e+00   -3.0048544312e+02
   -5.0925664902e+00   -3.0414019775e+02
   -5.1654720306e+00   -3.0782061768e+02
   -5.2387151718e+00   -3.1153463745e+02
   -5.3122582436e+00   -3.1527969360e+02
   -5.3860778809e+00   -3.1904931641e+02
   -5.4602279663e+00   -3.2285321045e+02
   -5.5346012115e+00   -3.2668182373e+02
   -5.6093430519e+00   -3.3054486084e+02
   -5.6843047142e+00   -3.3444055176e+02
   -5.7594847679e+00   -3.3836203003e+02
   -5.8349504471e+00   -3.4231863403e+02
   -5.9106636047e+00   -3.4630798340e+02
   -5.9866390228e+00   -3.5033078003e+02
   -6.0627899170e+00   -3.5438833618e+02
   -6.1392173767e+00   -3.5848156738e+02
   -6.2157974243e+00   -3.6260314941e+02
   -6.2925567627e+00   -3.6676205444e+02
   -6.3695912361e+00   -3.7095510864e+02
   -6.4468145370e+00   -3.7518280029e+02
   -6.5241580009e+00   -3.7944580078e+02
   -6.6017260551e+00   -3.8374597168e+02
   -6.6794719696e+00   -3.8808493042e+02
   -6.7573146820e+00   -3.9245535278e+02
   -6.8353581429e+00   -3.9686813354e+02
   -6.9135580063e+00   -4.0132067871e+02
   -6.9918470383e+00   -4.0580557251e+02
   -7.0702853203e+00   -4.1033270264e+02
   -7.1488165855e+00   -4.1489892578e+02
   -7.2275228500e+00   -4.1950354004e+02
   -7.3063006401e+00   -4.2414584351e+02
   -7.3852529526e+00   -4.2883428955e+02
   -7.4642162323e+00   -4.3355874634e+02
   -7.5433487892e+00   -4.3832275391e+02
   -7.6225337982e+00   -4.4312591553e+02
   -7.7017722130e+00   -4.4796774292e+02
   -7.7811317444e+00   -4.5284802246e+02
   -7.8605875969e+00   -4.5776657104e+02
   -7.9401173592e+00   -4.6272311401e+02
   -8.0196685791e+00   -4.6771722412e+02
   -8.0993137360e+00   -4.7274725342e+02
   -8.1789979935e+00   -4.7781231689e+02
   -8.2587957382e+00   -4.8292065430e+02
   -8.3386745453e+00   -4.8806158447e+02
   -8.4185419083e+00   -4.9323913574e+02
   -8.4984636307e+00   -4.9845327759e+02
   -8.5784368515e+00   -5.0370422363e+02
   -8.6584882736e+00   -5.0899206543e+02
   -8.7385425568e+00   -5.1431683350e+02
   -8.8186120987e+00   -5.1967864990e+02
   -8.8987073898e+00   -5.2507745361e+02
   -8.9787740707e+00   -5.3051263428e+02
   -9.0588674545e+00   -5.3598315430e+02
   -9.1389884949e+00   -5.4149841309e+02
   -9.2191200256e+00   -5.4705682373e+02
   -9.2992382050e+00   -5.5265197754e+02
   -9.3793849945e+00   -5.5828881836e+02
   -9.4594850540e+00   -5.6396783447e+02
   -9.5395565033e+00   -5.6968878174e+02
   -9.6196794510e+00   -5.7545086670e+02
   -9.6997556686e+00   -5.8125231934e+02
   -9.7798032761e+00   -5.8709088135e+02
   -9.8599119186e+00   -5.9296350098e+02
   -9.9399595261e+00   -5.9886645508e+02
   -1.0020069122e+01   -6.0479589844e+02
   -1.0100170135e+01   -6.1074810791e+02
   -1.0180228233e+01   -6.1671838379e+02
   -1.0260275841e+01   -6.2270330811e+02
   -1.0340385437e+01   -6.2870874023e+02
   -1.0420518875e+01   -6.3471954346e+02
   -1.0500658989e+01   -6.4073724365e+02
   -1.0580736160e+01   -6.4675775146e+02
   -1.0660839081e+01   -6.5277728271e+02
   -1.0740985870e+01   -6.5880297852e+02
   -1.0821138382e+01   -6.6483050537e+02
   -1.0901285172e+01   -6.7085150146e+02
   -1.0981403351e+01   -6.7686999512e+02
   -1.1061562538e+01   -6.8288604736e+02
   -1.1141670227e+01   -6.8890008545e+02
   -1.1221738815e+01   -6.9491107178e+02
   -1.1301781654e+01   -7.0091821289e+02
   -1.1381845474e+01   -7.0693127441e+02
   -1.1461890221e+01   -7.1294610596e+02
   -1.1541842461e+01   -7.1895703125e+02
   -1.1621797562e+01   -7.2497760010e+02
   -1.1701670647e+01   -7.3099664307e+02
   -1.1781513214e+01   -7.3701916504e+02
   -1.1861289978e+01   -7.4304541016e+02
   -1.1940959930e+01   -7.4907391357e+02
   -1.2020561218e+01   -7.5510534668e+02
   -1.2100152016e+01   -7.6114825439e+02
   -1.2179617882e+01   -7.6719134521e+02
   -1.2259027481e+01   -7.7323767090e+02
   -1.2338338852e+01   -7.7928619385e+02
   -1.2417572975e+01   -7.8534405518e+02
   -1.2496742249e+01   -7.9140850830e+02
   -1.2575837135e+01   -7.9748071289e+02
   -1.2654808998e+01   -8.0355328369e+02
   -1.2733636856e+01   -8.0963055420e+02
   -1.2812377930e+01   -8.1571221924e+02
   -1.2890991211e+01   -8.2179626465e+02
   -1.2969452858e+01   -8.2788165283e+02
   -1.3047836304e+01   -8.3397674561e+02
   -1.3126130104e+01   -8.4007788086e+02
   -1.3204213142e+01   -8.4617761230e+02
   -1.3282129288e+01   -8.5227795410e+02
   -1.3359896660e+01   -8.5837933350e+02
   -1.3437547684e+01   -8.6448706055e+02
   -1.3514957428e+01   -8.7058850098e+02
   -1.3592245102e+01   -8.7669580078e+02
   -1.3669378281e+01   -8.8280438232e+02
   -1.3746237755e+01   -8.8890454102e+02
   -1.3822881699e+01   -8.9499902344e+02
   -1.3899367332e+01   -9.0109399414e+02
   -1.3975639343e+01   -9.0718603516e+02
   -1.4051725388e+01   -9.1327471924e+02
   -1.4127508163e+01   -9.1935015869e+02
   -1.4203034401e+01   -9.2541540527e+02
   -1.4278375626e+01   -9.3147888184e+02
   -1.4353469849e+01   -9.3753564453e+02
   -1.4428295135e+01   -9.4358172607e+02
   -1.4502848625e+01   -9.4962841797e+02
   -1.4577075958e+01   -9.5566564941e+02
   -1.4651062965e+01   -9.6170550537e+02
   -1.4724761963e+01   -9.6774450684e+02
   -1.4798172951e+01   -9.7378448486e+02
   -1.4871274948e+01   -9.7982360840e+02
   -1.4944005966e+01   -9.8585400391e+02
   -1.5016447067e+01   -9.9188714600e+02
   -1.5088588715e+01   -9.9791809082e+02
   -1.5160345078e+01   -1.0039368286e+03
   -1.5231727600e+01   -1.0099451904e+03
   -1.5302794456e+01   -1.0159494629e+03
   -1.5373465538e+01   -1.0219419556e+03
   -1.5443738937e+01   -1.0279147949e+03
   -1.5513679504e+01   -1.0338780518e+03
   -1.5583221436e+01   -1.0398272705e+03
   -1.5652343750e+01   -1.0457552490e+03
   -1.5721056938e+01   -1.0516656494e+03
   -1.5789329529e+01   -1.0575572510e+03
   -1.5857178688e+01   -1.0634315186e+03
   -1.5924668312e+01   -1.0692950439e+03
   -1.5991663933e+01   -1.0751357422e+03
   -1.6058218002e+01   -1.0809588623e+03
   -1.6124347687e+01   -1.0867697754e+03
   -1.6189990997e+01   -1.0925581055e+03
   -1.6255172729e+01   -1.0983275146e+03
   -1.6319875717e+01   -1.1040760498e+03
   -1.6384099960e+01   -1.1098037109e+03
   -1.6447849274e+01   -1.1155179443e+03
   -1.6511110306e+01   -1.1212142334e+03
   -1.6573818207e+01   -1.1268850098e+03
   -1.6636011124e+01   -1.1325354004e+03
   -1.6697727203e+01   -1.1381707764e+03
   -1.6758913040e+01   -1.1437817383e+03
   -1.6819562912e+01   -1.1493718262e+03
   -1.6879653931e+01   -1.1549389648e+03
   -1.6939210892e+01   -1.1604832764e+03
   -1.6998235703e+01   -1.1660073242e+03
   -1.7056709290e+01   -1.1715030518e+03
   -1.7114646912e+01   -1.1769793701e+03
   -1.7172016144e+01   -1.1824284668e+03
   -1.7228784561e+01   -1.1878543701e+03
   -1.7284973145e+01   -1.1932574463e+03
   -1.7340621948e+01   -1.1986378174e+03
   -1.7395692825e+01   -1.2039959717e+03
   -1.7450149536e+01   -1.2093284912e+03
   -1.7503995895e+01   -1.2146285400e+03
   -1.7557291031e+01   -1.2199039307e+03
   -1.7609983444e+01   -1.2251469727e+03
   -1.7662033081e+01   -1.2303507080e+03
   -1.7713485718e+01   -1.2355209961e+03
   -1.7764341354e+01   -1.2406512451e+03
   -1.7814592361e+01   -1.2457409668e+03
   -1.7864227295e+01   -1.2507861328e+03
   -1.7913215637e+01   -1.2557821045e+03
   -1.7961606979e+01   -1.2607340088e+03
   -1.8009328842e+01   -1.2656340332e+03
   -1.8056446075e+01   -1.2704927979e+03
   -1.8102949142e+01   -1.2753068848e+03
   -1.8148784637e+01   -1.2800743408e+03
   -1.8194007874e+01   -1.2848041992e+03
   -1.8238588333e+01   -1.2894959717e+03
   -1.8282529831e+01   -1.2941494141e+03
   -1.8325828552e+01   -1.2987601318e+03
   -1.8368476868e+01   -1.3033282471e+03
   -1.8410474777e+01   -1.3078537598e+03
   -1.8451833725e+01   -1.3123399658e+03
   -1.8492555618e+01   -1.3167843018e+03
   -1.8532646179e+01   -1.3211876221e+03
   -1.8572090149e+01   -1.3255509033e+03
   -1.8610889435e+01   -1.3298748779e+03
   -1.8649055481e+01   -1.3341604004e+03
   -1.8686594009e+01   -1.3384057617e+03
   -1.8723455429e+01   -1.3426049805e+03
   -1.8759681702e+01   -1.3467604980e+03
   -1.8795288086e+01   -1.3508778076e+03
   -1.8830251694e+01   -1.3549522705e+03
   -1.8864578247e+01   -1.3589824219e+03
   -1.8898288727e+01   -1.3629710693e+03
   -1.8931346893e+01   -1.3669107666e+03
   -1.8963783264e+01   -1.3708046875e+03
   -1.8995599747e+01   -1.3746473389e+03
   -1.9026790619e+01   -1.3784364014e+03
   -1.9057359695e+01   -1.3821705322e+03
   -1.9087318420e+01   -1.3858503418e+03
   -1.9116668701e+01   -1.3894753418e+03
   -1.9145402908e+01   -1.3930423584e+03
   -1.9173519135e+01   -1.3965548096e+03
   -1.9201021194e+01   -1.4000129395e+03
   -1.9227922440e+01   -1.4034207764e+03
   -1.9254241943e+01   -1.4067813721e+03
   -1.9279964447e+01   -1.4100899658e+03
   -1.9305103302e+01   -1.4133488770e+03
   -1.9329654694e+01   -1.4165577393e+03
   -1.9353609085e+01   -1.4197187500e+03
   -1.9377006531e+01   -1.4228376465e+03
   -1.9399837494e+01   -1.4259133301e+03
   -1.9422092438e+01   -1.4289449463e+03
   -1.9443784714e+01   -1.4319349365e+03
   -1.9464914322e+01   -1.4348824463e+03
   -1.9485502243e+01   -1.4377855225e+03
   -1.9505544662e+01   -1.4406419678e+03
   -1.9525047302e+01   -1.4434497070e+03
   -1.9544025421e+01   -1.4462087402e+03
   -1.9562469482e+01   -1.4489171143e+03
   -1.9580387115e+01   -1.4515740967e+03
   -1.9597797394e+01   -1.4541833496e+03
   -1.9614706039e+01   -1.4567459717e+03
   -1.9631120682e+01   -1.4592636719e+03
   -1.9647041321e+01   -1.4617333984e+03
   -1.9662479401e+01   -1.4641569824e+03
   -1.9677446365e+01   -1.4665356445e+03
   -1.9691951752e+01   -1.4688710938e+03
   -1.9705987930e+01   -1.4711650391e+03
   -1.9719579697e+01   -1.4734178467e+03
   -1.9732725143e+01   -1.4756297607e+03
   -1.9745429993e+01   -1.4778000488e+03
   -1.9757701874e+01   -1.4799284668e+03
   -1.9769544601e+01   -1.4820162354e+03
   -1.9780971527e+01   -1.4840625000e+03
   -1.9791984558e+01   -1.4860668945e+03
   -1.9802600861e+01   -1.4880330811e+03
   -1.9812822342e+01   -1.4899586182e+03
   -1.9822656631e+01   -1.4918436279e+03
   -1.9832115173e+01   -1.4936888428e+03
   -1.9841199875e+01   -1.4954932861e+03
   -1.9849927902e+01   -1.4972589111e+03
   -1.9858301163e+01   -1.4989838867e+03
   -1.9866329193e+01   -1.5006685791e+03
   -1.9874021530e+01   -1.5023143311e+03
   -1.9881391525e+01   -1.5039237061e+03
   -1.9888444901e+01   -1.5054959717e+03
   -1.9895181656e+01   -1.5070300293e+03
   -1.9901617050e+01   -1.5085281982e+03
   -1.9907754898e+01   -1.5099902344e+03
   -1.9913599014e+01   -1.5114151611e+03
   -1.9919164658e+01   -1.5128059082e+03
   -1.9924455643e+01   -1.5141613770e+03
   -1.9929481506e+01   -1.5154808350e+03
   -1.9934251785e+01   -1.5167667236e+03
   -1.9938774109e+01   -1.5180200195e+03
   -1.9943054199e+01   -1.5192407227e+03
   -1.9947103500e+01   -1.5204311523e+03
   -1.9950927734e+01   -1.5215899658e+03
   -1.9954534531e+01   -1.5227161865e+03
   -1.9957937241e+01   -1.5238110352e+03
   -1.9961139679e+01   -1.5248736572e+03
   -1.9964153290e+01   -1.5259044189e+03
   -1.9966981888e+01   -1.5269035645e+03
   -1.9969635010e+01   -1.5278714600e+03
   -1.9972114563e+01   -1.5288096924e+03
   -1.9974430084e+01   -1.5297187500e+03
   -1.9976589203e+01   -1.5306002197e+03
   -1.9978601456e+01   -1.5314554443e+03
   -1.9980478287e+01   -1.5322843018e+03
   -1.9982225418e+01   -1.5330886230e+03
   -1.9983848572e+01   -1.5338698730e+03
   -1.9985351562e+01   -1.5346286621e+03
   -1.9986736298e+01   -1.5353658447e+03
   -1.9987998962e+01   -1.5360816650e+03
   -1.9989141464e+01   -1.5367760010e+03
   -1.9990158081e+01   -1.5374484863e+03
   -1.9991046906e+01   -1.5380985107e+03
   -1.9991804123e+01   -1.5387255859e+03
   -1.9992435455e+01   -1.5393293457e+03
   -1.9992942810e+01   -1.5399101562e+03
   -1.9993333817e+01   -1.5404677734e+03
   -1.9993619919e+01   -1.5410009766e+03
   -1.9993814468e+01   -1.5415101318e+03
   -1.9993932724e+01   -1.5419953613e+03
   -1.9993986130e+01   -1.5424573975e+03
   -1.9993988037e+01   -1.5428974609e+03
   -1.9993949890e+01   -1.5433157959e+03
   -1.9993883133e+01   -1.5437131348e+03
   -1.9993799210e+01   -1.5440895996e+03
   -1.9993701935e+01   -1.5444454346e+03
   -1.9993598938e+01   -1.5447807617e+03
   -1.9993497849e+01   -1.5450959473e+03
   -1.9993398666e+01   -1.5453901367e+03
   -1.9993307114e+01   -1.5456633301e+03
   -1.9993223190e+01   -1.5459154053e+03
   -1.9993150711e+01   -1.5461459961e+03
   -1.9993085861e+01   -1.5463554688e+03
   -1.9993030548e+01   -1.5465437012e+03
   -1.9992986679e+01   -1.5467108154e+03
   -1.9992950439e+01   -1.5468565674e+03
   -1.9992921829e+01   -1.5469808350e+03
   -1.9992898941e+01   -1.5470834961e+03
   -1.9992881775e+01   -1.5471654053e+03
   -1.9992868423e+01   -1.5472274170e+03
   -1.9992858887e+01   -1.5472703857e+03
   -1.9992853165e+01   -1.5472952881e+03
   -1.9992851257e+01   -1.5473029785e+03
   -1.9992851257e+01   -1.5472939453e+03
   -1.9992855072e+01   -1.5472686768e+03
   -1.9992860794e+01   -1.5472271729e+03
   -1.9992870331e+01   -1.5471691895e+03
   -1.9992883682e+01   -1.5470946045e+03
   -1.9992904663e+01   -1.5470031738e+03
   -1.9992931366e+01   -1.5468948975e+03
   -1.9992965698e+01   -1.5467700195e+03
   -1.9993009567e+01   -1.5466290283e+03
   -1.9993061066e+01   -1.5464720459e+03
   -1.9993124008e+01   -1.5462988281e+03
   -1.9993196487e+01   -1.5461086426e+03
   -1.9993278503e+01   -1.5459002686e+03
   -1.9993371964e+01   -1.5456729736e+03
   -1.9993473053e+01   -1.5454259033e+03
   -1.9993577957e+01   -1.5451583252e+03
   -1.9993682861e+01   -1.5448696289e+03
   -1.9993785858e+01   -1.5445587158e+03
   -1.9993877411e+01   -1.5442242432e+03
   -1.9993951797e+01   -1.5438651123e+03
   -1.9994001389e+01   -1.5434797363e+03
   -1.9994014740e+01   -1.5430670166e+03
   -1.9993978500e+01   -1.5426271973e+03
   -1.9993881226e+01   -1.5421600342e+03
   -1.9993709564e+01   -1.5416658936e+03
   -1.9993450165e+01   -1.5411455078e+03
   -1.9993091583e+01   -1.5405996094e+03
   -1.9992618561e+01   -1.5400297852e+03
   -1.9992023468e+01   -1.5394376221e+03
   -1.9991300583e+01   -1.5388248291e+03
   -1.9990447998e+01   -1.5381933594e+03
   -1.9989467621e+01   -1.5375450439e+03
   -1.9988363266e+01   -1.5368807373e+03
   -1.9987136841e+01   -1.5362006836e+03
   -1.9985795975e+01   -1.5355043945e+03
   -1.9984340668e+01   -1.5347902832e+03
   -1.9982770920e+01   -1.5340566406e+03
   -1.9981086731e+01   -1.5333005371e+03
   -1.9979282379e+01   -1.5325200195e+03
   -1.9977352142e+01   -1.5317143555e+03
   -1.9975286484e+01   -1.5308819580e+03
   -1.9973075867e+01   -1.5300224609e+03
   -1.9970710754e+01   -1.5291337891e+03
   -1.9968183517e+01   -1.5282147217e+03
   -1.9965486526e+01   -1.5272645264e+03
   -1.9962612152e+01   -1.5262834473e+03
   -1.9959556580e+01   -1.5252706299e+03
   -1.9956306458e+01   -1.5242242432e+03
   -1.9952861786e+01   -1.5231429443e+03
   -1.9949205399e+01   -1.5220249023e+03
   -1.9945333481e+01   -1.5208690186e+03
   -1.9941238403e+01   -1.5196741943e+03
   -1.9936910629e+01   -1.5184401855e+03
   -1.9932342529e+01   -1.5171666260e+03
   -1.9927528381e+01   -1.5158533936e+03
   -1.9922460556e+01   -1.5145009766e+03
   -1.9917127609e+01   -1.5131099854e+03
   -1.9911525726e+01   -1.5116831055e+03
   -1.9905645370e+01   -1.5102210693e+03
   -1.9899475098e+01   -1.5087227783e+03
   -1.9893009186e+01   -1.5071916504e+03
   -1.9886238098e+01   -1.5056284180e+03
   -1.9879150391e+01   -1.5040328369e+03
   -1.9871740341e+01   -1.5024057617e+03
   -1.9863996506e+01   -1.5007464600e+03
   -1.9855913162e+01   -1.4990559082e+03
   -1.9847482681e+01   -1.4973321533e+03
   -1.9838691711e+01   -1.4955712891e+03
   -1.9829540253e+01   -1.4937733154e+03
   -1.9820018768e+01   -1.4919376221e+03
   -1.9810121536e+01   -1.4900625000e+03
   -1.9799835205e+01   -1.4881446533e+03
   -1.9789152145e+01   -1.4861817627e+03
   -1.9778072357e+01   -1.4841732178e+03
   -1.9766578674e+01   -1.4821171875e+03
   -1.9754674911e+01   -1.4800163574e+03
   -1.9742345810e+01   -1.4778688965e+03
   -1.9729587555e+01   -1.4756752930e+03
   -1.9716402054e+01   -1.4734387207e+03
   -1.9702774048e+01   -1.4711577148e+03
   -1.9688686371e+01   -1.4688306885e+03
   -1.9674135208e+01   -1.4664603271e+03
   -1.9659124374e+01   -1.4640485840e+03
   -1.9643632889e+01   -1.4615919189e+03
   -1.9627649307e+01   -1.4590874023e+03
   -1.9611177444e+01   -1.4565377197e+03
   -1.9594217300e+01   -1.4539438477e+03
   -1.9576744080e+01   -1.4513048096e+03
   -1.9558759689e+01   -1.4486224365e+03
   -1.9540252686e+01   -1.4458933105e+03
   -1.9521211624e+01   -1.4431190186e+03
   -1.9501642227e+01   -1.4403013916e+03
   -1.9481544495e+01   -1.4374416504e+03
   -1.9460886002e+01   -1.4345367432e+03
   -1.9439683914e+01   -1.4315913086e+03
   -1.9417921066e+01   -1.4286046143e+03
   -1.9395595551e+01   -1.4255777588e+03
   -1.9372728348e+01   -1.4225142822e+03
   -1.9349287033e+01   -1.4194075928e+03
   -1.9325265884e+01   -1.4162565918e+03
   -1.9300672531e+01   -1.4130626221e+03
   -1.9275491714e+01   -1.4098172607e+03
   -1.9249721527e+01   -1.4065200195e+03
   -1.9223363876e+01   -1.4031705322e+03
   -1.9196426392e+01   -1.3997680664e+03
   -1.9168886185e+01   -1.3963096924e+03
   -1.9140716553e+01   -1.3927933350e+03
   -1.9111955643e+01   -1.3892249756e+03
   -1.9082586288e+01   -1.3856069336e+03
   -1.9052610397e+01   -1.3819396973e+03
   -1.9022016525e+01   -1.3782271729e+03
   -1.8990785599e+01   -1.3744645996e+03
   -1.8958913803e+01   -1.3706544189e+03
   -1.8926431656e+01   -1.3667979736e+03
   -1.8893329620e+01   -1.3628928223e+03
   -1.8859586716e+01   -1.3589385986e+03
   -1.8825225830e+01   -1.3549350586e+03
   -1.8790206909e+01   -1.3508798828e+03
   -1.8754554749e+01   -1.3467792969e+03
   -1.8718282700e+01   -1.3426311035e+03
   -1.8681344986e+01   -1.3384306641e+03
   -1.8643783569e+01   -1.3341861572e+03
   -1.8605564117e+01   -1.3298933105e+03
   -1.8566690445e+01   -1.3255551758e+03
   -1.8527212143e+01   -1.3211783447e+03
   -1.8487054825e+01   -1.3167570801e+03
   -1.8446266174e+01   -1.3122989502e+03
   -1.8404861450e+01   -1.3078045654e+03
   -1.8362802505e+01   -1.3032733154e+03
   -1.8320100784e+01   -1.2987083740e+03
   -1.8276752472e+01   -1.2941114502e+03
   -1.8232753754e+01   -1.2894833984e+03
   -1.8188135147e+01   -1.2848250732e+03
   -1.8142868042e+01   -1.2801323242e+03
   -1.8096969604e+01   -1.2754069824e+03
   -1.8050437927e+01   -1.2706463623e+03
   -1.8003295898e+01   -1.2658479004e+03
   -1.7955513000e+01   -1.2610004883e+03
   -1.7907117844e+01   -1.2561074219e+03
   -1.7858098984e+01   -1.2511633301e+03
   -1.7808446884e+01   -1.2461636963e+03
   -1.7758150101e+01   -1.2411048584e+03
   -1.7707250595e+01   -1.2359931641e+03
   -1.7655759811e+01   -1.2308244629e+03
   -1.7603633881e+01   -1.2255947266e+03
   -1.7550912857e+01   -1.2203166504e+03
   -1.7497579575e+01   -1.2149909668e+03
   -1.7443645477e+01   -1.2096212158e+03
   -1.7389114380e+01   -1.2042117920e+03
   -1.7334001541e+01   -1.1987738037e+03
   -1.7278316498e+01   -1.1933170166e+03
   -1.7222034454e+01   -1.1878366699e+03
   -1.7165172577e+01   -1.1823427734e+03
   -1.7107742310e+01   -1.1768424072e+03
   -1.7049789429e+01   -1.1713411865e+03
   -1.6991241455e+01   -1.1658332520e+03
   -1.6932170868e+01   -1.1603248291e+03
   -1.6872539520e+01   -1.1548177490e+03
   -1.6812370300e+01   -1.1493068848e+03
   -1.6751695633e+01   -1.1437912598e+03
   -1.6690486908e+01   -1.1382556152e+03
   -1.6628759384e+01   -1.1327031250e+03
   -1.6566516876e+01   -1.1271262207e+03
   -1.6503715515e+01   -1.1215159912e+03
   -1.6440437317e+01   -1.1158775635e+03
   -1.6376726151e+01   -1.1102094727e+03
   -1.6312492371e+01   -1.1045095215e+03
   -1.6247770309e+01   -1.0987788086e+03
   -1.6182552338e+01   -1.0930189209e+03
   -1.6116876602e+01   -1.0872326660e+03
   -1.6050750732e+01   -1.0814218750e+03
   -1.5984161377e+01   -1.0755893555e+03
   -1.5917124748e+01   -1.0697369385e+03
   -1.5849672318e+01   -1.0638656006e+03
   -1.5781751633e+01   -1.0579760742e+03
   -1.5713438034e+01   -1.0520682373e+03
   -1.5644719124e+01   -1.0461425781e+03
   -1.5575529099e+01   -1.0401997070e+03
   -1.5505965233e+01   -1.0342398682e+03
   -1.5436033249e+01   -1.0282650146e+03
   -1.5365732193e+01   -1.0222769165e+03
   -1.5295024872e+01   -1.0162785645e+03
   -1.5223925591e+01   -1.0102692261e+03
   -1.5152484894e+01   -1.0042575073e+03
   -1.5080755234e+01   -9.9824926758e+02
   -1.5008675575e+01   -9.9223669434e+02
   -1.4936235428e+01   -9.8621990967e+02
   -1.4863455772e+01   -9.8020068359e+02
   -1.4790341377e+01   -9.7417834473e+02
   -1.4716937065e+01   -9.6815216064e+02
   -1.4643248558e+01   -9.6212017822e+02
   -1.4569233894e+01   -9.5608099365e+02
   -1.4494951248e+01   -9.5003381348e+02
   -1.4420395851e+01   -9.4397802734e+02
   -1.4345512390e+01   -9.3790930176e+02
   -1.4270451546e+01   -9.3183862305e+02
   -1.4195071220e+01   -9.2575512695e+02
   -1.4119482040e+01   -9.1966943359e+02
   -1.4043646812e+01   -9.1357476807e+02
   -1.3967577934e+01   -9.0747906494e+02
   -1.3891342163e+01   -9.0139099121e+02
   -1.3814808846e+01   -8.9529907227e+02
   -1.3738083839e+01   -8.8921136475e+02
   -1.3661199570e+01   -8.8313372803e+02
   -1.3584105492e+01   -8.7705810547e+02
   -1.3506795883e+01   -8.7098406982e+02
   -1.3429283142e+01   -8.6490795898e+02
   -1.3351599693e+01   -8.5883483887e+02
   -1.3273790359e+01   -8.5276635742e+02
   -1.3195834160e+01   -8.4669299316e+02
   -1.3117709160e+01   -8.4061383057e+02
   -1.3039387703e+01   -8.3452612305e+02
   -1.2960949898e+01   -8.2843695068e+02
   -1.2882413864e+01   -8.2234619141e+02
   -1.2803741455e+01   -8.1625292969e+02
   -1.2724971771e+01   -8.1015856934e+02
   -1.2646114349e+01   -8.0406823730e+02
   -1.2567094803e+01   -7.9797265625e+02
   -1.2487993240e+01   -7.9188140869e+02
   -1.2408874512e+01   -7.8579718018e+02
   -1.2329650879e+01   -7.7972460938e+02
   -1.2250308990e+01   -7.7365747070e+02
   -1.2170847893e+01   -7.6759307861e+02
   -1.2091370583e+01   -7.6154046631e+02
   -1.2011835098e+01   -7.5549871826e+02
   -1.1932262421e+01   -7.4947027588e+02
   -1.1852586746e+01   -7.4344744873e+02
   -1.1772808075e+01   -7.3742608643e+02
   -1.1692988396e+01   -7.3141418457e+02
   -1.1613142014e+01   -7.2540966797e+02
   -1.1533274651e+01   -7.1941027832e+02
   -1.1453315735e+01   -7.1341424561e+02
   -1.1373348236e+01   -7.0742449951e+02
   -1.1293340683e+01   -7.0143286133e+02
   -1.1213279724e+01   -6.9543469238e+02
   -1.1133181572e+01   -6.8943792725e+02
   -1.1053066254e+01   -6.8343981934e+02
   -1.0972942352e+01   -6.7743811035e+02
   -1.0892846107e+01   -6.7143231201e+02
   -1.0812728882e+01   -6.6542218018e+02
   -1.0732579231e+01   -6.5940838623e+02
   -1.0652483940e+01   -6.5339123535e+02
   -1.0572341919e+01   -6.4737213135e+02
   -1.0492176056e+01   -6.4135266113e+02
   -1.0412036896e+01   -6.3533465576e+02
   -1.0331920624e+01   -6.2932025146e+02
   -1.0251800537e+01   -6.2331146240e+02
   -1.0171649933e+01   -6.1731164551e+02
   -1.0091504097e+01   -6.1132501221e+02
   -1.0011343956e+01   -6.0535186768e+02
   -9.9312324524e+00   -5.9940911865e+02
   -9.8511362076e+00   -5.9349206543e+02
   -9.7709693909e+00   -5.8760491943e+02
   -9.6907930374e+00   -5.8174865723e+02
   -9.6106910706e+00   -5.7593762207e+02
   -9.5305604935e+00   -5.7016546631e+02
   -9.4504346848e+00   -5.6443298340e+02
   -9.3702783585e+00   -5.5874249268e+02
   -9.2901334763e+00   -5.5309039307e+02
   -9.2099962234e+00   -5.4748364258e+02
   -9.1298370361e+00   -5.4192089844e+02
   -9.0497150421e+00   -5.3639978027e+02
   -8.9696311951e+00   -5.3092431641e+02
   -8.8895120621e+00   -5.2548773193e+02
   -8.8094043732e+00   -5.2009191895e+02
   -8.7293195724e+00   -5.1473870850e+02
   -8.6492719650e+00   -5.0942752075e+02
   -8.5692090988e+00   -5.0415390015e+02
   -8.4892024994e+00   -4.9892388916e+02
   -8.4092550278e+00   -4.9373501587e+02
   -8.3293619156e+00   -4.8858535767e+02
   -8.2495098114e+00   -4.8347344971e+02
   -8.1697530746e+00   -4.7840234375e+02
   -8.0899724960e+00   -4.7336087036e+02
   -8.0103120804e+00   -4.6835595703e+02
   -7.9306974411e+00   -4.6338629150e+02
   -7.8512287140e+00   -4.5845306396e+02
   -7.7717714310e+00   -4.5354962158e+02
   -7.6923508644e+00   -4.4867410278e+02
   -7.6130919456e+00   -4.4383822632e+02
   -7.5338735580e+00   -4.3903131104e+02
   -7.4547810555e+00   -4.3426394653e+02
   -7.3757591248e+00   -4.2953042603e+02
   -7.2968115807e+00   -4.2482864380e+02
   -7.2179856300e+00   -4.2016674805e+02
   -7.1392822266e+00   -4.1554388428e+02
   -7.0607075691e+00   -4.1095843506e+02
   -6.9822893143e+00   -4.0641375732e+02
   -6.9039683342e+00   -4.0190377808e+02
   -6.8257513046e+00   -3.9742703247e+02
   -6.7476921082e+00   -3.9299127197e+02
   -6.6698141098e+00   -3.8859487915e+02
   -6.5920553207e+00   -3.8423724365e+02
   -6.5145020485e+00   -3.7991857910e+02
   -6.4371461868e+00   -3.7564218140e+02
   -6.3599181175e+00   -3.7139868164e+02
   -6.2829060555e+00   -3.6719381714e+02
   -6.2060775757e+00   -3.6302609253e+02
   -6.1294193268e+00   -3.5889413452e+02
   -6.0530166626e+00   -3.5479769897e+02
   -5.9768781662e+00   -3.5073684692e+02
   -5.9009337425e+00   -3.4671423340e+02
   -5.8251671791e+00   -3.4272143555e+02
   -5.7497010231e+00   -3.3876596069e+02
   -5.6744799614e+00   -3.3484741211e+02
   -5.5994982719e+00   -3.3096536255e+02
   -5.5248122215e+00   -3.2711904907e+02
   -5.4503493309e+00   -3.2330755615e+02
   -5.3762145042e+00   -3.1952954102e+02
   -5.3023672104e+00   -3.1578375244e+02
   -5.2287874222e+00   -3.1206930542e+02
   -5.1555042267e+00   -3.0838488770e+02
   -5.0826163292e+00   -3.0472958374e+02
   -5.0099859238e+00   -3.0110247803e+02
   -4.9376845360e+00   -2.9750241089e+02
   -4.8657274246e+00   -2.9392532349e+02
   -4.7942013741e+00   -2.9037814331e+02
   -4.7229576111e+00   -2.8685305786e+02
   -4.6520471573e+00   -2.8335125732e+02
   -4.5815668106e+00   -2.7987490845e+02
   -4.5114407539e+00   -2.7642684937e+02
   -4.4416713715e+00   -2.7300717163e+02
   -4.3723354340e+00   -2.6962686157e+02
   -4.3033900261e+00   -2.6627957153e+02
   -4.2349104881e+00   -2.6297518921e+02
   -4.1667943001e+00   -2.5970864868e+02
   -4.0990848541e+00   -2.5648004150e+02
   -4.0318298340e+00   -2.5328955078e+02
   -3.9650332928e+00   -2.5013671875e+02
   -3.8986382484e+00   -2.4701841736e+02
   -3.8327758312e+00   -2.4394125366e+02
   -3.7673127651e+00   -2.4089573669e+02
   -3.7023603916e+00   -2.3788925171e+02
   -3.6378819942e+00   -2.3491580200e+02
   -3.5738527775e+00   -2.3197302246e+02
   -3.5103654861e+00   -2.2906719971e+02
   -3.4473166466e+00   -2.2618798828e+02
   -3.3848423958e+00   -2.2334028625e+02
   -3.3228106499e+00   -2.2051353455e+02
   -3.2613115311e+00   -2.1771026611e+02
   -3.2003867626e+00   -2.1492846680e+02
   -3.1399705410e+00   -2.1217010498e+02
   -3.0800549984e+00   -2.0942840576e+02
   -3.0207414627e+00   -2.0671047974e+02
   -2.9619290829e+00   -2.0400775146e+02
   -2.9037122726e+00   -2.0132594299e+02
   -2.8460540771e+00   -1.9865870667e+02
   -2.7889118195e+00   -1.9600506592e+02
   -2.7323863506e+00   -1.9337257385e+02
   -2.6763861179e+00   -1.9075457764e+02
   -2.6210129261e+00   -1.8815734863e+02
   -2.5662288666e+00   -1.8558259583e+02
   -2.5120296478e+00   -1.8303462219e+02
   -2.4583861828e+00   -1.8050947571e+02
   -2.4053997993e+00   -1.7801547241e+02
   -2.3529696465e+00   -1.7554627991e+02
   -2.3011894226e+00   -1.7310893250e+02
   -2.2499852180e+00   -1.7069561768e+02
   -2.1993904114e+00   -1.6830958557e+02
   -2.1494131088e+00   -1.6594804382e+02
   -2.1000747681e+00   -1.6360905457e+02
   -2.0513586998e+00   -1.6129121399e+02
   -2.0032479763e+00   -1.5899232483e+02
   -1.9557712078e+00   -1.5671032715e+02
   -1.9089596272e+00   -1.5444519043e+02
   -1.8627156019e+00   -1.5219001770e+02
   -1.8171428442e+00   -1.4994921875e+02
   -1.7721959352e+00   -1.4771990967e+02
   -1.7278952599e+00   -1.4550851440e+02
   -1.6842323542e+00   -1.4331269836e+02
   -1.6412086487e+00   -1.4113644409e+02
   -1.5988538265e+00   -1.3898333740e+02
   -1.5570949316e+00   -1.3685614014e+02
   -1.5159928799e+00   -1.3475744629e+02
   -1.4755585194e+00   -1.3268869019e+02
   -1.4357252121e+00   -1.3064953613e+02
   -1.3965651989e+00   -1.2863768005e+02
   -1.3580557108e+00   -1.2664877319e+02
   -1.3201459646e+00   -1.2467603302e+02
   -1.2829020023e+00   -1.2271938324e+02
   -1.2463200092e+00   -1.2077123260e+02
   -1.2103338242e+00   -1.1883024597e+02
   -1.1750292778e+00   -1.1690248871e+02
   -1.1403398514e+00   -1.1498581696e+02
   -1.1062859297e+00   -1.1308329773e+02
   -1.0728654861e+00   -1.1119673920e+02
   -1.0400867462e+00   -1.0932704926e+02
   -1.0079075098e+00   -1.0747428131e+02
   -9.7636157274e-01   -1.0563734436e+02
   -9.4547200203e-01   -1.0382159424e+02
   -9.1519200802e-01   -1.0202365875e+02
   -8.8551336527e-01   -1.0024522400e+02
   -8.5643970966e-01   -9.8485595703e+01
   -8.2799381018e-01   -9.6750137329e+01
   -8.0016672611e-01   -9.5034774780e+01
   -7.7290332317e-01   -9.3337402344e+01
   -7.4626612663e-01   -9.1658393860e+01
   -7.2022628784e-01   -8.9992523193e+01
   -6.9477379322e-01   -8.8334838867e+01
   -6.6991746426e-01   -8.6680778503e+01
   -6.4564394951e-01   -8.5029220581e+01
   -6.2194383144e-01   -8.3377571106e+01
   -5.9880906343e-01   -8.1728782654e+01
   -5.7623594999e-01   -8.0086456299e+01
   -5.5422288179e-01   -7.8452629089e+01
   -5.3277653456e-01   -7.6832618713e+01
   -5.1187181473e-01   -7.5227195740e+01
   -4.9152937531e-01   -7.3639343262e+01
   -4.7170555592e-01   -7.2067672729e+01
   -4.5243787766e-01   -7.0519851685e+01
   -4.3368476629e-01   -6.8993293762e+01
   -4.1544541717e-01   -6.7486991882e+01
   -3.9772224426e-01   -6.6002212524e+01
   -3.8050454855e-01   -6.4537338257e+01
   -3.6380141973e-01   -6.3093544006e+01
   -3.4757861495e-01   -6.1667198181e+01
   -3.3184716105e-01   -6.0262027740e+01
   -3.1660482287e-01   -5.8878364563e+01
   -3.0181944370e-01   -5.7512603760e+01
   -2.8751266003e-01   -5.6169021606e+01
   -2.7365684509e-01   -5.4842456818e+01
   -2.6025527716e-01   -5.3534744263e+01
   -2.4729602039e-01   -5.2242691040e+01
   -2.3477026820e-01   -5.0964267731e+01
   -2.2267819941e-01   -4.9698921204e+01
   -2.1100659668e-01   -4.8447536469e+01
   -1.9975040853e-01   -4.7211452484e+01
   -1.8888820708e-01   -4.5991046906e+01
   -1.7843341827e-01   -4.4786075592e+01
   -1.6836406291e-01   -4.3596088409e+01
   -1.5867957473e-01   -4.2420829773e+01
   -1.4936904609e-01   -4.1260013580e+01
   -1.4042481780e-01   -4.0112754822e+01
   -1.3184000552e-01   -3.8978103638e+01
   -1.2359777838e-01   -3.7855007172e+01
   -1.1570523679e-01   -3.6742771149e+01
   -1.0814167559e-01   -3.5641555786e+01
   -1.0090570897e-01   -3.4552207947e+01
   -9.3982636929e-02   -3.3476188660e+01
   -8.7369084358e-02   -3.2414638519e+01
   -8.1060834229e-02   -3.1368204117e+01
   -7.5040519238e-02   -3.0336256027e+01
   -6.9307439029e-02   -2.9320873260e+01
   -6.3854530454e-02   -2.8322135925e+01
   -5.8666698635e-02   -2.7338512421e+01
   -5.3741309792e-02   -2.6371339798e+01
   -4.9066536129e-02   -2.5420616150e+01
   -4.4641837478e-02   -2.4490179062e+01
   -4.0451250970e-02   -2.3578601837e+01
   -3.6486376077e-02   -2.2686534882e+01
   -3.2749410719e-02   -2.1816844940e+01
   -2.9220065102e-02   -2.0966785431e+01
   -2.5899887085e-02   -2.0138961792e+01
   -2.2782044485e-02   -1.9333171844e+01
   -1.9850682467e-02   -1.8547208786e+01
   -1.7105160281e-02   -1.7780679703e+01
   -1.4534489252e-02   -1.7031871796e+01
   -1.2137151323e-02   -1.6302371979e+01
   -9.8976539448e-03   -1.5589432716e+01
   -7.8160911798e-03   -1.4895789146e+01
   -5.8835502714e-03   -1.4219388008e+01
   -4.0902821347e-03   -1.3559543610e+01
   -2.4336969946e-03   -1.2917135239e+01
   -9.0513832401e-04   -1.2288948059e+01
    5.0277600531e-04   -1.1673487663e+01
    1.7932808260e-03   -1.1071231842e+01
    2.9750226531e-03   -1.0479835510e+01
    4.0539959446e-03   -9.8989725113e+00
    5.0342446193e-03   -9.3304862976e+00
    5.9240218252e-03   -8.7732334137e+00
    6.7271995358e-03   -8.2284421921e+00
    7.4503067881e-03   -7.6966362000e+00
    8.0979019403e-03   -7.1800441742e+00
    8.6753433570e-03   -6.6793508530e+00
    9.1877290979e-03   -6.1957478523e+00
    9.6403341740e-03   -5.7302298546e+00
    1.0036949068e-02   -5.2836227417e+00
    1.0382805020e-02   -4.8571887016e+00
    1.0682035238e-02   -4.4508876801e+00
    1.0939173400e-02   -4.0653977394e+00
    1.1157926172e-02   -3.7016444206e+00
    1.1342173442e-02   -3.3590667248e+00
    1.1495457031e-02   -3.0377318859e+00
    1.1621666141e-02   -2.7365288734e+00
    1.1723817326e-02   -2.4564001560e+00
    1.1805108748e-02   -2.1972737312e+00
    1.1868419126e-02   -1.9597988129e+00
    1.1916634627e-02   -1.7436847687e+00
    1.1952140369e-02   -1.5501705408e+00
    1.1977338232e-02   -1.3790270090e+00
    1.1994331144e-02   -1.2306725979e+00
    1.2004977092e-02   -1.1056666374e+00
    1.2010977603e-02   -1.0030940771e+00
    1.2013752013e-02   -9.2233490944e-01
    1.2014498003e-02   -8.6172425747e-01
    1.2014172971e-02   -8.1925064325e-01
    1.2013480999e-02   -7.9239010811e-01
    1.2012873776e-02   -7.7786999941e-01
    1.2012557127e-02   -7.7211385965e-01
    1.2012477964e-02   -7.7089679241e-01
endcurve
