Curveplot
LS-DYNA keyword deck by LS-PrePost
Time
Yrot-displ
Rigid Body Ids
300001 #pts=1800
* Minval=    -1.7185069275e+02 at time=        97.2990570068
* Maxval=     2.1583043039e-02 at time=        11.8999795914
    0.0000000000e+00   -1.2426649221e-07
    9.9943496287e-02   -1.0897012004e-07
    1.9988699257e-01   -8.3384328775e-08
    2.9994609952e-01   -4.5746617161e-08
    3.9988958836e-01    5.6073332644e-09
    4.9994859099e-01    7.2127249950e-08
    5.9989207983e-01    1.5490805083e-07
    6.9995117188e-01    2.5452592922e-07
    7.9989469051e-01    3.7085214899e-07
    8.9995372295e-01    5.0284751296e-07
    9.9989718199e-01    6.4834256364e-07
    1.0999560356e+00    8.0381062162e-07
    1.1999000311e+00    9.6414305517e-07
    1.2999589443e+00    1.1224394711e-06
    1.3999019861e+00    1.2698291130e-06
    1.4999510050e+00    1.3953455209e-06
    1.5998940468e+00    1.4859358544e-06
    1.6999540329e+00    1.5267587514e-06
    1.7998980284e+00    1.5018567865e-06
    1.8999099731e+00    1.3950349285e-06
    1.9999649525e+00    1.1907059161e-06
    2.0999751091e+00    8.7473245003e-07
    2.1999189854e+00    4.3550110718e-07
    2.2999320030e+00   -1.3464845949e-07
    2.3999149799e+00   -8.3771266191e-07
    2.4999868870e+00   -1.6681375428e-06
    2.5999190807e+00   -2.6108025395e-06
    2.6999289989e+00   -3.6388721583e-06
    2.7999889851e+00   -4.7115113375e-06
    2.8999919891e+00   -5.7714910326e-06
    2.9999730587e+00   -6.7427345130e-06
    3.0999169350e+00   -7.5279140219e-06
    3.1998970509e+00   -8.0062582128e-06
    3.2999598980e+00   -8.0317649918e-06
    3.3999040127e+00   -7.4319759733e-06
    3.4999639988e+00   -6.0074335124e-06
    3.5999081135e+00   -3.5318887512e-06
    3.6999669075e+00    2.4676052135e-07
    3.7999110222e+00    5.6048866099e-06
    3.8999710083e+00    1.2841036551e-05
    3.9999139309e+00    2.2273476134e-05
    4.0999732018e+00    3.4237495129e-05
    4.1999168396e+00    4.9082605983e-05
    4.2999758720e+00    6.7169763497e-05
    4.3999190331e+00    8.8868779130e-05
    4.4999771118e+00    1.1455593631e-04
    4.5999197960e+00    1.4461192768e-04
    4.6999769211e+00    1.7941994884e-04
    4.7999200821e+00    2.1936409757e-04
    4.8999772072e+00    2.6482783142e-04
    4.9999179840e+00    3.1619259971e-04
    5.0999741554e+00    3.7383681047e-04
    5.1999139786e+00    4.3813473894e-04
    5.2999701500e+00    5.0945585826e-04
    5.3999090195e+00    5.8816437377e-04
    5.4999628067e+00    6.7461858271e-04
    5.5999011993e+00    7.6917087426e-04
    5.6999540329e+00    8.7216735119e-04
    5.7998909950e+00    9.8394765519e-04
    5.8999419212e+00    1.1048450833e-03
    5.9999928474e+00    1.2351865880e-03
    6.0999279022e+00    1.3752925443e-03
    6.1999769211e+00    1.5254770406e-03
    6.2999110222e+00    1.6860476462e-03
    6.3999581337e+00    1.8573048292e-03
    6.4998888969e+00    2.0395417232e-03
    6.5999360085e+00    2.2330430802e-03
    6.6999812126e+00    2.4380837567e-03
    6.7999100685e+00    2.6549277827e-03
    6.8999528885e+00    2.8838268481e-03
    6.9999961853e+00    3.1250175089e-03
    7.0999221802e+00    3.3787197899e-03
    7.1999630928e+00    3.6451334599e-03
    7.2998871803e+00    3.9244345389e-03
    7.3999261856e+00    4.2167711072e-03
    7.4999642372e+00    4.5222607441e-03
    7.5999169350e+00    4.8409826122e-03
    7.6999177933e+00    5.1729734987e-03
    7.7998971939e+00    5.5182240903e-03
    7.8998970985e+00    5.8766705915e-03
    7.9999017715e+00    6.2481909990e-03
    8.0999107361e+00    6.6326004453e-03
    8.1999378204e+00    7.0296446793e-03
    8.2999553680e+00    7.4389982037e-03
    8.3999109268e+00    7.8602610156e-03
    8.4999904633e+00    8.2929534838e-03
    8.5999498367e+00    8.7365219370e-03
    8.6999864578e+00    9.1903284192e-03
    8.7999076843e+00    9.6536632627e-03
    8.8999576569e+00    1.0125735775e-02
    8.9999322891e+00    1.0605679825e-02
    9.0999927521e+00    1.1092554778e-02
    9.1999254227e+00    1.1585343629e-02
    9.2998895645e+00    1.2082958594e-02
    9.3998889923e+00    1.2584240176e-02
    9.4999456406e+00    1.3087958097e-02
    9.5999660492e+00    1.3592810370e-02
    9.6999015808e+00    1.4097427018e-02
    9.7999944687e+00    1.4600369148e-02
    9.8999948502e+00    1.5100131743e-02
    9.9999856949e+00    1.5595144592e-02
    1.0099989891e+01    1.6083771363e-02
    1.0199959755e+01    1.6564313322e-02
    1.0299940109e+01    1.7035013065e-02
    1.0399930000e+01    1.7494050786e-02
    1.0499950409e+01    1.7939550802e-02
    1.0600000381e+01    1.8369581550e-02
    1.0699879646e+01    1.8782155588e-02
    1.0799940109e+01    1.9175235182e-02
    1.0899930000e+01    1.9546734169e-02
    1.0999930382e+01    1.9894514233e-02
    1.1099880219e+01    2.0216392353e-02
    1.1199890137e+01    2.0510142669e-02
    1.1299960136e+01    2.0773494616e-02
    1.1399889946e+01    2.1004132926e-02
    1.1499899864e+01    2.1199710667e-02
    1.1600000381e+01    2.1357834339e-02
    1.1699899673e+01    2.1476080641e-02
    1.1800000191e+01    2.1551983431e-02
    1.1899979591e+01    2.1583043039e-02
    1.1999959946e+01    2.1566728130e-02
    1.2099920273e+01    2.1500471979e-02
    1.2199970245e+01    2.1381676197e-02
    1.2299989700e+01    2.1207710728e-02
    1.2399979591e+01    2.0975915715e-02
    1.2499970436e+01    2.0683608949e-02
    1.2599980354e+01    2.0328074694e-02
    1.2699959755e+01    1.9906571135e-02
    1.2799920082e+01    1.9416339695e-02
    1.2899990082e+01    1.8854595721e-02
    1.2999930382e+01    1.8218537793e-02
    1.3099980354e+01    1.7505345866e-02
    1.3199959755e+01    1.6712190583e-02
    1.3299920082e+01    1.5836222097e-02
    1.3399950027e+01    1.4874586836e-02
    1.3499979973e+01    1.3824414462e-02
    1.3599909782e+01    1.2682832778e-02
    1.3699979782e+01    1.1446962133e-02
    1.3799900055e+01    1.0113918222e-02
    1.3899939537e+01    8.6808186024e-03
    1.3999910355e+01    7.1447831579e-03
    1.4100000381e+01    5.5029359646e-03
    1.4199910164e+01    3.7524099462e-03
    1.4299969673e+01    1.8903494347e-03
    1.4399909973e+01   -8.6086183728e-05
    1.4499959946e+01   -2.1797197405e-03
    1.4599929810e+01   -4.3933531269e-03
    1.4699919701e+01   -6.7297634669e-03
    1.4800000191e+01   -9.1917030513e-03
    1.4899920464e+01   -1.1781895533e-02
    1.4999970436e+01   -1.4503038488e-02
    1.5099929810e+01   -1.7357802019e-02
    1.5200019836e+01   -2.0348830149e-02
    1.5299949646e+01   -2.3478740826e-02
    1.5399939537e+01   -2.6750126854e-02
    1.5499979973e+01   -3.0165562406e-02
    1.5599949837e+01   -3.3727593720e-02
    1.5700010300e+01   -3.7438746542e-02
    1.5799969673e+01   -4.1301526129e-02
    1.5899930000e+01   -4.5318409801e-02
    1.5999939919e+01   -4.9491856247e-02
    1.6099969864e+01   -5.3824290633e-02
    1.6200000763e+01   -5.8318126947e-02
    1.6299919128e+01   -6.2975741923e-02
    1.6399940491e+01   -6.7799493670e-02
    1.6499950409e+01   -7.2791703045e-02
    1.6599929810e+01   -7.7954672277e-02
    1.6700019836e+01   -8.3290681243e-02
    1.6799970627e+01   -8.8801957667e-02
    1.6899999619e+01   -9.4490751624e-02
    1.6999950409e+01   -1.0035926104e-01
    1.7100000381e+01   -1.0640969872e-01
    1.7199909210e+01   -1.1264426261e-01
    1.7300010681e+01   -1.1906512082e-01
    1.7399980545e+01   -1.2567445636e-01
    1.7499929428e+01   -1.3247440755e-01
    1.7599990845e+01   -1.3946712017e-01
    1.7699939728e+01   -1.4665476978e-01
    1.7799949646e+01   -1.5403947234e-01
    1.7899929047e+01   -1.6162337363e-01
    1.7999940872e+01   -1.6940860450e-01
    1.8099929810e+01   -1.7739728093e-01
    1.8199930191e+01   -1.8559151888e-01
    1.8299980164e+01   -1.9399340451e-01
    1.8399980545e+01   -2.0260505378e-01
    1.8499980927e+01   -2.1142853796e-01
    1.8599929810e+01   -2.2046597302e-01
    1.8699920654e+01   -2.2971943021e-01
    1.8799930573e+01   -2.3919101059e-01
    1.8899990082e+01   -2.4888281524e-01
    1.9000000000e+01   -2.5879693031e-01
    1.9100000381e+01   -2.6893544197e-01
    1.9199979782e+01   -2.7930048108e-01
    1.9299959183e+01   -2.8989419341e-01
    1.9399969101e+01   -3.0071872473e-01
    1.9500019073e+01   -3.1177619100e-01
    1.9599990845e+01   -3.2306876779e-01
    1.9699979782e+01   -3.3459869027e-01
    1.9800020218e+01   -3.4636819363e-01
    1.9899929047e+01   -3.5837951303e-01
    2.0000000000e+01   -3.7063494325e-01
    2.0099939346e+01   -3.8313680887e-01
    2.0200000763e+01   -3.9588746428e-01
    2.0300020218e+01   -4.0888920426e-01
    2.0399999619e+01   -4.2214447260e-01
    2.0499929428e+01   -4.3565568328e-01
    2.0600040436e+01   -4.4942536950e-01
    2.0700019836e+01   -4.6345603466e-01
    2.0800010681e+01   -4.7775027156e-01
    2.0900009155e+01   -4.9231076241e-01
    2.0999980927e+01   -5.0714021921e-01
    2.1099939346e+01   -5.2224141359e-01
    2.1200000763e+01   -5.3761726618e-01
    2.1299940109e+01   -5.5327057838e-01
    2.1399940491e+01   -5.6920439005e-01
    2.1500000000e+01   -5.8542180061e-01
    2.1599979401e+01   -6.0192584991e-01
    2.1699960709e+01   -6.1871987581e-01
    2.1800029755e+01   -6.3580715656e-01
    2.1899959564e+01   -6.5319120884e-01
    2.1999950409e+01   -6.7087548971e-01
    2.2100009918e+01   -6.8886375427e-01
    2.2199949265e+01   -7.0715969801e-01
    2.2299970627e+01   -7.2576707602e-01
    2.2399929047e+01   -7.4468982220e-01
    2.2499969482e+01   -7.6393181086e-01
    2.2599979401e+01   -7.8349721432e-01
    2.2700000763e+01   -8.0339008570e-01
    2.2800039291e+01   -8.2361465693e-01
    2.2899969101e+01   -8.4417521954e-01
    2.2999959946e+01   -8.6507612467e-01
    2.3099990845e+01   -8.8632178307e-01
    2.3200000763e+01   -9.0791672468e-01
    2.3299940109e+01   -9.2986559868e-01
    2.3399969101e+01   -9.5217287540e-01
    2.3499959946e+01   -9.7484320402e-01
    2.3599979401e+01   -9.9788105488e-01
    2.3700029373e+01   -1.0212907791e+00
    2.3799989700e+01   -1.0450768471e+00
    2.3899969101e+01   -1.0692434311e+00
    2.3999980927e+01   -1.0937945843e+00
    2.4100000381e+01   -1.1187343597e+00
    2.4200010300e+01   -1.1440664530e+00
    2.4300050735e+01   -1.1697946787e+00
    2.4400009155e+01   -1.1959223747e+00
    2.4499969482e+01   -1.2224529982e+00
    2.4599950790e+01   -1.2493898869e+00
    2.4700019836e+01   -1.2767362595e+00
    2.4800029755e+01   -1.3044954538e+00
    2.4899969101e+01   -1.3326709270e+00
    2.5000059128e+01   -1.3612664938e+00
    2.5099950790e+01   -1.3902862072e+00
    2.5200010300e+01   -1.4197348356e+00
    2.5300039291e+01   -1.4496179819e+00
    2.5400060654e+01   -1.4799422026e+00
    2.5499990463e+01   -1.5107154846e+00
    2.5600009918e+01   -1.5419471264e+00
    2.5699970245e+01   -1.5736486912e+00
    2.5800010681e+01   -1.6058334112e+00
    2.5900020599e+01   -1.6385169029e+00
    2.6000030518e+01   -1.6717174053e+00
    2.6100009918e+01   -1.7054553032e+00
    2.6200019836e+01   -1.7397536039e+00
    2.6300029755e+01   -1.7746376991e+00
    2.6400060654e+01   -1.8101348877e+00
    2.6500030518e+01   -1.8462742567e+00
    2.6600040436e+01   -1.8830858469e+00
    2.6699970245e+01   -1.9206004143e+00
    2.6799980164e+01   -1.9588488340e+00
    2.6899990082e+01   -1.9978609085e+00
    2.7000009537e+01   -2.0376651287e+00
    2.7100000381e+01   -2.0782883167e+00
    2.7200050354e+01   -2.1197540760e+00
    2.7299970627e+01   -2.1620829105e+00
    2.7399980545e+01   -2.2052922249e+00
    2.7500030518e+01   -2.2493948936e+00
    2.7600040436e+01   -2.2944002151e+00
    2.7700029373e+01   -2.3403131962e+00
    2.7800029755e+01   -2.3871343136e+00
    2.7900020599e+01   -2.4348609447e+00
    2.8000040054e+01   -2.4834859371e+00
    2.8100019455e+01   -2.5329997540e+00
    2.8200050354e+01   -2.5833899975e+00
    2.8300060272e+01   -2.6346426010e+00
    2.8399980545e+01   -2.6867420673e+00
    2.8499990463e+01   -2.7396719456e+00
    2.8600000381e+01   -2.7934157848e+00
    2.8700040817e+01   -2.8479573727e+00
    2.8800010681e+01   -2.9032807350e+00
    2.8900030136e+01   -2.9593706131e+00
    2.9000009537e+01   -3.0162134171e+00
    2.9100019455e+01   -3.0737960339e+00
    2.9200029373e+01   -3.1321077347e+00
    2.9299980164e+01   -3.1911382675e+00
    2.9400070190e+01   -3.2508800030e+00
    2.9500000000e+01   -3.3113262653e+00
    2.9600009918e+01   -3.3724725246e+00
    2.9700010300e+01   -3.4343156815e+00
    2.9799999237e+01   -3.4968543053e+00
    2.9899990082e+01   -3.5600895882e+00
    3.0000070572e+01   -3.6240236759e+00
    3.0100030899e+01   -3.6886601448e+00
    3.0200040817e+01   -3.7540047169e+00
    3.0300069809e+01   -3.8200647831e+00
    3.0400039673e+01   -3.8868494034e+00
    3.0499980927e+01   -3.9543678761e+00
    3.0600000381e+01   -4.0226316452e+00
    3.0699970245e+01   -4.0916533470e+00
    3.0799999237e+01   -4.1614456177e+00
    3.0899980545e+01   -4.2320218086e+00
    3.1000070572e+01   -4.3033962250e+00
    3.1100000381e+01   -4.3755831718e+00
    3.1199989319e+01   -4.4485960007e+00
    3.1300020218e+01   -4.5224485397e+00
    3.1399990082e+01   -4.5971536636e+00
    3.1500009537e+01   -4.6727237701e+00
    3.1600059509e+01   -4.7491698265e+00
    3.1700029373e+01   -4.8265018463e+00
    3.1800029755e+01   -4.9047293663e+00
    3.1899980545e+01   -4.9838595390e+00
    3.2000030518e+01   -5.0638980865e+00
    3.2100028992e+01   -5.1448497772e+00
    3.2200031281e+01   -5.2267160416e+00
    3.2299968719e+01   -5.3094978333e+00
    3.2400070190e+01   -5.3931951523e+00
    3.2500068665e+01   -5.4778041840e+00
    3.2599998474e+01   -5.5633215904e+00
    3.2699970245e+01   -5.6497426033e+00
    3.2800029755e+01   -5.7370610237e+00
    3.2900051117e+01   -5.8252696991e+00
    3.3000038147e+01   -5.9143619537e+00
    3.3100059509e+01   -6.0043301582e+00
    3.3200050354e+01   -6.0951685905e+00
    3.3300041199e+01   -6.1868710518e+00
    3.3400020599e+01   -6.2794337273e+00
    3.3500061035e+01   -6.3728523254e+00
    3.3600028992e+01   -6.4671254158e+00
    3.3699951172e+01   -6.5622534752e+00
    3.3799991608e+01   -6.6582384109e+00
    3.3899959564e+01   -6.7550859451e+00
    3.4000030518e+01   -6.8528022766e+00
    3.4099990845e+01   -6.9513969421e+00
    3.4200038910e+01   -7.0508804321e+00
    3.4299961090e+01   -7.1512660980e+00
    3.4399990082e+01   -7.2525682449e+00
    3.4499938965e+01   -7.3548049927e+00
    3.4600009918e+01   -7.4579939842e+00
    3.4699958801e+01   -7.5621552467e+00
    3.4800029755e+01   -7.6673088074e+00
    3.4900009155e+01   -7.7734766006e+00
    3.5000000000e+01   -7.8806796074e+00
    3.5099960327e+01   -7.9889388084e+00
    3.5199970245e+01   -8.0982761383e+00
    3.5299968719e+01   -8.2087097168e+00
    3.5400020599e+01   -8.3202619553e+00
    3.5499969482e+01   -8.4329490662e+00
    3.5599910736e+01   -8.5467891693e+00
    3.5699989319e+01   -8.6617994308e+00
    3.5799938202e+01   -8.7779941559e+00
    3.5899990082e+01   -8.8953886032e+00
    3.6000000000e+01   -9.0139923096e+00
    3.6099971771e+01   -9.1338176727e+00
    3.6199958801e+01   -9.2548732758e+00
    3.6299919128e+01   -9.3771667480e+00
    3.6400001526e+01   -9.5007028580e+00
    3.6499938965e+01   -9.6254863739e+00
    3.6599979401e+01   -9.7515201569e+00
    3.6699939728e+01   -9.8788070679e+00
    3.6800010681e+01   -1.0007349014e+01
    3.6899948120e+01   -1.0137146950e+01
    3.6999980927e+01   -1.0268199921e+01
    3.7099971771e+01   -1.0400507927e+01
    3.7199951172e+01   -1.0534068108e+01
    3.7299949646e+01   -1.0668877602e+01
    3.7399921417e+01   -1.0804932594e+01
    3.7499900818e+01   -1.0942228317e+01
    3.7599948883e+01   -1.1080761909e+01
    3.7699958801e+01   -1.1220528603e+01
    3.7799980164e+01   -1.1361525536e+01
    3.7899940491e+01   -1.1503747940e+01
    3.7999919891e+01   -1.1647194862e+01
    3.8099918365e+01   -1.1791861534e+01
    3.8199909210e+01   -1.1937746048e+01
    3.8299911499e+01   -1.2084847450e+01
    3.8399959564e+01   -1.2233163834e+01
    3.8499919891e+01   -1.2382696152e+01
    3.8599941254e+01   -1.2533444405e+01
    3.8699928284e+01   -1.2685407639e+01
    3.8799930573e+01   -1.2838586807e+01
    3.8899909973e+01   -1.2992981911e+01
    3.8999889374e+01   -1.3148593903e+01
    3.9099910736e+01   -1.3305421829e+01
    3.9199878693e+01   -1.3463464737e+01
    3.9299900055e+01   -1.3622722626e+01
    3.9399929047e+01   -1.3783191681e+01
    3.9499938965e+01   -1.3944867134e+01
    3.9599929810e+01   -1.4107745171e+01
    3.9699909210e+01   -1.4271821022e+01
    3.9799919128e+01   -1.4437086105e+01
    3.9899909973e+01   -1.4603532791e+01
    3.9999851227e+01   -1.4771153450e+01
    4.0099880219e+01   -1.4939938545e+01
    4.0199928284e+01   -1.5109875679e+01
    4.0299938202e+01   -1.5280954361e+01
    4.0399879456e+01   -1.5453164101e+01
    4.0499839783e+01   -1.5626493454e+01
    4.0599861145e+01   -1.5800930977e+01
    4.0699951172e+01   -1.5976465225e+01
    4.0799930573e+01   -1.6153085709e+01
    4.0899829865e+01   -1.6330783844e+01
    4.0999889374e+01   -1.6509546280e+01
    4.1099891663e+01   -1.6689367294e+01
    4.1199928284e+01   -1.6870239258e+01
    4.1299900055e+01   -1.7052154541e+01
    4.1399879456e+01   -1.7235105515e+01
    4.1499881744e+01   -1.7419090271e+01
    4.1599861145e+01   -1.7604103088e+01
    4.1699848175e+01   -1.7790142059e+01
    4.1799919128e+01   -1.7977207184e+01
    4.1899860382e+01   -1.8165294647e+01
    4.1999858856e+01   -1.8354408264e+01
    4.2099830627e+01   -1.8544546127e+01
    4.2199829102e+01   -1.8735715866e+01
    4.2299858093e+01   -1.8927919388e+01
    4.2399909973e+01   -1.9121160507e+01
    4.2499858856e+01   -1.9315443039e+01
    4.2599811554e+01   -1.9510772705e+01
    4.2699890137e+01   -1.9707155228e+01
    4.2799911499e+01   -1.9904594421e+01
    4.2899810791e+01   -2.0103097916e+01
    4.2999919891e+01   -2.0302675247e+01
    4.3099830627e+01   -2.0503334045e+01
    4.3199798584e+01   -2.0705081940e+01
    4.3299819946e+01   -2.0907928467e+01
    4.3399799347e+01   -2.1111883163e+01
    4.3499851227e+01   -2.1316953659e+01
    4.3599891663e+01   -2.1523149490e+01
    4.3699810028e+01   -2.1730484009e+01
    4.3799850464e+01   -2.1938959122e+01
    4.3899791718e+01   -2.2148586273e+01
    4.3999809265e+01   -2.2359375000e+01
    4.4099800110e+01   -2.2571329117e+01
    4.4199871063e+01   -2.2784454346e+01
    4.4299880981e+01   -2.2998760223e+01
    4.4399810791e+01   -2.3214248657e+01
    4.4499790192e+01   -2.3430927277e+01
    4.4599830627e+01   -2.3648797989e+01
    4.4699810028e+01   -2.3867864609e+01
    4.4799880981e+01   -2.4088129044e+01
    4.4899780273e+01   -2.4309597015e+01
    4.4999809265e+01   -2.4532264709e+01
    4.5099830627e+01   -2.4756134033e+01
    4.5199829102e+01   -2.4981201172e+01
    4.5299839020e+01   -2.5207466125e+01
    4.5399841309e+01   -2.5434926987e+01
    4.5499771118e+01   -2.5663578033e+01
    4.5599819183e+01   -2.5893413544e+01
    4.5699790955e+01   -2.6124429703e+01
    4.5799808502e+01   -2.6356624603e+01
    4.5899841309e+01   -2.6589990616e+01
    4.5999828339e+01   -2.6824522018e+01
    4.6099750519e+01   -2.7060216904e+01
    4.6199871063e+01   -2.7297069550e+01
    4.6299819946e+01   -2.7535078049e+01
    4.6399810791e+01   -2.7774234772e+01
    4.6499771118e+01   -2.8014537811e+01
    4.6599819183e+01   -2.8255983353e+01
    4.6699741364e+01   -2.8498565674e+01
    4.6799781799e+01   -2.8742280960e+01
    4.6899738312e+01   -2.8987125397e+01
    4.6999809265e+01   -2.9233091354e+01
    4.7099800110e+01   -2.9480176926e+01
    4.7199771881e+01   -2.9728370667e+01
    4.7299758911e+01   -2.9977668762e+01
    4.7399841309e+01   -3.0228065491e+01
    4.7499759674e+01   -3.0479547501e+01
    4.7599830627e+01   -3.0732105255e+01
    4.7699798584e+01   -3.0985729218e+01
    4.7799800873e+01   -3.1240406036e+01
    4.7899730682e+01   -3.1496120453e+01
    4.7999820709e+01   -3.1752861023e+01
    4.8099781036e+01   -3.2010608673e+01
    4.8199790955e+01   -3.2269348145e+01
    4.8299728394e+01   -3.2529064178e+01
    4.8399810791e+01   -3.2789741516e+01
    4.8499771118e+01   -3.3051364899e+01
    4.8599800110e+01   -3.3313919067e+01
    4.8699710846e+01   -3.3577381134e+01
    4.8799819946e+01   -3.3841743469e+01
    4.8899810791e+01   -3.4106983185e+01
    4.8999790192e+01   -3.4373088837e+01
    4.9099788666e+01   -3.4640045166e+01
    4.9199821472e+01   -3.4907840729e+01
    4.9299758911e+01   -3.5176456451e+01
    4.9399761200e+01   -3.5445884705e+01
    4.9499809265e+01   -3.5716110229e+01
    4.9599800110e+01   -3.5987125397e+01
    4.9699729919e+01   -3.6258922577e+01
    4.9799709320e+01   -3.6531486511e+01
    4.9899730682e+01   -3.6804809570e+01
    4.9999790192e+01   -3.7078891754e+01
    5.0099708557e+01   -3.7353725433e+01
    5.0199790955e+01   -3.7629302979e+01
    5.0299781799e+01   -3.7905620575e+01
    5.0399749756e+01   -3.8182678223e+01
    5.0499771118e+01   -3.8460472107e+01
    5.0599689484e+01   -3.8739006042e+01
    5.0699771881e+01   -3.9018276215e+01
    5.0799770355e+01   -3.9298282623e+01
    5.0899780273e+01   -3.9579032898e+01
    5.0999790192e+01   -3.9860519409e+01
    5.1099708557e+01   -4.0142749786e+01
    5.1199729919e+01   -4.0425724030e+01
    5.1299739838e+01   -4.0709445953e+01
    5.1399700165e+01   -4.0993911743e+01
    5.1499691010e+01   -4.1279129028e+01
    5.1599700928e+01   -4.1565097809e+01
    5.1699760437e+01   -4.1851814270e+01
    5.1799678802e+01   -4.2139286041e+01
    5.1899719238e+01   -4.2427513123e+01
    5.1999729156e+01   -4.2716495514e+01
    5.2099689484e+01   -4.3006233215e+01
    5.2199729919e+01   -4.3296733856e+01
    5.2299678802e+01   -4.3587993622e+01
    5.2399719238e+01   -4.3880016327e+01
    5.2499679565e+01   -4.4172805786e+01
    5.2599758148e+01   -4.4466362000e+01
    5.2699699402e+01   -4.4760684967e+01
    5.2799671173e+01   -4.5055782318e+01
    5.2899681091e+01   -4.5351642609e+01
    5.2999649048e+01   -4.5648277283e+01
    5.3099708557e+01   -4.5945674896e+01
    5.3199691772e+01   -4.6243846893e+01
    5.3299678802e+01   -4.6542785645e+01
    5.3399688721e+01   -4.6842487335e+01
    5.3499710083e+01   -4.7142955780e+01
    5.3599681854e+01   -4.7444190979e+01
    5.3699748993e+01   -4.7746185303e+01
    5.3799648285e+01   -4.8048942566e+01
    5.3899738312e+01   -4.8352455139e+01
    5.3999729156e+01   -4.8656723022e+01
    5.4099639893e+01   -4.8961746216e+01
    5.4199680328e+01   -4.9267524719e+01
    5.4299701691e+01   -4.9574054718e+01
    5.4399639130e+01   -4.9881336212e+01
    5.4499691010e+01   -5.0189357758e+01
    5.4599670410e+01   -5.0498126984e+01
    5.4699630737e+01   -5.0807636261e+01
    5.4799720764e+01   -5.1117881775e+01
    5.4899730682e+01   -5.1428852081e+01
    5.4999721527e+01   -5.1740550995e+01
    5.5099658966e+01   -5.2052963257e+01
    5.5199680328e+01   -5.2366088867e+01
    5.5299720764e+01   -5.2679916382e+01
    5.5399688721e+01   -5.2994441986e+01
    5.5499660492e+01   -5.3309658051e+01
    5.5599681854e+01   -5.3625553131e+01
    5.5699710846e+01   -5.3942123413e+01
    5.5799678802e+01   -5.4259357452e+01
    5.5899711609e+01   -5.4577255249e+01
    5.5999660492e+01   -5.4895797729e+01
    5.6099609375e+01   -5.5214984894e+01
    5.6199600220e+01   -5.5534801483e+01
    5.6299659729e+01   -5.5855247498e+01
    5.6399688721e+01   -5.6176303864e+01
    5.6499668121e+01   -5.6497966766e+01
    5.6599601746e+01   -5.6820224762e+01
    5.6699619293e+01   -5.7143066406e+01
    5.6799629211e+01   -5.7466476440e+01
    5.6899608612e+01   -5.7790443420e+01
    5.6999698639e+01   -5.8114967346e+01
    5.7099620819e+01   -5.8440032959e+01
    5.7199680328e+01   -5.8765628815e+01
    5.7299678802e+01   -5.9091758728e+01
    5.7399650574e+01   -5.9418418884e+01
    5.7499629974e+01   -5.9745620728e+01
    5.7599639893e+01   -6.0073364258e+01
    5.7699619293e+01   -6.0401638031e+01
    5.7799610138e+01   -6.0730445862e+01
    5.7899589539e+01   -6.1059772491e+01
    5.7999568939e+01   -6.1389598846e+01
    5.8099609375e+01   -6.1719913483e+01
    5.8199668884e+01   -6.2050689697e+01
    5.8299621582e+01   -6.2381916046e+01
    5.8399578094e+01   -6.2713584900e+01
    5.8499641418e+01   -6.3045696259e+01
    5.8599601746e+01   -6.3378242493e+01
    5.8699569702e+01   -6.3711223602e+01
    5.8799579620e+01   -6.4044647217e+01
    5.8899589539e+01   -6.4378509521e+01
    5.8999618530e+01   -6.4712821960e+01
    5.9099590302e+01   -6.5047569275e+01
    5.9199619293e+01   -6.5382766724e+01
    5.9299640656e+01   -6.5718406677e+01
    5.9399559021e+01   -6.6054473877e+01
    5.9499610901e+01   -6.6390953064e+01
    5.9599651337e+01   -6.6727844238e+01
    5.9699588776e+01   -6.7065155029e+01
    5.9799549103e+01   -6.7402877808e+01
    5.9899650574e+01   -6.7741027832e+01
    5.9999599457e+01   -6.8079612732e+01
    6.0099559784e+01   -6.8418624878e+01
    6.0199588776e+01   -6.8758087158e+01
    6.0299640656e+01   -6.9097999573e+01
    6.0399600983e+01   -6.9438369751e+01
    6.0499629974e+01   -6.9779197693e+01
    6.0599548340e+01   -7.0120491028e+01
    6.0699630737e+01   -7.0462226868e+01
    6.0799629211e+01   -7.0804405212e+01
    6.0899620056e+01   -7.1147033691e+01
    6.0999538422e+01   -7.1490104675e+01
    6.1099628448e+01   -7.1833618164e+01
    6.1199600220e+01   -7.2177574158e+01
    6.1299541473e+01   -7.2521980286e+01
    6.1399600983e+01   -7.2866821289e+01
    6.1499538422e+01   -7.3212120056e+01
    6.1599628448e+01   -7.3557876587e+01
    6.1699539185e+01   -7.3904090881e+01
    6.1799579620e+01   -7.4250755310e+01
    6.1899589539e+01   -7.4597854614e+01
    6.1999561310e+01   -7.4945381165e+01
    6.2099548340e+01   -7.5293304443e+01
    6.2199619293e+01   -7.5641601562e+01
    6.2299549103e+01   -7.5990249634e+01
    6.2399620056e+01   -7.6339218140e+01
    6.2499519348e+01   -7.6688484192e+01
    6.2599529266e+01   -7.7038032532e+01
    6.2699581146e+01   -7.7387855530e+01
    6.2799549103e+01   -7.7737945557e+01
    6.2899490356e+01   -7.8088325500e+01
    6.2999568939e+01   -7.8438987732e+01
    6.3099571228e+01   -7.8789955139e+01
    6.3199539185e+01   -7.9141250610e+01
    6.3299549103e+01   -7.9492889404e+01
    6.3399501801e+01   -7.9844886780e+01
    6.3499530792e+01   -8.0197242737e+01
    6.3599540710e+01   -8.0549972534e+01
    6.3699550629e+01   -8.0903060913e+01
    6.3799568176e+01   -8.1256523132e+01
    6.3899490356e+01   -8.1610336304e+01
    6.3999538422e+01   -8.1964492798e+01
    6.4099487305e+01   -8.2319000244e+01
    6.4199508667e+01   -8.2673835754e+01
    6.4299583435e+01   -8.3029006958e+01
    6.4399490356e+01   -8.3384521484e+01
    6.4499488831e+01   -8.3740379333e+01
    6.4599578857e+01   -8.4096588135e+01
    6.4699569702e+01   -8.4453170776e+01
    6.4799560547e+01   -8.4810134888e+01
    6.4899467468e+01   -8.5167510986e+01
    6.4999496460e+01   -8.5525299072e+01
    6.5099571228e+01   -8.5883514404e+01
    6.5199546814e+01   -8.6242141724e+01
    6.5299476624e+01   -8.6601188660e+01
    6.5399566650e+01   -8.6960647583e+01
    6.5499519348e+01   -8.7320503235e+01
    6.5599456787e+01   -8.7680740356e+01
    6.5699493408e+01   -8.8041358948e+01
    6.5799468994e+01   -8.8402336121e+01
    6.5899467468e+01   -8.8763648987e+01
    6.5999557495e+01   -8.9125289917e+01
    6.6099563599e+01   -8.9487236023e+01
    6.6199478149e+01   -8.9849502563e+01
    6.6299530029e+01   -9.0212089539e+01
    6.6399482727e+01   -9.0575012207e+01
    6.6499511719e+01   -9.0938293457e+01
    6.6599510193e+01   -9.1301933289e+01
    6.6699447632e+01   -9.1665962219e+01
    6.6799491882e+01   -9.2030380249e+01
    6.6899497986e+01   -9.2395187378e+01
    6.6999458313e+01   -9.2760353088e+01
    6.7099472046e+01   -9.3125869751e+01
    6.7199516296e+01   -9.3491699219e+01
    6.7299499512e+01   -9.3857826233e+01
    6.7399528503e+01   -9.4224227905e+01
    6.7499443054e+01   -9.4590888977e+01
    6.7599487305e+01   -9.4957794189e+01
    6.7699501038e+01   -9.5324966431e+01
    6.7799430847e+01   -9.5692398071e+01
    6.7899459839e+01   -9.6060104370e+01
    6.7999443054e+01   -9.6428123474e+01
    6.8099441528e+01   -9.6796470642e+01
    6.8199417114e+01   -9.7165176392e+01
    6.8299530029e+01   -9.7534255981e+01
    6.8399436951e+01   -9.7903724670e+01
    6.8499450684e+01   -9.8273590088e+01
    6.8599449158e+01   -9.8643852234e+01
    6.8699447632e+01   -9.9014503479e+01
    6.8799453735e+01   -9.9385520935e+01
    6.8899421692e+01   -9.9756889343e+01
    6.8999443054e+01   -1.0012859344e+02
    6.9099403381e+01   -1.0050061798e+02
    6.9199478149e+01   -1.0087295532e+02
    6.9299438477e+01   -1.0124560547e+02
    6.9399421692e+01   -1.0161858368e+02
    6.9499473572e+01   -1.0199188995e+02
    6.9599456787e+01   -1.0236555481e+02
    6.9699462891e+01   -1.0273960114e+02
    6.9799392700e+01   -1.0311405945e+02
    6.9899482727e+01   -1.0348895264e+02
    6.9999397278e+01   -1.0386430359e+02
    7.0099472046e+01   -1.0424012756e+02
    7.0199478149e+01   -1.0461641693e+02
    7.0299476624e+01   -1.0499315643e+02
    7.0399383545e+01   -1.0537033081e+02
    7.0499427795e+01   -1.0574791718e+02
    7.0599456787e+01   -1.0612589264e+02
    7.0699462891e+01   -1.0650423431e+02
    7.0799430847e+01   -1.0688291168e+02
    7.0899459839e+01   -1.0726191711e+02
    7.0999397278e+01   -1.0764124298e+02
    7.1099411011e+01   -1.0802086639e+02
    7.1199462891e+01   -1.0840077972e+02
    7.1299407959e+01   -1.0878098297e+02
    7.1399436951e+01   -1.0916143799e+02
    7.1499420166e+01   -1.0954212952e+02
    7.1599441528e+01   -1.0992300415e+02
    7.1699417114e+01   -1.1030402374e+02
    7.1799438477e+01   -1.1068511963e+02
    7.1899452209e+01   -1.1106620789e+02
    7.1999366760e+01   -1.1144720459e+02
    7.2099418640e+01   -1.1182801056e+02
    7.2199363708e+01   -1.1220851135e+02
    7.2299346924e+01   -1.1258859253e+02
    7.2399398804e+01   -1.1296813202e+02
    7.2499412537e+01   -1.1334701538e+02
    7.2599403381e+01   -1.1372514343e+02
    7.2699378967e+01   -1.1410242462e+02
    7.2799438477e+01   -1.1447878265e+02
    7.2899383545e+01   -1.1485420227e+02
    7.2999397278e+01   -1.1522864532e+02
    7.3099403381e+01   -1.1560212708e+02
    7.3199371338e+01   -1.1597470093e+02
    7.3299392700e+01   -1.1634639740e+02
    7.3399429321e+01   -1.1671728516e+02
    7.3499366760e+01   -1.1708743286e+02
    7.3599380493e+01   -1.1745694733e+02
    7.3699333191e+01   -1.1782590485e+02
    7.3799392700e+01   -1.1819443512e+02
    7.3899421692e+01   -1.1856264496e+02
    7.3999382019e+01   -1.1893069458e+02
    7.4099357605e+01   -1.1929869843e+02
    7.4199417114e+01   -1.1966680145e+02
    7.4299339294e+01   -1.2003510284e+02
    7.4399406433e+01   -1.2040370941e+02
    7.4499313354e+01   -1.2077265930e+02
    7.4599418640e+01   -1.2114198303e+02
    7.4699333191e+01   -1.2151168060e+02
    7.4799392700e+01   -1.2188175201e+02
    7.4899330139e+01   -1.2225215149e+02
    7.4999366760e+01   -1.2262283325e+02
    7.5099418640e+01   -1.2299375153e+02
    7.5199409485e+01   -1.2336484528e+02
    7.5299400330e+01   -1.2373603821e+02
    7.5399360657e+01   -1.2410725403e+02
    7.5499382019e+01   -1.2447841644e+02
    7.5599327087e+01   -1.2484945679e+02
    7.5699348450e+01   -1.2522029114e+02
    7.5799392700e+01   -1.2559083557e+02
    7.5899391174e+01   -1.2596102905e+02
    7.5999290466e+01   -1.2633081055e+02
    7.6099372864e+01   -1.2670013428e+02
    7.6199302673e+01   -1.2706894684e+02
    7.6299392700e+01   -1.2743724060e+02
    7.6399299622e+01   -1.2780500031e+02
    7.6499382019e+01   -1.2817221069e+02
    7.6599380493e+01   -1.2853884888e+02
    7.6699386597e+01   -1.2890489197e+02
    7.6799278259e+01   -1.2927027893e+02
    7.6899368286e+01   -1.2963499451e+02
    7.6999366760e+01   -1.2999897766e+02
    7.7099388123e+01   -1.3036222839e+02
    7.7199386597e+01   -1.3072474670e+02
    7.7299316406e+01   -1.3108653259e+02
    7.7399307251e+01   -1.3144761658e+02
    7.7499320984e+01   -1.3180804443e+02
    7.7599296570e+01   -1.3216781616e+02
    7.7699272156e+01   -1.3252697754e+02
    7.7799339294e+01   -1.3288554382e+02
    7.7899307251e+01   -1.3324349976e+02
    7.7999328613e+01   -1.3360084534e+02
    7.8099357605e+01   -1.3395755005e+02
    7.8199333191e+01   -1.3431356812e+02
    7.8299346924e+01   -1.3466885376e+02
    7.8399261475e+01   -1.3502336121e+02
    7.8499351501e+01   -1.3537702942e+02
    7.8599273682e+01   -1.3572982788e+02
    7.8699363708e+01   -1.3608169556e+02
    7.8799301147e+01   -1.3643263245e+02
    7.8899330139e+01   -1.3678260803e+02
    7.8999336243e+01   -1.3713160706e+02
    7.9099327087e+01   -1.3747959900e+02
    7.9199363708e+01   -1.3782652283e+02
    7.9299293518e+01   -1.3817237854e+02
    7.9399246216e+01   -1.3851708984e+02
    7.9499259949e+01   -1.3886064148e+02
    7.9599258423e+01   -1.3920301819e+02
    7.9699348450e+01   -1.3954415894e+02
    7.9799308777e+01   -1.3988407898e+02
    7.9899269104e+01   -1.4022274780e+02
    7.9999313354e+01   -1.4056015015e+02
    8.0099327087e+01   -1.4089628601e+02
    8.0199272156e+01   -1.4123114014e+02
    8.0299278259e+01   -1.4156475830e+02
    8.0399322510e+01   -1.4189717102e+02
    8.0499320984e+01   -1.4222837830e+02
    8.0599311829e+01   -1.4255845642e+02
    8.0699272156e+01   -1.4288745117e+02
    8.0799240112e+01   -1.4321536255e+02
    8.0899269104e+01   -1.4354225159e+02
    8.0999313354e+01   -1.4386810303e+02
    8.1099258423e+01   -1.4419291687e+02
    8.1199241638e+01   -1.4451669312e+02
    8.1299301147e+01   -1.4483943176e+02
    8.1399307251e+01   -1.4516111755e+02
    8.1499259949e+01   -1.4548175049e+02
    8.1599311829e+01   -1.4580128479e+02
    8.1699317932e+01   -1.4611973572e+02
    8.1799301147e+01   -1.4643707275e+02
    8.1899291992e+01   -1.4675331116e+02
    8.1999206543e+01   -1.4706842041e+02
    8.2099281311e+01   -1.4738241577e+02
    8.2199218750e+01   -1.4769528198e+02
    8.2299278259e+01   -1.4800698853e+02
    8.2399230957e+01   -1.4831755066e+02
    8.2499313354e+01   -1.4862695312e+02
    8.2599220276e+01   -1.4893518066e+02
    8.2699287415e+01   -1.4924224854e+02
    8.2799263000e+01   -1.4954814148e+02
    8.2899208069e+01   -1.4985284424e+02
    8.2999206543e+01   -1.5015638733e+02
    8.3099273682e+01   -1.5045875549e+02
    8.3199203491e+01   -1.5075993347e+02
    8.3299217224e+01   -1.5105995178e+02
    8.3399276733e+01   -1.5135876465e+02
    8.3499191284e+01   -1.5165637207e+02
    8.3599250793e+01   -1.5195274353e+02
    8.3699279785e+01   -1.5224786377e+02
    8.3799263000e+01   -1.5254170227e+02
    8.3899200439e+01   -1.5283422852e+02
    8.3999282837e+01   -1.5312541199e+02
    8.4099273682e+01   -1.5341526794e+02
    8.4199226379e+01   -1.5370378113e+02
    8.4299171448e+01   -1.5399092102e+02
    8.4399192810e+01   -1.5427668762e+02
    8.4499206543e+01   -1.5456106567e+02
    8.4599227905e+01   -1.5484402466e+02
    8.4699272156e+01   -1.5512557983e+02
    8.4799263000e+01   -1.5540568542e+02
    8.4899276733e+01   -1.5568434143e+02
    8.4999221802e+01   -1.5596150208e+02
    8.5099243164e+01   -1.5623719788e+02
    8.5199157715e+01   -1.5651135254e+02
    8.5299247742e+01   -1.5678398132e+02
    8.5399246216e+01   -1.5705502319e+02
    8.5499237061e+01   -1.5732446289e+02
    8.5599220276e+01   -1.5759226990e+02
    8.5699241638e+01   -1.5785839844e+02
    8.5799148560e+01   -1.5812284851e+02
    8.5899169922e+01   -1.5838558960e+02
    8.5999198914e+01   -1.5864663696e+02
    8.6099227905e+01   -1.5890594482e+02
    8.6199172974e+01   -1.5916351318e+02
    8.6299186707e+01   -1.5941932678e+02
    8.6399177551e+01   -1.5967338562e+02
    8.6499153137e+01   -1.5992568970e+02
    8.6599151611e+01   -1.6017625427e+02
    8.6699188232e+01   -1.6042507935e+02
    8.6799156189e+01   -1.6067218018e+02
    8.6899223328e+01   -1.6091754150e+02
    8.6999191284e+01   -1.6116122437e+02
    8.7099212646e+01   -1.6140322876e+02
    8.7199142456e+01   -1.6164360046e+02
    8.7299217224e+01   -1.6188235474e+02
    8.7399223328e+01   -1.6211952209e+02
    8.7499198914e+01   -1.6235511780e+02
    8.7599212646e+01   -1.6258912659e+02
    8.7699127197e+01   -1.6282153320e+02
    8.7799133301e+01   -1.6305230713e+02
    8.7899147034e+01   -1.6328137207e+02
    8.7999168396e+01   -1.6350862122e+02
    8.8099182129e+01   -1.6373391724e+02
    8.8199188232e+01   -1.6395706177e+02
    8.8299186707e+01   -1.6417781067e+02
    8.8399116516e+01   -1.6439588928e+02
    8.8499153137e+01   -1.6461096191e+02
    8.8599197388e+01   -1.6482263184e+02
    8.8699172974e+01   -1.6503045654e+02
    8.8799209595e+01   -1.6523399353e+02
    8.8899177551e+01   -1.6543275452e+02
    8.8999168396e+01   -1.6562623596e+02
    8.9099166870e+01   -1.6581401062e+02
    8.9199127197e+01   -1.6599569702e+02
    8.9299118042e+01   -1.6617102051e+02
    8.9399116516e+01   -1.6633976746e+02
    8.9499183655e+01   -1.6650189209e+02
    8.9599136353e+01   -1.6665750122e+02
    8.9699111938e+01   -1.6680680847e+02
    8.9799186707e+01   -1.6695016479e+02
    8.9899116516e+01   -1.6708799744e+02
    8.9999183655e+01   -1.6722079468e+02
    9.0099121094e+01   -1.6734909058e+02
    9.0199142456e+01   -1.6747338867e+02
    9.0299171448e+01   -1.6759417725e+02
    9.0399093628e+01   -1.6771194458e+02
    9.0499153137e+01   -1.6782711792e+02
    9.0599159241e+01   -1.6794007874e+02
    9.0699180603e+01   -1.6805114746e+02
    9.0799148560e+01   -1.6816058350e+02
    9.0899162292e+01   -1.6826858521e+02
    9.0999069214e+01   -1.6837533569e+02
    9.1099151611e+01   -1.6848088074e+02
    9.1199172974e+01   -1.6858529663e+02
    9.1299087524e+01   -1.6868855286e+02
    9.1399147034e+01   -1.6879061890e+02
    9.1499153137e+01   -1.6889143372e+02
    9.1599166870e+01   -1.6899093628e+02
    9.1699150085e+01   -1.6908903503e+02
    9.1799057007e+01   -1.6918565369e+02
    9.1899108887e+01   -1.6928070068e+02
    9.1999153137e+01   -1.6937409973e+02
    9.2099090576e+01   -1.6946578979e+02
    9.2199157715e+01   -1.6955574036e+02
    9.2299156189e+01   -1.6964390564e+02
    9.2399116516e+01   -1.6973028564e+02
    9.2499069214e+01   -1.6981484985e+02
    9.2599136353e+01   -1.6989764404e+02
    9.2699150085e+01   -1.6997863770e+02
    9.2799102783e+01   -1.7005786133e+02
    9.2899116516e+01   -1.7013536072e+02
    9.2999061584e+01   -1.7021113586e+02
    9.3099121094e+01   -1.7028523254e+02
    9.3199073792e+01   -1.7035763550e+02
    9.3299118042e+01   -1.7042835999e+02
    9.3399116516e+01   -1.7049742126e+02
    9.3499107361e+01   -1.7056477356e+02
    9.3599113464e+01   -1.7063041687e+02
    9.3699073792e+01   -1.7069435120e+02
    9.3799102783e+01   -1.7075657654e+02
    9.3899070740e+01   -1.7081709290e+02
    9.3999046326e+01   -1.7087591553e+02
    9.4099128723e+01   -1.7093305969e+02
    9.4199028015e+01   -1.7098854065e+02
    9.4299049377e+01   -1.7104237366e+02
    9.4399093628e+01   -1.7109457397e+02
    9.4499061584e+01   -1.7114518738e+02
    9.4599082947e+01   -1.7119421387e+02
    9.4699043274e+01   -1.7124163818e+02
    9.4799049377e+01   -1.7128744507e+02
    9.4899078369e+01   -1.7133161926e+02
    9.4999107361e+01   -1.7137413025e+02
    9.5099029541e+01   -1.7141493225e+02
    9.5199081421e+01   -1.7145399475e+02
    9.5299003601e+01   -1.7149128723e+02
    9.5399047852e+01   -1.7152679443e+02
    9.5499031067e+01   -1.7156048584e+02
    9.5599082947e+01   -1.7159233093e+02
    9.5699050903e+01   -1.7162229919e+02
    9.5799049377e+01   -1.7165040588e+02
    9.5899101257e+01   -1.7167662048e+02
    9.5999031067e+01   -1.7170094299e+02
    9.6099037170e+01   -1.7172340393e+02
    9.6199043274e+01   -1.7174398804e+02
    9.6299087524e+01   -1.7176271057e+02
    9.6399070740e+01   -1.7177958679e+02
    9.6499031067e+01   -1.7179463196e+02
    9.6598999023e+01   -1.7180787659e+02
    9.6699043274e+01   -1.7181933594e+02
    9.6799079895e+01   -1.7182899475e+02
    9.6899002075e+01   -1.7183688354e+02
    9.6999046326e+01   -1.7184298706e+02
    9.7098991394e+01   -1.7184732056e+02
    9.7199028015e+01   -1.7184988403e+02
    9.7299057007e+01   -1.7185069275e+02
    9.7399047852e+01   -1.7184974670e+02
    9.7499038696e+01   -1.7184707642e+02
    9.7599060059e+01   -1.7184266663e+02
    9.7698966980e+01   -1.7183656311e+02
    9.7799003601e+01   -1.7182876587e+02
    9.7899017334e+01   -1.7181932068e+02
    9.7999008179e+01   -1.7180821228e+02
    9.8099052429e+01   -1.7179548645e+02
    9.8198982239e+01   -1.7178112793e+02
    9.8299003601e+01   -1.7176510620e+02
    9.8399040222e+01   -1.7174742126e+02
    9.8499061584e+01   -1.7172805786e+02
    9.8598991394e+01   -1.7170700073e+02
    9.8699058533e+01   -1.7168421936e+02
    9.8798973083e+01   -1.7165969849e+02
    9.8899040222e+01   -1.7163342285e+02
    9.8998992920e+01   -1.7160536194e+02
    9.9099029541e+01   -1.7157548523e+02
    9.9198966980e+01   -1.7154377747e+02
    9.9299026489e+01   -1.7151022339e+02
    9.9399009705e+01   -1.7147479248e+02
    9.9498947144e+01   -1.7143748474e+02
    9.9599029541e+01   -1.7139831543e+02
    9.9699012756e+01   -1.7135728455e+02
    9.9799018860e+01   -1.7131439209e+02
    9.9898941040e+01   -1.7126966858e+02
    9.9999031067e+01   -1.7122314453e+02
    1.0009899902e+02   -1.7117485046e+02
    1.0019889832e+02   -1.7112478638e+02
    1.0029900360e+02   -1.7107296753e+02
    1.0039900208e+02   -1.7101940918e+02
    1.0049900055e+02   -1.7096409607e+02
    1.0059899902e+02   -1.7090702820e+02
    1.0069899750e+02   -1.7084819031e+02
    1.0079900360e+02   -1.7078758240e+02
    1.0089900208e+02   -1.7072520447e+02
    1.0099900055e+02   -1.7066104126e+02
    1.0109899902e+02   -1.7059507751e+02
    1.0119899750e+02   -1.7052731323e+02
    1.0129900360e+02   -1.7045774841e+02
    1.0139890289e+02   -1.7038639832e+02
    1.0149890137e+02   -1.7031327820e+02
    1.0159899902e+02   -1.7023840332e+02
    1.0169889832e+02   -1.7016181946e+02
    1.0179900360e+02   -1.7008352661e+02
    1.0189900208e+02   -1.7000355530e+02
    1.0199900055e+02   -1.6992193604e+02
    1.0209899902e+02   -1.6983868408e+02
    1.0219899750e+02   -1.6975382996e+02
    1.0229900360e+02   -1.6966737366e+02
    1.0239900208e+02   -1.6957931519e+02
    1.0249890137e+02   -1.6948966980e+02
    1.0259889984e+02   -1.6939842224e+02
    1.0269889832e+02   -1.6930558777e+02
    1.0279889679e+02   -1.6921113586e+02
    1.0289890289e+02   -1.6911511230e+02
    1.0299900055e+02   -1.6901751709e+02
    1.0309889984e+02   -1.6891836548e+02
    1.0319899750e+02   -1.6881767273e+02
    1.0329900360e+02   -1.6871548462e+02
    1.0339900208e+02   -1.6861181641e+02
    1.0349890137e+02   -1.6850669861e+02
    1.0359899902e+02   -1.6840016174e+02
    1.0369889832e+02   -1.6829223633e+02
    1.0379889679e+02   -1.6818293762e+02
    1.0389890289e+02   -1.6807228088e+02
    1.0399900055e+02   -1.6796031189e+02
    1.0409889984e+02   -1.6784703064e+02
    1.0419899750e+02   -1.6773248291e+02
    1.0429889679e+02   -1.6761663818e+02
    1.0439900208e+02   -1.6749951172e+02
    1.0449890137e+02   -1.6738111877e+02
    1.0459889984e+02   -1.6726142883e+02
    1.0469889832e+02   -1.6714045715e+02
    1.0479889679e+02   -1.6701817322e+02
    1.0489890289e+02   -1.6689457703e+02
    1.0499890137e+02   -1.6676966858e+02
    1.0509889984e+02   -1.6664344788e+02
    1.0519889832e+02   -1.6651591492e+02
    1.0529889679e+02   -1.6638706970e+02
    1.0539890289e+02   -1.6625688171e+02
    1.0549890137e+02   -1.6612536621e+02
    1.0559889984e+02   -1.6599249268e+02
    1.0569889832e+02   -1.6585826111e+02
    1.0579889679e+02   -1.6572270203e+02
    1.0589890289e+02   -1.6558580017e+02
    1.0599890137e+02   -1.6544761658e+02
    1.0609889984e+02   -1.6530813599e+02
    1.0619879913e+02   -1.6516738892e+02
    1.0629889679e+02   -1.6502539062e+02
    1.0639890289e+02   -1.6488214111e+02
    1.0649890137e+02   -1.6473765564e+02
    1.0659889984e+02   -1.6459193420e+02
    1.0669879913e+02   -1.6444499207e+02
    1.0679889679e+02   -1.6429687500e+02
    1.0689880371e+02   -1.6414758301e+02
    1.0699890137e+02   -1.6399717712e+02
    1.0709889984e+02   -1.6384568787e+02
    1.0719889832e+02   -1.6369313049e+02
    1.0729889679e+02   -1.6353952026e+02
    1.0739880371e+02   -1.6338487244e+02
    1.0749890137e+02   -1.6322914124e+02
    1.0759889984e+02   -1.6307234192e+02
    1.0769889832e+02   -1.6291444397e+02
    1.0779889679e+02   -1.6275544739e+02
    1.0789880371e+02   -1.6259536743e+02
    1.0799890137e+02   -1.6243421936e+02
    1.0809889984e+02   -1.6227201843e+02
    1.0819889832e+02   -1.6210877991e+02
    1.0829889679e+02   -1.6194448853e+02
    1.0839880371e+02   -1.6177919006e+02
    1.0849890137e+02   -1.6161283875e+02
    1.0859880066e+02   -1.6144544983e+02
    1.0869889832e+02   -1.6127697754e+02
    1.0879889679e+02   -1.6110743713e+02
    1.0889890289e+02   -1.6093681335e+02
    1.0899890137e+02   -1.6076513672e+02
    1.0909880066e+02   -1.6059242249e+02
    1.0919879913e+02   -1.6041871643e+02
    1.0929889679e+02   -1.6024406433e+02
    1.0939880371e+02   -1.6006849670e+02
    1.0949880219e+02   -1.5989202881e+02
    1.0959880066e+02   -1.5971470642e+02
    1.0969889832e+02   -1.5953651428e+02
    1.0979879761e+02   -1.5935749817e+02
    1.0989890289e+02   -1.5917764282e+02
    1.0999880219e+02   -1.5899702454e+02
    1.1009889984e+02   -1.5881565857e+02
    1.1019889832e+02   -1.5863366699e+02
    1.1029889679e+02   -1.5845112610e+02
    1.1039880371e+02   -1.5826814270e+02
    1.1049880219e+02   -1.5808480835e+02
    1.1059880066e+02   -1.5790122986e+02
    1.1069889832e+02   -1.5771748352e+02
    1.1079879761e+02   -1.5753366089e+02
    1.1089880371e+02   -1.5734982300e+02
    1.1099880219e+02   -1.5716603088e+02
    1.1109880066e+02   -1.5698234558e+02
    1.1119879913e+02   -1.5679879761e+02
    1.1129879761e+02   -1.5661540222e+02
    1.1139880371e+02   -1.5643218994e+02
    1.1149880219e+02   -1.5624917603e+02
    1.1159880066e+02   -1.5606632996e+02
    1.1169879913e+02   -1.5588366699e+02
    1.1179879761e+02   -1.5570117188e+02
    1.1189880371e+02   -1.5551881409e+02
    1.1199870300e+02   -1.5533657837e+02
    1.1209880066e+02   -1.5515441895e+02
    1.1219879913e+02   -1.5497229004e+02
    1.1229879761e+02   -1.5479017639e+02
    1.1239880371e+02   -1.5460800171e+02
    1.1249880219e+02   -1.5442572021e+02
    1.1259880066e+02   -1.5424328613e+02
    1.1269879913e+02   -1.5406060791e+02
    1.1279879761e+02   -1.5387762451e+02
    1.1289869690e+02   -1.5369427490e+02
    1.1299880219e+02   -1.5351048279e+02
    1.1309880066e+02   -1.5332615662e+02
    1.1319879913e+02   -1.5314122009e+02
    1.1329879761e+02   -1.5295562744e+02
    1.1339880371e+02   -1.5276934814e+02
    1.1349870300e+02   -1.5258236694e+02
    1.1359880066e+02   -1.5239468384e+02
    1.1369879913e+02   -1.5220634460e+02
    1.1379879761e+02   -1.5201742554e+02
    1.1389880371e+02   -1.5182798767e+02
    1.1399870300e+02   -1.5163810730e+02
    1.1409870148e+02   -1.5144786072e+02
    1.1419879913e+02   -1.5125735474e+02
    1.1429879761e+02   -1.5106665039e+02
    1.1439880371e+02   -1.5087579346e+02
    1.1449870300e+02   -1.5068486023e+02
    1.1459880066e+02   -1.5049389648e+02
    1.1469869995e+02   -1.5030296326e+02
    1.1479869843e+02   -1.5011204529e+02
    1.1489880371e+02   -1.4992120361e+02
    1.1499880219e+02   -1.4973043823e+02
    1.1509870148e+02   -1.4953976440e+02
    1.1519869995e+02   -1.4934918213e+02
    1.1529879761e+02   -1.4915872192e+02
    1.1539880371e+02   -1.4896835327e+02
    1.1549870300e+02   -1.4877809143e+02
    1.1559880066e+02   -1.4858792114e+02
    1.1569869995e+02   -1.4839785767e+02
    1.1579879761e+02   -1.4820790100e+02
    1.1589869690e+02   -1.4801805115e+02
    1.1599870300e+02   -1.4782836914e+02
    1.1609880066e+02   -1.4763885498e+02
    1.1619869995e+02   -1.4744958496e+02
    1.1629869843e+02   -1.4726058960e+02
    1.1639869690e+02   -1.4707192993e+02
    1.1649870300e+02   -1.4688369751e+02
    1.1659870148e+02   -1.4669595337e+02
    1.1669879913e+02   -1.4650875854e+02
    1.1679869843e+02   -1.4632220459e+02
    1.1689880371e+02   -1.4613632202e+02
    1.1699870300e+02   -1.4595118713e+02
    1.1709880066e+02   -1.4576681519e+02
    1.1719869995e+02   -1.4558322144e+02
    1.1729869843e+02   -1.4540039062e+02
    1.1739869690e+02   -1.4521829224e+02
    1.1749870300e+02   -1.4503688049e+02
    1.1759880066e+02   -1.4485607910e+02
    1.1769869995e+02   -1.4467587280e+02
    1.1779869843e+02   -1.4449620056e+02
    1.1789869690e+02   -1.4431698608e+02
    1.1799870300e+02   -1.4413821411e+02
    1.1809870148e+02   -1.4395979309e+02
    1.1819869995e+02   -1.4378169250e+02
    1.1829869843e+02   -1.4360386658e+02
    1.1839869690e+02   -1.4342625427e+02
    1.1849870300e+02   -1.4324877930e+02
    1.1859870148e+02   -1.4307141113e+02
    1.1869869995e+02   -1.4289407349e+02
    1.1879869843e+02   -1.4271673584e+02
    1.1889869690e+02   -1.4253938293e+02
    1.1899870300e+02   -1.4236196899e+02
    1.1909870148e+02   -1.4218447876e+02
    1.1919860077e+02   -1.4200694275e+02
    1.1929859924e+02   -1.4182934570e+02
    1.1939869690e+02   -1.4165173340e+02
    1.1949870300e+02   -1.4147410583e+02
    1.1959870148e+02   -1.4129652405e+02
    1.1969869995e+02   -1.4111903381e+02
    1.1979869843e+02   -1.4094165039e+02
    1.1989869690e+02   -1.4076448059e+02
    1.1999859619e+02   -1.4058753967e+02
    1.2009870148e+02   -1.4041093445e+02
    1.2019869995e+02   -1.4023474121e+02
    1.2029869843e+02   -1.4005906677e+02
    1.2039869690e+02   -1.3988398743e+02
    1.2049859619e+02   -1.3970957947e+02
    1.2059870148e+02   -1.3953590393e+02
    1.2069869995e+02   -1.3936302185e+02
    1.2079859924e+02   -1.3919093323e+02
    1.2089869690e+02   -1.3901965332e+02
    1.2099859619e+02   -1.3884915161e+02
    1.2109870148e+02   -1.3867939758e+02
    1.2119860077e+02   -1.3851031494e+02
    1.2129859924e+02   -1.3834185791e+02
    1.2139869690e+02   -1.3817396545e+02
    1.2149859619e+02   -1.3800656128e+02
    1.2159860229e+02   -1.3783956909e+02
    1.2169860077e+02   -1.3767295837e+02
    1.2179859924e+02   -1.3750666809e+02
    1.2189869690e+02   -1.3734066772e+02
    1.2199859619e+02   -1.3717492676e+02
    1.2209860229e+02   -1.3700947571e+02
    1.2219860077e+02   -1.3684429932e+02
    1.2229869843e+02   -1.3667941284e+02
    1.2239869690e+02   -1.3651487732e+02
    1.2249870300e+02   -1.3635073853e+02
    1.2259860229e+02   -1.3618708801e+02
    1.2269860077e+02   -1.3602398682e+02
    1.2279859924e+02   -1.3586151123e+02
    1.2289869690e+02   -1.3569970703e+02
    1.2299859619e+02   -1.3553865051e+02
    1.2309860229e+02   -1.3537837219e+02
    1.2319860077e+02   -1.3521885681e+02
    1.2329869843e+02   -1.3506010437e+02
    1.2339869690e+02   -1.3490209961e+02
    1.2349859619e+02   -1.3474479675e+02
    1.2359860229e+02   -1.3458811951e+02
    1.2369860077e+02   -1.3443202209e+02
    1.2379859924e+02   -1.3427645874e+02
    1.2389859772e+02   -1.3412132263e+02
    1.2399859619e+02   -1.3396659851e+02
    1.2409860229e+02   -1.3381221008e+02
    1.2419860077e+02   -1.3365812683e+02
    1.2429859924e+02   -1.3350431824e+02
    1.2439859772e+02   -1.3335078430e+02
    1.2449859619e+02   -1.3319750977e+02
    1.2459860229e+02   -1.3304455566e+02
    1.2469869995e+02   -1.3289192200e+02
    1.2479869843e+02   -1.3273968506e+02
    1.2489859772e+02   -1.3258789062e+02
    1.2499859619e+02   -1.3243656921e+02
    1.2509870148e+02   -1.3228582764e+02
    1.2519860077e+02   -1.3213568115e+02
    1.2529850006e+02   -1.3198617554e+02
    1.2539859772e+02   -1.3183737183e+02
    1.2549859619e+02   -1.3168925476e+02
    1.2559860229e+02   -1.3154185486e+02
    1.2569860077e+02   -1.3139515686e+02
    1.2579859924e+02   -1.3124909973e+02
    1.2589859772e+02   -1.3110368347e+02
    1.2599859619e+02   -1.3095884705e+02
    1.2609860229e+02   -1.3081454468e+02
    1.2619860077e+02   -1.3067074585e+02
    1.2629859924e+02   -1.3052738953e+02
    1.2639859772e+02   -1.3038444519e+02
    1.2649859619e+02   -1.3024186707e+02
    1.2659860229e+02   -1.3009963989e+02
    1.2669860077e+02   -1.2995777893e+02
    1.2679850006e+02   -1.2981628418e+02
    1.2689859772e+02   -1.2967517090e+02
    1.2699859619e+02   -1.2953450012e+02
    1.2709850311e+02   -1.2939428711e+02
    1.2719850159e+02   -1.2925457764e+02
    1.2729859924e+02   -1.2911540222e+02
    1.2739859772e+02   -1.2897682190e+02
    1.2749849701e+02   -1.2883886719e+02
    1.2759860229e+02   -1.2870155334e+02
    1.2769850159e+02   -1.2856494141e+02
    1.2779859924e+02   -1.2842900085e+02
    1.2789859772e+02   -1.2829374695e+02
    1.2799859619e+02   -1.2815916443e+02
    1.2809849548e+02   -1.2802517700e+02
    1.2819859314e+02   -1.2789176941e+02
    1.2829849243e+02   -1.2775888062e+02
    1.2839860535e+02   -1.2762647247e+02
    1.2849859619e+02   -1.2749450684e+02
    1.2859849548e+02   -1.2736293030e+02
    1.2869859314e+02   -1.2723170471e+02
    1.2879859924e+02   -1.2710081482e+02
    1.2889860535e+02   -1.2697023773e+02
    1.2899870300e+02   -1.2683997345e+02
    1.2909860229e+02   -1.2671002960e+02
    1.2919859314e+02   -1.2658042145e+02
    1.2929859924e+02   -1.2645117950e+02
    1.2939860535e+02   -1.2632234192e+02
    1.2949870300e+02   -1.2619393921e+02
    1.2959869385e+02   -1.2606599426e+02
    1.2969859314e+02   -1.2593856049e+02
    1.2979859924e+02   -1.2581167603e+02
    1.2989869690e+02   -1.2568537903e+02
    1.2999859619e+02   -1.2555970764e+02
    1.3009869385e+02   -1.2543470001e+02
    1.3019869995e+02   -1.2531038666e+02
    1.3029870605e+02   -1.2518676758e+02
    1.3039869690e+02   -1.2506382751e+02
    1.3049870300e+02   -1.2494154358e+02
    1.3059869385e+02   -1.2481989288e+02
    1.3069869995e+02   -1.2469882965e+02
    1.3079870605e+02   -1.2457830811e+02
    1.3089869690e+02   -1.2445828247e+02
    1.3099870300e+02   -1.2433872223e+02
    1.3109869385e+02   -1.2421958160e+02
    1.3119869995e+02   -1.2410085297e+02
    1.3129870605e+02   -1.2398252106e+02
    1.3139869690e+02   -1.2386458588e+02
    1.3149879456e+02   -1.2374706268e+02
    1.3159869385e+02   -1.2362997437e+02
    1.3169869995e+02   -1.2351335144e+02
    1.3179870605e+02   -1.2339722443e+02
    1.3189880371e+02   -1.2328163910e+02
    1.3199870300e+02   -1.2316664124e+02
    1.3209880066e+02   -1.2305227661e+02
    1.3219889832e+02   -1.2293859100e+02
    1.3229879761e+02   -1.2282561493e+02
    1.3239880371e+02   -1.2271337891e+02
    1.3249879456e+02   -1.2260188293e+02
    1.3259880066e+02   -1.2249110413e+02
    1.3269880676e+02   -1.2238102722e+02
    1.3279879761e+02   -1.2227160645e+02
    1.3289880371e+02   -1.2216280365e+02
    1.3299879456e+02   -1.2205455780e+02
    1.3309880066e+02   -1.2194683075e+02
    1.3319880676e+02   -1.2183958435e+02
    1.3329879761e+02   -1.2173278809e+02
    1.3339880371e+02   -1.2162643433e+02
    1.3349890137e+02   -1.2152049255e+02
    1.3359890747e+02   -1.2141498566e+02
    1.3369889832e+02   -1.2130989838e+02
    1.3379890442e+02   -1.2120524597e+02
    1.3389880371e+02   -1.2110105896e+02
    1.3399890137e+02   -1.2099736786e+02
    1.3409890747e+02   -1.2089420319e+02
    1.3419889832e+02   -1.2079161835e+02
    1.3429890442e+02   -1.2068964386e+02
    1.3439889526e+02   -1.2058831787e+02
    1.3449890137e+02   -1.2048765564e+02
    1.3459890747e+02   -1.2038766479e+02
    1.3469889832e+02   -1.2028834534e+02
    1.3479890442e+02   -1.2018966675e+02
    1.3489900208e+02   -1.2009160614e+02
    1.3499890137e+02   -1.1999411774e+02
    1.3509899902e+02   -1.1989716339e+02
    1.3519900513e+02   -1.1980069733e+02
    1.3529899597e+02   -1.1970468140e+02
    1.3539900208e+02   -1.1960909271e+02
    1.3549899292e+02   -1.1951390076e+02
    1.3559899902e+02   -1.1941909027e+02
    1.3569900513e+02   -1.1932463837e+02
    1.3579899597e+02   -1.1923053741e+02
    1.3589900208e+02   -1.1913679504e+02
    1.3599909973e+02   -1.1904341888e+02
    1.3609899902e+02   -1.1895043945e+02
    1.3619909668e+02   -1.1885788727e+02
    1.3629910278e+02   -1.1876580811e+02
    1.3639909363e+02   -1.1867425537e+02
    1.3649899292e+02   -1.1858326721e+02
    1.3659910583e+02   -1.1849291229e+02
    1.3669900513e+02   -1.1840324402e+02
    1.3679910278e+02   -1.1831429291e+02
    1.3689909363e+02   -1.1822610474e+02
    1.3699909973e+02   -1.1813865662e+02
    1.3709910583e+02   -1.1805194855e+02
    1.3719909668e+02   -1.1796595764e+02
    1.3729910278e+02   -1.1788064575e+02
    1.3739920044e+02   -1.1779598999e+02
    1.3749909973e+02   -1.1771196747e+02
    1.3759919739e+02   -1.1762852478e+02
    1.3769909668e+02   -1.1754566193e+02
    1.3779910278e+02   -1.1746335602e+02
    1.3789909363e+02   -1.1738159943e+02
    1.3799909973e+02   -1.1730039978e+02
    1.3809919739e+02   -1.1721978760e+02
    1.3819920349e+02   -1.1713979340e+02
    1.3829910278e+02   -1.1706044006e+02
    1.3839920044e+02   -1.1698177338e+02
    1.3849920654e+02   -1.1690384674e+02
    1.3859919739e+02   -1.1682669067e+02
    1.3869920349e+02   -1.1675033569e+02
    1.3879919434e+02   -1.1667476654e+02
    1.3889920044e+02   -1.1659997559e+02
    1.3899920654e+02   -1.1652591705e+02
    1.3909930420e+02   -1.1645253754e+02
    1.3919920349e+02   -1.1637978363e+02
    1.3929919434e+02   -1.1630759430e+02
    1.3939930725e+02   -1.1623590851e+02
    1.3949920654e+02   -1.1616465759e+02
    1.3959919739e+02   -1.1609379578e+02
    1.3969929504e+02   -1.1602326202e+02
    1.3979930115e+02   -1.1595301056e+02
    1.3989930725e+02   -1.1588303375e+02
    1.3999929810e+02   -1.1581330109e+02
    1.4009919739e+02   -1.1574382019e+02
    1.4019929504e+02   -1.1567460632e+02
    1.4029930115e+02   -1.1560571289e+02
    1.4039920044e+02   -1.1553717041e+02
    1.4049929810e+02   -1.1546903992e+02
    1.4059930420e+02   -1.1540136719e+02
    1.4069929504e+02   -1.1533423615e+02
    1.4079930115e+02   -1.1526769257e+02
    1.4089930725e+02   -1.1520178223e+02
    1.4099940491e+02   -1.1513655090e+02
    1.4109939575e+02   -1.1507199860e+02
    1.4119929504e+02   -1.1500813293e+02
    1.4129939270e+02   -1.1494492340e+02
    1.4139930725e+02   -1.1488232422e+02
    1.4149940491e+02   -1.1482030487e+02
    1.4159930420e+02   -1.1475880432e+02
    1.4169929504e+02   -1.1469777679e+02
    1.4179939270e+02   -1.1463719177e+02
    1.4189930725e+02   -1.1457701111e+02
    1.4199940491e+02   -1.1451722717e+02
    1.4209930420e+02   -1.1445780945e+02
    1.4219940186e+02   -1.1439877319e+02
    1.4229939270e+02   -1.1434008789e+02
    1.4239939880e+02   -1.1428177643e+02
    1.4249940491e+02   -1.1422383881e+02
    1.4259939575e+02   -1.1416629791e+02
    1.4269940186e+02   -1.1410916138e+02
    1.4279949951e+02   -1.1405245972e+02
    1.4289950562e+02   -1.1399622345e+02
    1.4299940491e+02   -1.1394045258e+02
    1.4309950256e+02   -1.1388515472e+02
    1.4319940186e+02   -1.1383032990e+02
    1.4329939270e+02   -1.1377598572e+02
    1.4339950562e+02   -1.1372210693e+02
    1.4349949646e+02   -1.1366870880e+02
    1.4359950256e+02   -1.1361579132e+02
    1.4369949341e+02   -1.1356335449e+02
    1.4379949951e+02   -1.1351142120e+02
    1.4389950562e+02   -1.1345999908e+02
    1.4399949646e+02   -1.1340910339e+02
    1.4409959412e+02   -1.1335873413e+02
    1.4419960022e+02   -1.1330891418e+02
    1.4429949951e+02   -1.1325962830e+02
    1.4439959717e+02   -1.1321087646e+02
    1.4449949646e+02   -1.1316264343e+02
    1.4459950256e+02   -1.1311492157e+02
    1.4469949341e+02   -1.1306771088e+02
    1.4479949951e+02   -1.1302099609e+02
    1.4489959717e+02   -1.1297476959e+02
    1.4499960327e+02   -1.1292903900e+02
    1.4509959412e+02   -1.1288378143e+02
    1.4519960022e+02   -1.1283901215e+02
    1.4529949951e+02   -1.1279473877e+02
    1.4539959717e+02   -1.1275095367e+02
    1.4549969482e+02   -1.1270766449e+02
    1.4559970093e+02   -1.1266486359e+02
    1.4569960022e+02   -1.1262254333e+02
    1.4579969788e+02   -1.1258069611e+02
    1.4589959717e+02   -1.1253931427e+02
    1.4599969482e+02   -1.1249839020e+02
    1.4609970093e+02   -1.1245793152e+02
    1.4619970703e+02   -1.1241793060e+02
    1.4629969788e+02   -1.1237841034e+02
    1.4639970398e+02   -1.1233936310e+02
    1.4649969482e+02   -1.1230079651e+02
    1.4659970093e+02   -1.1226271820e+02
    1.4669970703e+02   -1.1222512054e+02
    1.4679969788e+02   -1.1218799591e+02
    1.4689970398e+02   -1.1215132141e+02
    1.4699969482e+02   -1.1211509705e+02
    1.4709970093e+02   -1.1207931519e+02
    1.4719970703e+02   -1.1204395294e+02
    1.4729969788e+02   -1.1200901794e+02
    1.4739970398e+02   -1.1197451782e+02
    1.4749969482e+02   -1.1194046783e+02
    1.4759970093e+02   -1.1190688324e+02
    1.4769979858e+02   -1.1187379456e+02
    1.4779980469e+02   -1.1184121704e+02
    1.4789979553e+02   -1.1180917358e+02
    1.4799980164e+02   -1.1177766418e+02
    1.4809979248e+02   -1.1174669647e+02
    1.4819970703e+02   -1.1171628571e+02
    1.4829980469e+02   -1.1168643188e+02
    1.4839979553e+02   -1.1165711975e+02
    1.4849969482e+02   -1.1162834930e+02
    1.4859979248e+02   -1.1160012054e+02
    1.4869979858e+02   -1.1157242584e+02
    1.4879980469e+02   -1.1154525757e+02
    1.4889979553e+02   -1.1151860809e+02
    1.4899980164e+02   -1.1149247742e+02
    1.4909979248e+02   -1.1146684265e+02
    1.4919979858e+02   -1.1144168091e+02
    1.4929980469e+02   -1.1141697693e+02
    1.4939990234e+02   -1.1139267731e+02
    1.4949989319e+02   -1.1136878204e+02
    1.4959989929e+02   -1.1134525299e+02
    1.4969979858e+02   -1.1132209015e+02
    1.4979980469e+02   -1.1129927826e+02
    1.4989990234e+02   -1.1127683258e+02
    1.4999989319e+02   -1.1125475311e+02
    1.5009989929e+02   -1.1123307800e+02
    1.5019990540e+02   -1.1121182251e+02
    1.5029989624e+02   -1.1119100189e+02
    1.5039990234e+02   -1.1117062378e+02
    1.5050000000e+02   -1.1115068817e+02
    1.5059989929e+02   -1.1113118744e+02
    1.5069999695e+02   -1.1111211395e+02
    1.5080000305e+02   -1.1109346008e+02
    1.5089990234e+02   -1.1107521820e+02
    1.5099989319e+02   -1.1105737305e+02
    1.5110000610e+02   -1.1103994751e+02
    1.5119999695e+02   -1.1102294922e+02
    1.5130000305e+02   -1.1100641632e+02
    1.5139999390e+02   -1.1099036407e+02
    1.5150000000e+02   -1.1097481537e+02
    1.5160000610e+02   -1.1095978546e+02
    1.5169999695e+02   -1.1094528961e+02
    1.5180000305e+02   -1.1093130493e+02
    1.5189999390e+02   -1.1091783142e+02
    1.5200010681e+02   -1.1090483856e+02
    1.5210000610e+02   -1.1089231873e+02
    1.5219999695e+02   -1.1088025665e+02
    1.5230000305e+02   -1.1086864471e+02
    1.5240010071e+02   -1.1085749054e+02
    1.5250000000e+02   -1.1084679413e+02
    1.5260000610e+02   -1.1083658600e+02
    1.5270010376e+02   -1.1082688141e+02
    1.5280000305e+02   -1.1081769562e+02
    1.5290010071e+02   -1.1080903625e+02
    1.5300000000e+02   -1.1080091095e+02
    1.5310000610e+02   -1.1079331970e+02
    1.5320010376e+02   -1.1078626251e+02
    1.5330009460e+02   -1.1077973938e+02
    1.5340010071e+02   -1.1077376556e+02
    1.5350000000e+02   -1.1076833344e+02
    1.5360009766e+02   -1.1076344299e+02
    1.5370010376e+02   -1.1075910950e+02
    1.5380009460e+02   -1.1075533295e+02
    1.5390010071e+02   -1.1075210571e+02
    1.5400010681e+02   -1.1074942780e+02
    1.5410009766e+02   -1.1074728394e+02
    1.5420019531e+02   -1.1074564362e+02
    1.5430009460e+02   -1.1074448395e+02
    1.5440010071e+02   -1.1074376678e+02
    1.5450019836e+02   -1.1074349976e+02
    1.5460009766e+02   -1.1074363708e+02
    1.5470010376e+02   -1.1074419403e+02
    1.5480020142e+02   -1.1074516296e+02
    1.5490020752e+02   -1.1074655914e+02
    1.5500019836e+02   -1.1074839020e+02
    1.5510020447e+02   -1.1075066376e+02
    1.5520019531e+02   -1.1075339508e+02
    1.5530020142e+02   -1.1075657654e+02
    1.5540029907e+02   -1.1076020813e+02
    1.5550030518e+02   -1.1076426697e+02
    1.5560020447e+02   -1.1076873016e+02
    1.5570019531e+02   -1.1077359009e+02
    1.5580020142e+02   -1.1077882385e+02
    1.5590020752e+02   -1.1078442383e+02
    1.5600019836e+02   -1.1079038239e+02
    1.5610020447e+02   -1.1079669952e+02
    1.5620019531e+02   -1.1080339050e+02
    1.5630029297e+02   -1.1081047058e+02
    1.5640029907e+02   -1.1081795502e+02
    1.5650030518e+02   -1.1082585907e+02
    1.5660029602e+02   -1.1083419800e+02
    1.5670030212e+02   -1.1084297180e+02
    1.5680029297e+02   -1.1085218048e+02
    1.5690029907e+02   -1.1086180115e+02
    1.5700030518e+02   -1.1087181854e+02
    1.5710029602e+02   -1.1088221741e+02
    1.5720039368e+02   -1.1089299011e+02
    1.5730029297e+02   -1.1090411377e+02
    1.5740029907e+02   -1.1091559601e+02
    1.5750030518e+02   -1.1092744446e+02
    1.5760029602e+02   -1.1093967438e+02
    1.5770030212e+02   -1.1095230865e+02
    1.5780029297e+02   -1.1096538544e+02
    1.5790040588e+02   -1.1097891998e+02
    1.5800039673e+02   -1.1099295044e+02
    1.5810040283e+02   -1.1100749207e+02
    1.5820039368e+02   -1.1102256012e+02
    1.5830039978e+02   -1.1103816223e+02
    1.5840049744e+02   -1.1105430603e+02
    1.5850039673e+02   -1.1107099152e+02
    1.5860040283e+02   -1.1108823395e+02
    1.5870039368e+02   -1.1110603333e+02
    1.5880050659e+02   -1.1112440491e+02
    1.5890040588e+02   -1.1114335632e+02
    1.5900039673e+02   -1.1116289520e+02
    1.5910040283e+02   -1.1118304443e+02
    1.5920050049e+02   -1.1120378876e+02
    1.5930039978e+02   -1.1122513580e+02
    1.5940049744e+02   -1.1124704742e+02
    1.5950050354e+02   -1.1126951599e+02
    1.5960049438e+02   -1.1129252625e+02
    1.5970050049e+02   -1.1131606293e+02
    1.5980050659e+02   -1.1134011841e+02
    1.5990049744e+02   -1.1136470795e+02
    1.6000050354e+02   -1.1138983154e+02
    1.6010049438e+02   -1.1141548920e+02
    1.6020050049e+02   -1.1144169617e+02
    1.6030050659e+02   -1.1146845245e+02
    1.6040060425e+02   -1.1149574280e+02
    1.6050059509e+02   -1.1152356720e+02
    1.6060049438e+02   -1.1155189514e+02
    1.6070050049e+02   -1.1158072662e+02
    1.6080059814e+02   -1.1161005402e+02
    1.6090049744e+02   -1.1163986969e+02
    1.6100059509e+02   -1.1167017365e+02
    1.6110060120e+02   -1.1170098114e+02
    1.6120050049e+02   -1.1173229218e+02
    1.6130059814e+02   -1.1176410675e+02
    1.6140060425e+02   -1.1179642487e+02
    1.6150059509e+02   -1.1182923126e+02
    1.6160060120e+02   -1.1186252594e+02
    1.6170060730e+02   -1.1189630127e+02
    1.6180059814e+02   -1.1193054199e+02
    1.6190060425e+02   -1.1196526337e+02
    1.6200059509e+02   -1.1200047302e+02
    1.6210060120e+02   -1.1203617096e+02
    1.6220069885e+02   -1.1207238007e+02
    1.6230059814e+02   -1.1210912323e+02
    1.6240060425e+02   -1.1214640045e+02
    1.6250059509e+02   -1.1218422699e+02
    1.6260060120e+02   -1.1222261810e+02
    1.6270069885e+02   -1.1226157379e+02
    1.6280070496e+02   -1.1230107880e+02
    1.6290069580e+02   -1.1234112549e+02
    1.6300059509e+02   -1.1238169098e+02
    1.6310069275e+02   -1.1242277527e+02
    1.6320060730e+02   -1.1246436310e+02
    1.6330079651e+02   -1.1250643921e+02
    1.6340069580e+02   -1.1254901886e+02
    1.6350070190e+02   -1.1259207916e+02
    1.6360069275e+02   -1.1263564301e+02
    1.6370080566e+02   -1.1267967987e+02
    1.6380070496e+02   -1.1272419739e+02
    1.6390069580e+02   -1.1276917267e+02
    1.6400070190e+02   -1.1281460571e+02
    1.6410069275e+02   -1.1286048126e+02
    1.6420069885e+02   -1.1290679169e+02
    1.6430079651e+02   -1.1295354462e+02
    1.6440080261e+02   -1.1300072479e+02
    1.6450070190e+02   -1.1304834747e+02
    1.6460069275e+02   -1.1309641266e+02
    1.6470080566e+02   -1.1314492035e+02
    1.6480079651e+02   -1.1319387054e+02
    1.6490080261e+02   -1.1324328613e+02
    1.6500079346e+02   -1.1329316711e+02
    1.6510079956e+02   -1.1334351349e+02
    1.6520080566e+02   -1.1339431000e+02
    1.6530079651e+02   -1.1344556427e+02
    1.6540089417e+02   -1.1349724579e+02
    1.6550079346e+02   -1.1354932404e+02
    1.6560079956e+02   -1.1360176086e+02
    1.6570080566e+02   -1.1365450287e+02
    1.6580090332e+02   -1.1370749664e+02
    1.6590080261e+02   -1.1376068115e+02
    1.6600090027e+02   -1.1381398010e+02
    1.6610090637e+02   -1.1386733246e+02
    1.6620089722e+02   -1.1392065430e+02
    1.6630090332e+02   -1.1397387695e+02
    1.6640089417e+02   -1.1402690125e+02
    1.6650090027e+02   -1.1407965088e+02
    1.6660090637e+02   -1.1413202667e+02
    1.6670089722e+02   -1.1418392944e+02
    1.6680099487e+02   -1.1423526764e+02
    1.6690089417e+02   -1.1428595734e+02
    1.6700090027e+02   -1.1433592987e+02
    1.6710090637e+02   -1.1438509369e+02
    1.6720089722e+02   -1.1443341064e+02
    1.6730090332e+02   -1.1448082733e+02
    1.6740089417e+02   -1.1452732849e+02
    1.6750100708e+02   -1.1457292175e+02
    1.6760090637e+02   -1.1461763763e+02
    1.6770100403e+02   -1.1466151428e+02
    1.6780099487e+02   -1.1470462036e+02
    1.6790100098e+02   -1.1474703217e+02
    1.6800100708e+02   -1.1478884125e+02
    1.6810090637e+02   -1.1483014679e+02
    1.6820100403e+02   -1.1487104797e+02
    1.6830099487e+02   -1.1491166687e+02
    1.6840100098e+02   -1.1495211029e+02
    1.6850109863e+02   -1.1499248505e+02
    1.6860110474e+02   -1.1503288269e+02
    1.6870109558e+02   -1.1507342529e+02
    1.6880099487e+02   -1.1511418915e+02
    1.6890109253e+02   -1.1515528870e+02
    1.6900109863e+02   -1.1519680023e+02
    1.6910099792e+02   -1.1523880005e+02
    1.6920100403e+02   -1.1528134155e+02
    1.6930110168e+02   -1.1532447815e+02
    1.6940100098e+02   -1.1536820984e+02
    1.6950109863e+02   -1.1541253662e+02
    1.6960110474e+02   -1.1545740509e+02
    1.6970109558e+02   -1.1550276947e+02
    1.6980110168e+02   -1.1554853821e+02
    1.6990119934e+02   -1.1559461212e+02
    1.7000109863e+02   -1.1564087677e+02
    1.7010119629e+02   -1.1568719482e+02
    1.7020109558e+02   -1.1573341370e+02
    1.7030110168e+02   -1.1577940369e+02
    1.7040109253e+02   -1.1582502747e+02
    1.7050109863e+02   -1.1587014771e+02
    1.7060119629e+02   -1.1591463470e+02
    1.7070109558e+02   -1.1595839691e+02
    1.7080119324e+02   -1.1600135040e+02
    1.7090119934e+02   -1.1604343414e+02
    1.7100120544e+02   -1.1608459473e+02
    1.7110110474e+02   -1.1612482452e+02
    1.7120120239e+02   -1.1616410065e+02
    1.7130119324e+02   -1.1620245361e+02
    1.7140119934e+02   -1.1623987579e+02
    1.7150109863e+02   -1.1627639008e+02
    1.7160119629e+02   -1.1631201172e+02
    1.7170120239e+02   -1.1634671021e+02
    1.7180119324e+02   -1.1638049316e+02
    1.7190119934e+02   -1.1641335297e+02
    1.7200129700e+02   -1.1644526672e+02
    1.7210119629e+02   -1.1647620392e+02
    1.7220129395e+02   -1.1650619507e+02
    1.7230130005e+02   -1.1653524780e+02
    1.7240130615e+02   -1.1656341553e+02
    1.7250120544e+02   -1.1659075165e+02
    1.7260119629e+02   -1.1661733246e+02
    1.7270120239e+02   -1.1664323425e+02
    1.7280119324e+02   -1.1666850281e+02
    1.7290130615e+02   -1.1669317627e+02
    1.7300129700e+02   -1.1671725464e+02
    1.7310130310e+02   -1.1674073792e+02
    1.7320129395e+02   -1.1676358795e+02
    1.7330140686e+02   -1.1678575897e+02
    1.7340139771e+02   -1.1680717468e+02
    1.7350129700e+02   -1.1682774353e+02
    1.7360130310e+02   -1.1684738159e+02
    1.7370140076e+02   -1.1686598206e+02
    1.7380130005e+02   -1.1688346863e+02
    1.7390139771e+02   -1.1689974213e+02
    1.7400129700e+02   -1.1691476440e+02
    1.7410139465e+02   -1.1692847443e+02
    1.7420129395e+02   -1.1694081116e+02
    1.7430130005e+02   -1.1695174408e+02
    1.7440139771e+02   -1.1696121979e+02
    1.7450140381e+02   -1.1696917725e+02
    1.7460139465e+02   -1.1697557068e+02
    1.7470140076e+02   -1.1698037720e+02
    1.7480140686e+02   -1.1698360443e+02
    1.7490139771e+02   -1.1698524475e+02
    1.7500140381e+02   -1.1698532867e+02
    1.7510139465e+02   -1.1698386383e+02
    1.7520140076e+02   -1.1698088837e+02
    1.7530140686e+02   -1.1697643280e+02
    1.7540150452e+02   -1.1697054291e+02
    1.7550140381e+02   -1.1696327972e+02
    1.7560139465e+02   -1.1695472717e+02
    1.7570140076e+02   -1.1694493866e+02
    1.7580140686e+02   -1.1693398285e+02
    1.7590139771e+02   -1.1692188263e+02
    1.7600149536e+02   -1.1690868378e+02
    1.7610139465e+02   -1.1689437103e+02
    1.7620140076e+02   -1.1687895203e+02
    1.7630149841e+02   -1.1686238861e+02
    1.7640150452e+02   -1.1684465027e+02
    1.7650149536e+02   -1.1682569122e+02
    1.7660150146e+02   -1.1680546570e+02
    1.7670150757e+02   -1.1678392792e+02
    1.7680149841e+02   -1.1676101685e+02
    1.7690150452e+02   -1.1673669434e+02
    1.7700149536e+02   -1.1671086121e+02
    1.7710150146e+02   -1.1668344116e+02
    1.7720159912e+02   -1.1665435791e+02
    1.7730160522e+02   -1.1662351227e+02
    1.7740159607e+02   -1.1659083557e+02
    1.7750149536e+02   -1.1655626678e+02
    1.7760150146e+02   -1.1651980591e+02
    1.7770150757e+02   -1.1648144531e+02
    1.7780160522e+02   -1.1644121552e+02
    1.7790159607e+02   -1.1639919281e+02
    1.7800160217e+02   -1.1635546875e+02
    1.7810159302e+02   -1.1631020355e+02
    1.7820159912e+02   -1.1626361084e+02
    1.7830160522e+02   -1.1621599579e+02
    1.7840159607e+02   -1.1616772461e+02
    1.7850160217e+02   -1.1611925507e+02
    1.7860159302e+02   -1.1607113647e+02
    1.7870159912e+02   -1.1602395630e+02
    1.7880169678e+02   -1.1597837830e+02
    1.7890159607e+02   -1.1593508911e+02
    1.7900160217e+02   -1.1589481354e+02
    1.7910159302e+02   -1.1585823822e+02
    1.7920170593e+02   -1.1582602692e+02
    1.7930169678e+02   -1.1579872131e+02
    1.7940170288e+02   -1.1577671814e+02
    1.7950160217e+02   -1.1576017761e+02
    1.7960180664e+02   -1.1574897003e+02
    1.7970170593e+02   -1.1574254608e+02
    1.7980169678e+02   -1.1573985291e+02
    1.7990170288e+02   -1.1573928070e+02
endcurve
