Curveplot
LS-DYNA keyword deck by LS-PrePost
Yrot-displ
phi moment-stiffness
Joint Stiff
300001 #pts=1000
* Minval= -4.019485156250e+004 at time=      -2.918011188507
* Maxval=  8.332771484375e+003 at time=      -0.236471608281
-2.167759971528e-009 -3.091444075108e-002
-1.543039918062e-009 -3.658801317215e-002
-2.582664082595e-010 -3.880261629820e-002
 1.840460228664e-009 -3.514340147376e-002
 4.853775603664e-009 -2.282716520131e-002
 8.783454852335e-009  1.040174975060e-003
 1.349443046195e-008  4.003633186221e-002
 1.849335795612e-008  9.482328593731e-002
 2.304332369363e-008  1.646989136934e-001
 2.606966020835e-008  2.461815327406e-001
 2.618191707882e-008  3.338195383549e-001
 2.145038990875e-008  4.224171340466e-001
 1.058218579431e-008  4.989340007305e-001
-7.394325152177e-009  5.337551236153e-001
-3.258144687379e-008  4.892459511757e-001
-6.372086858164e-008  3.300915062428e-001
-9.722593574679e-008  8.804529905319e-003
-1.260403905690e-007 -5.159164071083e-001
-1.398496038973e-007 -1.288110136986e+000
-1.242696754389e-007 -2.333781719208e+000
-6.047327616443e-008 -3.653667688370e+000
 8.075993207513e-008 -5.241373062134e+000
 3.257987089000e-007 -7.046856403351e+000
 7.058441156005e-007 -9.019939422607e+000
 1.255016741197e-006 -1.110467147827e+001
 2.009216359511e-006 -1.325067901611e+001
 3.021560132765e-006 -1.542074680328e+001
 4.320412244851e-006 -1.758384513855e+001
 5.941657491348e-006 -1.971719932556e+001
 7.922285476525e-006 -2.180928230286e+001
 1.029857503454e-005 -2.386230468750e+001
 1.313116990787e-005 -2.588165855408e+001
 1.643717041588e-005 -2.787267494202e+001
 2.024512832577e-005 -2.984324455261e+001
 2.458967901475e-005 -3.180978965759e+001
 2.950034468086e-005 -3.378275299072e+001
 3.503967673169e-005 -3.575920867920e+001
 4.120985613554e-005 -3.772843933105e+001
 4.803796764463e-005 -3.968207931519e+001
 5.554150629905e-005 -4.159812164307e+001
 6.374873191817e-005 -4.344107818604e+001
 7.271449430846e-005 -4.514688110352e+001
 8.241903560702e-005 -4.664904022217e+001
 9.286615386372e-005 -4.787068939209e+001
 1.040514034685e-004 -4.872377395630e+001
 1.159632010967e-004 -4.912260818481e+001
 1.286131737288e-004 -4.896932220459e+001
 1.419398613507e-004 -4.824205780029e+001
 1.558838703204e-004 -4.693389511108e+001
 1.703864691081e-004 -4.504515457153e+001
 1.853630528785e-004 -4.258530807495e+001
 2.007446310017e-004 -3.954124450684e+001
 2.164087636629e-004 -3.595026779175e+001
 2.322205400560e-004 -3.183306694031e+001
 2.480704570189e-004 -2.718660354614e+001
 2.638021542225e-004 -2.202288436890e+001
 2.792587911244e-004 -1.633475875854e+001
 2.942688006442e-004 -1.016751194000e+001
 3.086557262577e-004 -3.556420803070e+000
 3.222357190680e-004  3.467257976532e+000
 3.348229802214e-004  1.088124847412e+001
 3.461419837549e-004  1.866377258301e+001
 3.560037293937e-004  2.679078865051e+001
 3.642013762146e-004  3.524154281616e+001
 3.705151320901e-004  4.400446319580e+001
 3.747098671738e-004  5.305884552002e+001
 3.764251596294e-004  6.240494537354e+001
 3.754621138796e-004  7.204177856445e+001
 3.716083883774e-004  8.192848968506e+001
 3.646048717201e-004  9.204657745361e+001
 3.541900950950e-004  1.023667373657e+002
 3.399154229555e-004  1.128770828247e+002
 3.215926990379e-004  1.235228500366e+002
 2.990078064613e-004  1.342610473633e+002
 2.718733740039e-004  1.450709991455e+002
 2.399349177722e-004  1.559170227051e+002
 2.026535512414e-004  1.667912597656e+002
 1.598419330548e-004  1.776540374756e+002
 1.113428588724e-004  1.884465484619e+002
 5.684332063538e-005  1.991324768066e+002
-3.918441507267e-006  2.096510467529e+002
-7.149520388339e-005  2.199200744629e+002
-1.460512139602e-004  2.298770751953e+002
-2.277585590491e-004  2.395010223389e+002
-3.168337279931e-004  2.487763824463e+002
-4.135616181884e-004  2.576965026855e+002
-5.185021436773e-004  2.662568664551e+002
-6.318052182905e-004  2.744645996094e+002
-7.535776239820e-004  2.823335571289e+002
-8.840021910146e-004  2.898587036133e+002
-1.023300108500e-003  2.970366516113e+002
-1.172197982669e-003  3.038704223633e+002
-1.330671599135e-003  3.103712463379e+002
-1.498719444498e-003  3.165711975098e+002
-1.676684943959e-003  3.224976501465e+002
-1.864702440798e-003  3.281769714355e+002
-2.063406398520e-003  3.336326599121e+002
-2.272955607623e-003  3.388946838379e+002
-2.493159146979e-003  3.439789123535e+002
-2.724365564063e-003  3.489000244141e+002
-2.966707106680e-003  3.536612854004e+002
-3.220846876502e-003  3.582590942383e+002
-3.486791392788e-003  3.626914672852e+002
-3.764651948586e-003  3.669710998535e+002
-4.054541233927e-003  3.711019592285e+002
-4.356478340924e-003  3.750960388184e+002
-4.671378061175e-003  3.789835815430e+002
-4.999347962439e-003  3.828061218262e+002
-5.340068135411e-003  3.866077270508e+002
-5.693927872926e-003  3.904234924316e+002
-6.061017047614e-003  3.942808227539e+002
-6.442180369049e-003  3.982044372559e+002
-6.837473716587e-003  4.022215881348e+002
-7.246678229421e-003  4.063639221191e+002
-7.670294493437e-003  4.106899414063e+002
-8.108135312796e-003  4.152770996094e+002
-8.561359718442e-003  4.202596740723e+002
-9.030171670020e-003  4.257861328125e+002
-9.514093399048e-003  4.319936218262e+002
-1.001368928701e-002  4.390578613281e+002
-1.052908413112e-002  4.471680908203e+002
-1.106112264097e-002  4.565950012207e+002
-1.161058619618e-002  4.675758361816e+002
-1.217669248581e-002  4.802597351074e+002
-1.276024989784e-002  4.947712707520e+002
-1.336137298495e-002  5.111011352539e+002
-1.398107036948e-002  5.290886840820e+002
-1.462000887841e-002  5.481539306641e+002
-1.527792960405e-002  5.673117675781e+002
-1.595516689122e-002  5.852172241211e+002
-1.665232703090e-002  6.000859985352e+002
-1.737027987838e-002  6.095518798828e+002
-1.810963265598e-002  6.109718017578e+002
-1.887039840221e-002  6.023026123047e+002
-1.965253241360e-002  5.819426879883e+002
-2.045657299459e-002  5.495184936523e+002
-2.128410153091e-002  5.063793945313e+002
-2.213463932276e-002  4.578368225098e+002
-2.300833538175e-002  4.134015808105e+002
-2.390526421368e-002  3.867795104980e+002
-2.482616528869e-002  3.965671691895e+002
-2.577172964811e-002  4.682265930176e+002
-2.674380503595e-002  6.320173339844e+002
-2.774179354310e-002  9.122644042969e+002
-2.876700460911e-002  1.330563232422e+003
-2.982169575989e-002  1.897152099609e+003
-3.090844117105e-002  2.606333984375e+003
-3.203070163727e-002  3.421888427734e+003
-3.319044783711e-002  4.284186523438e+003
-3.439029678702e-002  5.129465820313e+003
-3.563293814659e-002  5.891281738281e+003
-3.692238777876e-002  6.499924316406e+003
-3.826260194182e-002  6.897999511719e+003
-3.965159133077e-002  7.064571289063e+003
-4.109160974622e-002  6.995965820313e+003
-4.258229956031e-002  6.709671386719e+003
-4.412422329187e-002  6.244800292969e+003
-4.571672528982e-002  5.667516113281e+003
-4.735770076513e-002  5.045482421875e+003
-4.904368147254e-002  4.427141601563e+003
-5.077425017953e-002  3.847005615234e+003
-5.254853889346e-002  3.334156738281e+003
-5.436573922634e-002  2.911163330078e+003
-5.622339248657e-002  2.584226562500e+003
-5.812088027596e-002  2.355676513672e+003
-6.005712971091e-002  2.226458251953e+003
-6.203331798315e-002  2.198918457031e+003
-6.404944509268e-002  2.272916259766e+003
-6.610547751188e-002  2.437054687500e+003
-6.820237636566e-002  2.681308837891e+003
-7.034036517143e-002  2.993900390625e+003
-7.252125442028e-002  3.360948974609e+003
-7.474724948406e-002  3.760940429688e+003
-7.701974362135e-002  4.169293945313e+003
-7.933796197176e-002  4.566518066406e+003
-8.170412480831e-002  4.936618164063e+003
-8.412002772093e-002  5.260578125000e+003
-8.658886700869e-002  5.515915527344e+003
-8.910734206438e-002  5.692866699219e+003
-9.167766571045e-002  5.787174804688e+003
-9.429794549942e-002  5.797677246094e+003
-9.697189182043e-002  5.725711425781e+003
-9.969744086266e-002  5.584069824219e+003
-1.024725511670e-001  5.401855957031e+003
-1.052970588207e-001  5.207082031250e+003
-1.081705614924e-001  5.027403320313e+003
-1.110921949148e-001  4.892039062500e+003
-1.140656694770e-001  4.829979492188e+003
-1.170855388045e-001  4.853081054688e+003
-1.201531514525e-001  4.963689453125e+003
-1.232705861330e-001  5.156439941406e+003
-1.264400631189e-001  5.420354003906e+003
-1.296635270119e-001  5.736576660156e+003
-1.329410970211e-001  6.079174316406e+003
-1.362747699022e-001  6.430393066406e+003
-1.396676450968e-001  6.778014160156e+003
-1.431206166744e-001  7.110977050781e+003
-1.466389745474e-001  7.414580566406e+003
-1.502223610878e-001  7.678865722656e+003
-1.538710296154e-001  7.897937500000e+003
-1.575860977173e-001  8.067762207031e+003
-1.613717675209e-001  8.182341796875e+003
-1.652288287878e-001  8.235511718750e+003
-1.691564768553e-001  8.234765625000e+003
-1.731535494328e-001  8.189522460938e+003
-1.772211045027e-001  8.109463867188e+003
-1.813587993383e-001  8.005954101563e+003
-1.855710595846e-001  7.897987792969e+003
-1.898533999920e-001  7.806444335938e+003
-1.942029893398e-001  7.744800781250e+003
-1.986219435930e-001  7.721481445313e+003
-2.031118124723e-001  7.743347167969e+003
-2.076724916697e-001  7.813070800781e+003
-2.123002111912e-001  7.917078613281e+003
-2.169968485832e-001  8.038534179688e+003
-2.217611223459e-001  8.160250000000e+003
-2.265943139791e-001  8.264423828125e+003
-2.314988523722e-001  8.327521484375e+003
-2.364716082811e-001  8.332771484375e+003
-2.415105104446e-001  8.269512695313e+003
-2.466181069613e-001  8.132111328125e+003
-2.517929375172e-001  7.917292480469e+003
-2.570389509201e-001  7.625230468750e+003
-2.623471617699e-001  7.275946289063e+003
-2.677204906940e-001  6.889961914063e+003
-2.731591761112e-001  6.487790527344e+003
-2.786545753479e-001  6.089382324219e+003
-2.842204868793e-001  5.715254394531e+003
-2.898418009281e-001  5.382343261719e+003
-2.955223321915e-001  5.097645996094e+003
-3.012631237507e-001  4.862758300781e+003
-3.070611655712e-001  4.678645507813e+003
-3.129179775715e-001  4.550608886719e+003
-3.188348710537e-001  4.475276367188e+003
-3.248086273670e-001  4.449713378906e+003
-3.308377861977e-001  4.472844238281e+003
-3.369266092777e-001  4.546664550781e+003
-3.430766761303e-001  4.674156250000e+003
-3.492870926857e-001  4.846584960938e+003
-3.555553555489e-001  5.056140625000e+003
-3.618882596493e-001  5.294427246094e+003
-3.682799041271e-001  5.549186523438e+003
-3.747346699238e-001  5.802721679688e+003
-3.812575638294e-001  6.039295410156e+003
-3.878441751003e-001  6.248113281250e+003
-3.944938778877e-001  6.420757324219e+003
-4.012071788311e-001  6.548680175781e+003
-4.079965054989e-001  6.623084960938e+003
-4.148482978344e-001  6.647466308594e+003
-4.217670559883e-001  6.625179199219e+003
-4.287548065186e-001  6.559245605469e+003
-4.358080327511e-001  6.454475097656e+003
-4.429322779179e-001  6.318317382813e+003
-4.501253068447e-001  6.162239257813e+003
-4.573828876019e-001  5.992037109375e+003
-4.647043943405e-001  5.812143554688e+003
-4.720962643623e-001  5.628322265625e+003
-4.795498847961e-001  5.446383789063e+003
-4.870730340481e-001  5.267618164063e+003
-4.946582615376e-001  5.091193847656e+003
-5.023075938225e-001  4.917292968750e+003
-5.100176930428e-001  4.745174804688e+003
-5.177968144417e-001  4.569032714844e+003
-5.256350636482e-001  4.380733886719e+003
-5.335366129875e-001  4.175526367188e+003
-5.414966940880e-001  3.951689697266e+003
-5.495188832283e-001  3.707503417969e+003
-5.575960278511e-001  3.441078857422e+003
-5.657331943512e-001  3.156777343750e+003
-5.739207863808e-001  2.862958984375e+003
-5.821633934975e-001  2.566948242188e+003
-5.904543399811e-001  2.275614746094e+003
-5.988003015518e-001  1.998627807617e+003
-6.071922183037e-001  1.746782958984e+003
-6.156334877014e-001  1.528295410156e+003
-6.241152882576e-001  1.347766601563e+003
-6.326469779015e-001  1.207981689453e+003
-6.412204504013e-001  1.112650024414e+003
-6.498358249664e-001  1.055743408203e+003
-6.584912538528e-001  1.028055908203e+003
-6.671919226646e-001  1.020971557617e+003
-6.759352684021e-001  1.028867065430e+003
-6.847152113914e-001  1.047144409180e+003
-6.935397982597e-001  1.068705932617e+003
-7.024100422859e-001  1.088849365234e+003
-7.113178968430e-001  1.106540649414e+003
-7.202701568604e-001  1.121923217773e+003
-7.292615175247e-001  1.133085693359e+003
-7.383007407188e-001  1.138566284180e+003
-7.473794817924e-001  1.139655883789e+003
-7.565006017685e-001  1.138167358398e+003
-7.656646370888e-001  1.133882690430e+003
-7.748721241951e-001  1.125524047852e+003
-7.841278314590e-001  1.114467895508e+003
-7.934239506721e-001  1.102768798828e+003
-8.027603626251e-001  1.090474853516e+003
-8.121429681778e-001  1.076572998047e+003
-8.215676546097e-001  1.061778564453e+003
-8.310362100601e-001  1.048147827148e+003
-8.405500650406e-001  1.035682983398e+003
-8.501033782959e-001  1.023172485352e+003
-8.597011566162e-001  1.010659973145e+003
-8.693433403969e-001  9.995798950195e+002
-8.790245652199e-001  9.896583251953e+002
-8.887490630150e-001  9.791244506836e+002
-8.985110521317e-001  9.674841308594e+002
-9.083202481270e-001  9.555944824219e+002
-9.181642532349e-001  9.432789916992e+002
-9.280532598495e-001  9.287020874023e+002
-9.379767179489e-001  9.113157348633e+002
-9.479393362999e-001  8.921172485352e+002
-9.579399228096e-001  8.714856567383e+002
-9.679794311523e-001  8.481221923828e+002
-9.780470728874e-001  8.217553100586e+002
-9.881552457809e-001  7.937422485352e+002
-9.982949495316e-001  7.648612670898e+002
-1.008465886116e+000  7.343941650391e+002
-1.018667578697e+000  7.019037475586e+002
-1.028898119926e+000  6.690078125000e+002
-1.039163231850e+000  6.368301391602e+002
-1.049456715584e+000  6.050878906250e+002
-1.059781074524e+000  5.736366577148e+002
-1.070136308670e+000  5.441340332031e+002
-1.080512523651e+000  5.181260986328e+002
-1.090921401978e+000  4.952215881348e+002
-1.101350545883e+000  4.750523681641e+002
-1.111809372902e+000  4.585367431641e+002
-1.122289180756e+000  4.468646850586e+002
-1.132794618607e+000  4.389636535645e+002
-1.143323898315e+000  4.333539123535e+002
-1.153882384300e+000  4.300127868652e+002
-1.164456486702e+000  4.292085876465e+002
-1.175064563751e+000  4.296679077148e+002
-1.185687661171e+000  4.293219299316e+002
-1.196341276169e+000  4.278763732910e+002
-1.207014083862e+000  4.257215270996e+002
-1.217716097832e+000  4.221094970703e+002
-1.228444337845e+000  4.154698791504e+002
-1.239197731018e+000  4.059689331055e+002
-1.249978661537e+000  3.948653564453e+002
-1.260781764984e+000  3.822763061523e+002
-1.271609187126e+000  3.675356445313e+002
-1.282462120056e+000  3.511633605957e+002
-1.293345570564e+000  3.351937561035e+002
-1.304250001907e+000  3.205075378418e+002
-1.315178394318e+000  3.069344482422e+002
-1.326127648354e+000  2.951886596680e+002
-1.337096333504e+000  2.873799438477e+002
-1.348077654839e+000  2.845695800781e+002
-1.359079122543e+000  2.860880432129e+002
-1.370090842247e+000  2.918612060547e+002
-1.381124734879e+000  3.028345947266e+002
-1.392178773880e+000  3.194062500000e+002
-1.403249621391e+000  3.399676208496e+002
-1.414341449738e+000  3.631914062500e+002
-1.425458192825e+000  3.891751708984e+002
-1.436591863632e+000  4.175962829590e+002
-1.447738766670e+000  4.466470947266e+002
-1.458916068077e+000  4.744466247559e+002
-1.470102310181e+000  5.006530151367e+002
-1.481317639351e+000  5.249602050781e+002
-1.492554903030e+000  5.457129516602e+002
-1.503811836243e+000  5.609152221680e+002
-1.515095949173e+000  5.704434204102e+002
-1.526405215263e+000  5.748457031250e+002
-1.537732720375e+000  5.734220581055e+002
-1.549080371857e+000  5.653369750977e+002
-1.560440540314e+000  5.511418457031e+002
-1.571827411652e+000  5.325789184570e+002
-1.583231091499e+000  5.103590087891e+002
-1.594654083252e+000  4.844609069824e+002
-1.606098055840e+000  4.559440307617e+002
-1.617565989494e+000  4.266179504395e+002
-1.629049181938e+000  3.971403808594e+002
-1.640551209450e+000  3.670422058105e+002
-1.652072548866e+000  3.367378234863e+002
-1.663602113724e+000  3.075820617676e+002
-1.675151586533e+000  2.802441101074e+002
-1.686717391014e+000  2.544630584717e+002
-1.698299527168e+000  2.311916809082e+002
-1.709907293320e+000  2.130232543945e+002
-1.721534490585e+000  2.028313903809e+002
-1.733183979988e+000  2.036585998535e+002
-1.744855165482e+000  2.203173828125e+002
-1.756543159485e+000  2.589526062012e+002
-1.768249630928e+000  3.262828063965e+002
-1.779971241951e+000  4.275684814453e+002
-1.791716575623e+000  5.681104736328e+002
-1.803485274315e+000  7.505068359375e+002
-1.815280318260e+000  9.687880859375e+002
-1.827097177505e+000  1.208715209961e+003
-1.838947653770e+000  1.445145019531e+003
-1.850811362267e+000  1.637233886719e+003
-1.862701654434e+000  1.723446777344e+003
-1.874610185623e+000  1.631933959961e+003
-1.886535048485e+000  1.278164916992e+003
-1.898477196693e+000  5.746988525391e+002
-1.910432338715e+000 -5.672723388672e+002
-1.922398924828e+000 -2.209085449219e+003
-1.934368968010e+000 -4.318003906250e+003
-1.946341633797e+000 -6.795404296875e+003
-1.958298921585e+000 -9.445875000000e+003
-1.970228075981e+000 -1.200099707031e+004
-1.982120990753e+000 -1.414559960938e+004
-1.993968129158e+000 -1.562625292969e+004
-2.005765199661e+000 -1.625357714844e+004
-2.017506361008e+000 -1.596022656250e+004
-2.029196739197e+000 -1.481607031250e+004
-2.040839910507e+000 -1.304161718750e+004
-2.052447557449e+000 -1.094594238281e+004
-2.064023256302e+000 -8.770807617188e+003
-2.075588703156e+000 -6.687334472656e+003
-2.087148666382e+000 -4.830815917969e+003
-2.098724126816e+000 -3.331934082031e+003
-2.110317707062e+000 -2.250719238281e+003
-2.121932029724e+000 -1.598401977539e+003
-2.133566141129e+000 -1.363317993164e+003
-2.145209789276e+000 -1.552764282227e+003
-2.156869649887e+000 -2.169579345703e+003
-2.168532609940e+000 -3.136664794922e+003
-2.180190801620e+000 -4.376963867188e+003
-2.191830158234e+000 -5.825475585938e+003
-2.203459024429e+000 -7.428124023438e+003
-2.215053319931e+000 -9.085113281250e+003
-2.226618766785e+000 -1.067564453125e+004
-2.238152742386e+000 -1.210146875000e+004
-2.249657630920e+000 -1.328490625000e+004
-2.261125326157e+000 -1.414655273438e+004
-2.272549629211e+000 -1.461562500000e+004
-2.283936023712e+000 -1.471896582031e+004
-2.295283079147e+000 -1.453372656250e+004
-2.306591987610e+000 -1.417720312500e+004
-2.317862272263e+000 -1.379098437500e+004
-2.329100608826e+000 -1.355740136719e+004
-2.340301036835e+000 -1.363553613281e+004
-2.351464509964e+000 -1.412523339844e+004
-2.362580299377e+000 -1.505354882813e+004
-2.373646497726e+000 -1.639847265625e+004
-2.384661197662e+000 -1.809356445313e+004
-2.395618200302e+000 -1.998696289063e+004
-2.406517744064e+000 -2.191681250000e+004
-2.417361259460e+000 -2.371267187500e+004
-2.428133249283e+000 -2.519145703125e+004
-2.438831090927e+000 -2.615952343750e+004
-2.449463844299e+000 -2.652276367188e+004
-2.460024118423e+000 -2.625949218750e+004
-2.470515727997e+000 -2.544467187500e+004
-2.480936050415e+000 -2.423765625000e+004
-2.491293430328e+000 -2.287326953125e+004
-2.501590013504e+000 -2.160006640625e+004
-2.511825561523e+000 -2.058981250000e+004
-2.522007226944e+000 -1.994135156250e+004
-2.532124996185e+000 -1.969222460938e+004
-2.542183399200e+000 -1.982202734375e+004
-2.552180051804e+000 -2.021194921875e+004
-2.562117815018e+000 -2.074799804688e+004
-2.571989774704e+000 -2.132908007813e+004
-2.581798076630e+000 -2.187821679688e+004
-2.591537714005e+000 -2.234240429688e+004
-2.601215362549e+000 -2.272103710938e+004
-2.610826492310e+000 -2.304260742188e+004
-2.620372056961e+000 -2.334505273438e+004
-2.629851102829e+000 -2.366186328125e+004
-2.639256715775e+000 -2.402403710938e+004
-2.648599863052e+000 -2.444625195313e+004
-2.657868862152e+000 -2.492800781250e+004
-2.667070865631e+000 -2.546154296875e+004
-2.676192522049e+000 -2.603921093750e+004
-2.685241699219e+000 -2.665675000000e+004
-2.694208860397e+000 -2.729566406250e+004
-2.703096151352e+000 -2.793745117188e+004
-2.711905002594e+000 -2.856303125000e+004
-2.720635414124e+000 -2.914746875000e+004
-2.729277133942e+000 -2.965012695313e+004
-2.737827301025e+000 -3.004992187500e+004
-2.746292352676e+000 -3.033955078125e+004
-2.754664659500e+000 -3.051986132813e+004
-2.762945175171e+000 -3.059469921875e+004
-2.771119356155e+000 -3.057352734375e+004
-2.779200077057e+000 -3.048919726563e+004
-2.787181854248e+000 -3.036366406250e+004
-2.795065879822e+000 -3.020726757813e+004
-2.802852153778e+000 -3.001914843750e+004
-2.810534954071e+000 -2.978064843750e+004
-2.818126916885e+000 -2.946864648438e+004
-2.825625181198e+000 -2.907012695313e+004
-2.833037853241e+000 -2.859619335938e+004
-2.840363979340e+000 -2.808758203125e+004
-2.847588777542e+000 -2.762775976563e+004
-2.854711532593e+000 -2.732722656250e+004
-2.861718654633e+000 -2.730101562500e+004
-2.868588447571e+000 -2.765058203125e+004
-2.875281095505e+000 -2.844241992188e+004
-2.881749153137e+000 -2.972063867188e+004
-2.887953281403e+000 -3.140901171875e+004
-2.893847465515e+000 -3.339518750000e+004
-2.899396181107e+000 -3.551080078125e+004
-2.904576539993e+000 -3.753343359375e+004
-2.909376621246e+000 -3.916652343750e+004
-2.913838863373e+000 -4.012740234375e+004
-2.918011188507e+000 -4.019485156250e+004
-2.921942949295e+000 -3.929403906250e+004
-2.925683975220e+000 -3.756583984375e+004
-2.929269313812e+000 -3.537296875000e+004
-2.932746410370e+000 -3.328170312500e+004
-2.936140298843e+000 -3.177749609375e+004
-2.939463138580e+000 -3.113469140625e+004
-2.942723035812e+000 -3.135550585938e+004
-2.945910453796e+000 -3.220812890625e+004
-2.949024915695e+000 -3.321669921875e+004
-2.952059268951e+000 -3.393665625000e+004
-2.955002069473e+000 -3.406328515625e+004
-2.957849979401e+000 -3.352551171875e+004
-2.960594415665e+000 -3.247363867188e+004
-2.963237047195e+000 -3.127393750000e+004
-2.965779304504e+000 -3.026994140625e+004
-2.968224525452e+000 -2.971144921875e+004
-2.970573425293e+000 -2.969092578125e+004
-2.972823858261e+000 -3.012053320313e+004
-2.974978923798e+000 -3.072187109375e+004
-2.977039337158e+000 -3.123293750000e+004
-2.979003906250e+000 -3.147105468750e+004
-2.980873584747e+000 -3.137874414063e+004
-2.982644319534e+000 -3.104232421875e+004
-2.984321832657e+000 -3.068335937500e+004
-2.985909700394e+000 -3.050783007813e+004
-2.987408399582e+000 -3.065850976563e+004
-2.988816261292e+000 -3.117898437500e+004
-2.990126848221e+000 -3.199655859375e+004
-2.991338968277e+000 -3.290739453125e+004
-2.992451190948e+000 -3.372737109375e+004
-2.993461370468e+000 -3.432608984375e+004
-2.994367361069e+000 -3.463846093750e+004
-2.995162963867e+000 -3.466557421875e+004
-2.995852231979e+000 -3.451531640625e+004
-2.996437311172e+000 -3.430042187500e+004
-2.996919870377e+000 -3.409253906250e+004
-2.997301340103e+000 -3.391653906250e+004
-2.997578620911e+000 -3.373894921875e+004
-2.997754812241e+000 -3.346447265625e+004
-2.997832298279e+000 -3.300257812500e+004
-2.997811555862e+000 -3.231351562500e+004
-2.997694015503e+000 -3.142132812500e+004
-2.997477054596e+000 -3.041345117188e+004
-2.997165203094e+000 -2.946434960938e+004
-2.996762275696e+000 -2.874880468750e+004
-2.996267080307e+000 -2.839085156250e+004
-2.995678901672e+000 -2.843634960938e+004
-2.994991302490e+000 -2.884791796875e+004
-2.994204998016e+000 -2.945554101563e+004
-2.993319272995e+000 -3.005222460938e+004
-2.992331743240e+000 -3.045856835938e+004
-2.991240739822e+000 -3.056213476563e+004
-2.990041017532e+000 -3.033825976563e+004
-2.988734483719e+000 -2.989911914063e+004
-2.987325429916e+000 -2.941142382813e+004
-2.985816240311e+000 -2.903748046875e+004
-2.984209060669e+000 -2.889522851563e+004
-2.982500076294e+000 -2.903186523438e+004
-2.980690479279e+000 -2.937503320313e+004
-2.978782176971e+000 -2.979236328125e+004
-2.976774454117e+000 -3.014156640625e+004
-2.974666357040e+000 -3.030667578125e+004
-2.972452640533e+000 -3.023039453125e+004
-2.970139503479e+000 -2.995328710938e+004
-2.967728853226e+000 -2.956144140625e+004
-2.965224742889e+000 -2.914595507813e+004
-2.962627887726e+000 -2.877854101563e+004
-2.959937810898e+000 -2.848150195313e+004
-2.957154989243e+000 -2.821198242188e+004
-2.954283475876e+000 -2.790014453125e+004
-2.951323509216e+000 -2.747153320313e+004
-2.948276519775e+000 -2.686684960938e+004
-2.945137977600e+000 -2.606543750000e+004
-2.941913366318e+000 -2.511664843750e+004
-2.938606262207e+000 -2.410520703125e+004
-2.935220479965e+000 -2.312550390625e+004
-2.931759595871e+000 -2.226705664063e+004
-2.928221702576e+000 -2.160283984375e+004
-2.924610376358e+000 -2.116990039063e+004
-2.920927762985e+000 -2.097479296875e+004
-2.917171716690e+000 -2.100064843750e+004
-2.913344144821e+000 -2.119800195313e+004
-2.909441232681e+000 -2.149527343750e+004
-2.905462741852e+000 -2.180397460938e+004
-2.901410579681e+000 -2.204593554688e+004
-2.897283792496e+000 -2.216367773438e+004
-2.893081665039e+000 -2.212867187500e+004
-2.888802289963e+000 -2.193779492188e+004
-2.884447813034e+000 -2.161855664063e+004
-2.880020856857e+000 -2.121327929688e+004
-2.875526428223e+000 -2.076256250000e+004
-2.870961427689e+000 -2.030235351563e+004
-2.866326570511e+000 -1.986159765625e+004
-2.861624717712e+000 -1.946265429688e+004
-2.856862783432e+000 -1.912267578125e+004
-2.852040052414e+000 -1.885591015625e+004
-2.847159862518e+000 -1.866623828125e+004
-2.842216730118e+000 -1.854577929688e+004
-2.837208747864e+000 -1.847375976563e+004
-2.832144260406e+000 -1.841889453125e+004
-2.827019453049e+000 -1.833758398438e+004
-2.821834564209e+000 -1.817841015625e+004
-2.816591978073e+000 -1.789271679688e+004
-2.811290740967e+000 -1.744749609375e+004
-2.805926799774e+000 -1.682838281250e+004
-2.800501346588e+000 -1.603106054688e+004
-2.795027017593e+000 -1.507266503906e+004
-2.789494752884e+000 -1.398639160156e+004
-2.783916711807e+000 -1.281870312500e+004
-2.778288841248e+000 -1.161863281250e+004
-2.772616624832e+000 -1.043550976563e+004
-2.766907930374e+000 -9.322967773438e+003
-2.761163473129e+000 -8.335226562500e+003
-2.755401372910e+000 -7.513014160156e+003
-2.749630451202e+000 -6.873063476563e+003
-2.743854284286e+000 -6.427459960938e+003
-2.738082885742e+000 -6.176868652344e+003
-2.732319116592e+000 -6.108585449219e+003
-2.726566076279e+000 -6.187945800781e+003
-2.720822811127e+000 -6.367050781250e+003
-2.715089082718e+000 -6.599262695313e+003
-2.709360122681e+000 -6.830729492188e+003
-2.703640937805e+000 -7.005258789063e+003
-2.697919130325e+000 -7.081355468750e+003
-2.692191839218e+000 -7.048142089844e+003
-2.686453342438e+000 -6.907539550781e+003
-2.680693864822e+000 -6.675440917969e+003
-2.674914360046e+000 -6.380793945313e+003
-2.669096946716e+000 -6.055980468750e+003
-2.663240194321e+000 -5.714645019531e+003
-2.657347679138e+000 -5.353243164063e+003
-2.651418209076e+000 -4.968268066406e+003
-2.645457029343e+000 -4.561139160156e+003
-2.639479875565e+000 -4.129513671875e+003
-2.633489131927e+000 -3.667009521484e+003
-2.627489328384e+000 -3.174653076172e+003
-2.621489763260e+000 -2.666688720703e+003
-2.615496635437e+000 -2.160805175781e+003
-2.609502553940e+000 -1.668802978516e+003
-2.603517055511e+000 -1.202614379883e+003
-2.597537279129e+000 -7.831744995117e+002
-2.591562986374e+000 -4.305685424805e+002
-2.585593938828e+000 -1.527400360107e+002
-2.579628944397e+000  5.377016067505e+001
-2.573678493500e+000  1.961764831543e+002
-2.567739486694e+000  2.803717651367e+002
-2.561822652817e+000  3.214201660156e+002
-2.555937051773e+000  3.383323974609e+002
-2.550084114075e+000  3.414699401855e+002
-2.544271469116e+000  3.331065979004e+002
-2.538500547409e+000  3.183127136230e+002
-2.532773494720e+000  3.053125305176e+002
-2.527087688446e+000  2.959228210449e+002
-2.521430015564e+000  2.826829833984e+002
-2.515802383423e+000  2.620581359863e+002
-2.510196685791e+000  2.379849395752e+002
-2.504607677460e+000  2.140851593018e+002
-2.499030590057e+000  1.900097503662e+002
-2.493458747864e+000  1.684906005859e+002
-2.487887620926e+000  1.585174255371e+002
-2.482314109802e+000  1.660309295654e+002
-2.476734161377e+000  1.889294281006e+002
-2.471157550812e+000  2.224938201904e+002
-2.465578556061e+000  2.665906677246e+002
-2.460003376007e+000  3.207208557129e+002
-2.454436063766e+000  3.796897888184e+002
-2.448886632919e+000  4.371800537109e+002
-2.443360328674e+000  4.914185485840e+002
-2.437866449356e+000  5.428909301758e+002
-2.432417869568e+000  5.878832397461e+002
-2.427008867264e+000  6.216720581055e+002
-2.421645641327e+000  6.449326782227e+002
-2.416323900223e+000  6.624393920898e+002
-2.411041498184e+000  6.756731567383e+002
-2.405782461166e+000  6.825693359375e+002
-2.400547504425e+000  6.839260864258e+002
-2.395332574844e+000  6.835296630859e+002
-2.390128612518e+000  6.827519531250e+002
-2.384945631027e+000  6.797202758789e+002
-2.379780054092e+000  6.773941650391e+002
-2.374636173248e+000  6.838209228516e+002
-2.369527578354e+000  7.045813598633e+002
-2.364457130432e+000  7.383652954102e+002
-2.359431982040e+000  7.809354248047e+002
-2.354452133179e+000  8.292949829102e+002
-2.349506855011e+000  8.796301269531e+002
-2.344598531723e+000  9.247852783203e+002
-2.339719057083e+000  9.591198730469e+002
-2.334862947464e+000  9.832191772461e+002
-2.330024003983e+000  1.000562561035e+003
-2.325200319290e+000  1.010448791504e+003
-2.320393562317e+000  1.012310424805e+003
-2.315607547760e+000  1.010053283691e+003
-2.310842752457e+000  1.009542541504e+003
-2.306112289429e+000  1.011408874512e+003
-2.301413297653e+000  1.013838439941e+003
-2.296756744385e+000  1.017418212891e+003
-2.292138338089e+000  1.024079833984e+003
-2.287558794022e+000  1.032846069336e+003
-2.283012390137e+000  1.040725463867e+003
-2.278494119644e+000  1.047257080078e+003
-2.274000406265e+000  1.052720581055e+003
-2.269527673721e+000  1.055032836914e+003
-2.265074014664e+000  1.050528320313e+003
-2.260646343231e+000  1.039574829102e+003
-2.256239652634e+000  1.024059570313e+003
-2.251866102219e+000  1.004725341797e+003
-2.247521162033e+000  9.824224243164e+002
-2.243217945099e+000  9.618513793945e+002
-2.238954067230e+000  9.488501586914e+002
-2.234724760056e+000  9.452000732422e+002
-2.230530023575e+000  9.496011352539e+002
-2.226364612579e+000  9.607558593750e+002
-2.222222089767e+000  9.769431152344e+002
-2.218104124069e+000  9.925499267578e+002
-2.214003086090e+000  1.002588317871e+003
-2.209917783737e+000  1.006200195313e+003
-2.205852746964e+000  1.005262451172e+003
-2.201813459396e+000  9.999371948242e+002
-2.197796821594e+000  9.902720947266e+002
-2.193811416626e+000  9.792356567383e+002
-2.189858913422e+000  9.709716186523e+002
-2.185945987701e+000  9.669246215820e+002
-2.182072162628e+000  9.667017822266e+002
-2.178235292435e+000  9.719569091797e+002
-2.174432277679e+000  9.855520629883e+002
-2.170658111572e+000  1.007455688477e+003
-2.166909694672e+000  1.035331420898e+003
-2.163185834885e+000  1.068665771484e+003
-2.159485101700e+000  1.107913940430e+003
-2.155806064606e+000  1.151449951172e+003
-2.152155637741e+000  1.195866210938e+003
-2.148534774780e+000  1.239145019531e+003
-2.144955158234e+000  1.280970581055e+003
-2.141410350800e+000  1.319348022461e+003
-2.137907981873e+000  1.350564331055e+003
-2.134445667267e+000  1.373156738281e+003
-2.131019353867e+000  1.389133178711e+003
-2.127626180649e+000  1.400704956055e+003
-2.124260663986e+000  1.408555175781e+003
-2.120920419693e+000  1.413354248047e+003
-2.117604255676e+000  1.416250854492e+003
-2.114310979843e+000  1.416653808594e+003
-2.111044883728e+000  1.411750488281e+003
-2.107809066772e+000  1.401285278320e+003
-2.104606389999e+000  1.387645629883e+003
-2.101440191269e+000  1.372647949219e+003
-2.098311424255e+000  1.356645019531e+003
-2.095221757889e+000  1.341541625977e+003
-2.092163085938e+000  1.331854736328e+003
-2.089133501053e+000  1.330287719727e+003
-2.086127996445e+000  1.336690551758e+003
-2.083144664764e+000  1.351160766602e+003
-2.080182552338e+000  1.376577392578e+003
-2.077241659164e+000  1.412925048828e+003
-2.074321269989e+000  1.455862304688e+003
-2.071427106857e+000  1.500704956055e+003
-2.068559885025e+000  1.545754760742e+003
-2.065731763840e+000  1.590059692383e+003
-2.062945127487e+000  1.629628417969e+003
-2.060199022293e+000  1.661251953125e+003
-2.057493448257e+000  1.686494262695e+003
-2.054827213287e+000  1.708860107422e+003
-2.052196025848e+000  1.727052734375e+003
-2.049596309662e+000  1.735801025391e+003
-2.047028779984e+000  1.733628784180e+003
-2.044494628906e+000  1.722765014648e+003
-2.041992664337e+000  1.703420654297e+003
-2.039533615112e+000  1.671318969727e+003
-2.037116527557e+000  1.626338256836e+003
-2.034743785858e+000  1.573735595703e+003
-2.032413482666e+000  1.517862182617e+003
-2.030119895935e+000  1.459866699219e+003
-2.027860641479e+000  1.402453857422e+003
-2.025624513626e+000  1.353053222656e+003
-2.023410081863e+000  1.316739501953e+003
-2.021210432053e+000  1.293001464844e+003
-2.019023180008e+000  1.279421630859e+003
-2.016855001450e+000  1.276285766602e+003
-2.014704942703e+000  1.282421142578e+003
-2.012581110001e+000  1.292407104492e+003
-2.010487794876e+000  1.301083496094e+003
-2.008431673050e+000  1.308365356445e+003
-2.006412982941e+000  1.317648559570e+003
-2.004432916641e+000  1.329013671875e+003
-2.002485513687e+000  1.340165893555e+003
-2.000565528870e+000  1.351334716797e+003
-1.998669981956e+000  1.364125366211e+003
-1.996797442436e+000  1.376654174805e+003
-1.994946718216e+000  1.384527465820e+003
-1.993115782738e+000  1.388262207031e+003
-1.991306185722e+000  1.392037841797e+003
-1.989520907402e+000  1.397686401367e+003
-1.987760424614e+000  1.403243408203e+003
-1.986027836800e+000  1.409041625977e+003
-1.984321713448e+000  1.418526367188e+003
-1.982642412186e+000  1.431450561523e+003
-1.980989575386e+000  1.442779174805e+003
-1.979365825653e+000  1.448355224609e+003
-1.977772355080e+000  1.450332275391e+003
-1.976208448410e+000  1.450855834961e+003
-1.974674582481e+000  1.449510375977e+003
-1.973168969154e+000  1.447697998047e+003
-1.971693277359e+000  1.451654296875e+003
-1.970246672630e+000  1.465577636719e+003
-1.968826174736e+000  1.486394165039e+003
-1.967432618141e+000  1.509487548828e+003
-1.966068267822e+000  1.533346191406e+003
-1.964730501175e+000  1.557305053711e+003
-1.963420271873e+000  1.576768066406e+003
-1.962136507034e+000  1.587961791992e+003
-1.960878014565e+000  1.592749633789e+003
-1.959645986557e+000  1.595503173828e+003
-1.958441972733e+000  1.596931762695e+003
-1.957265377045e+000  1.595380371094e+003
-1.956114530563e+000  1.593308593750e+003
-1.954988479614e+000  1.595190795898e+003
-1.953886270523e+000  1.602309692383e+003
-1.952809333801e+000  1.612901245117e+003
-1.951759696007e+000  1.627196777344e+003
-1.950738072395e+000  1.646964965820e+003
-1.949746012688e+000  1.670480834961e+003
-1.948784232140e+000  1.692552978516e+003
-1.947855114937e+000  1.708876708984e+003
-1.946956515312e+000  1.718700439453e+003
-1.946088194847e+000  1.721530761719e+003
-1.945249080658e+000  1.716590332031e+003
-1.944438338280e+000  1.705938476563e+003
-1.943654894829e+000  1.694702880859e+003
-1.942896127701e+000  1.686204345703e+003
-1.942157864571e+000  1.679326171875e+003
-1.941439867020e+000  1.672765625000e+003
-1.940742731094e+000  1.667084472656e+003
-1.940068244934e+000  1.662664428711e+003
-1.939418673515e+000  1.657130981445e+003
-1.938794016838e+000  1.647566162109e+003
-1.938193440437e+000  1.632473388672e+003
-1.937615513802e+000  1.611716430664e+003
-1.937061786652e+000  1.586428588867e+003
-1.936532735825e+000  1.560550415039e+003
-1.936030268669e+000  1.539604980469e+003
-1.935556411743e+000  1.527617431641e+003
-1.935111641884e+000  1.525002441406e+003
-1.934696197510e+000  1.529242919922e+003
-1.934307456017e+000  1.537290771484e+003
-1.933944463730e+000  1.547549804688e+003
-1.933606863022e+000  1.559018798828e+003
-1.933296918869e+000  1.570701049805e+003
-1.933016657829e+000  1.582090087891e+003
-1.932767033577e+000  1.593195556641e+003
-1.932547330856e+000  1.603451904297e+003
-1.932357788086e+000  1.611533081055e+003
-1.932198643684e+000  1.616088867188e+003
-1.932071328163e+000  1.615721313477e+003
-1.931975841522e+000  1.608759399414e+003
-1.931910276413e+000  1.594608276367e+003
-1.931872129440e+000  1.574742431641e+003
-1.931859016418e+000  1.552665893555e+003
-1.931870102882e+000  1.532251342773e+003
-1.931905150414e+000  1.515925781250e+003
-1.931964516640e+000  1.504180053711e+003
-1.932048797607e+000  1.496864868164e+003
-1.932158231735e+000  1.493355957031e+003
-1.932292342186e+000  1.492650024414e+003
-1.932449102402e+000  1.493556640625e+003
-1.932626366615e+000  1.494912109375e+003
-1.932824015617e+000  1.495755126953e+003
-1.933042407036e+000  1.496151611328e+003
-1.933284282684e+000  1.497828613281e+003
-1.933551073074e+000  1.502700927734e+003
-1.933841943741e+000  1.510779907227e+003
-1.934155464172e+000  1.521674194336e+003
-1.934489965439e+000  1.535847656250e+003
-1.934845447540e+000  1.554084472656e+003
-1.935221910477e+000  1.575603759766e+003
-1.935620903969e+000  1.598448242188e+003
-1.936044931412e+000  1.621330810547e+003
-1.936496853828e+000  1.643086425781e+003
-1.936978816986e+000  1.661305786133e+003
-1.937492012978e+000  1.672611450195e+003
-1.938036203384e+000  1.675291381836e+003
-1.938611745834e+000  1.668241821289e+003
-1.939220309258e+000  1.650043457031e+003
-1.939862608910e+000  1.619796875000e+003
-1.940539717674e+000  1.580430297852e+003
-1.941247820854e+000  1.538198730469e+003
-1.941985845566e+000  1.497733398438e+003
-1.942753434181e+000  1.460175170898e+003
-1.943551301956e+000  1.427576416016e+003
-1.944380998611e+000  1.401750610352e+003
-1.945240259171e+000  1.384371215820e+003
-1.946129679680e+000  1.374452270508e+003
-1.947045803070e+000  1.371472900391e+003
-1.947990417480e+000  1.375640747070e+003
-1.948964476585e+000  1.385813354492e+003
-1.949965953827e+000  1.398166992188e+003
-1.950995564461e+000  1.409560424805e+003
-1.952052116394e+000  1.418378295898e+003
-1.953135728836e+000  1.422869873047e+003
-1.954247593880e+000  1.419765869141e+003
-1.955387592316e+000  1.407187500000e+003
-1.956557869911e+000  1.385346069336e+003
-1.957758903503e+000  1.355497314453e+003
-1.958991050720e+000  1.318507202148e+003
-1.960255861282e+000  1.275790893555e+003
-1.961548805237e+000  1.230756713867e+003
-1.962868928909e+000  1.187339233398e+003
-1.964218020439e+000  1.149963500977e+003
-1.965593576431e+000  1.124891723633e+003
-1.966998457909e+000  1.120995117188e+003
-1.968427896500e+000  1.144142089844e+003
-1.969881653786e+000  1.197348144531e+003
-1.971359729767e+000  1.280040527344e+003
-1.972863912582e+000  1.386472900391e+003
-1.974392294884e+000  1.497445922852e+003
-1.975947141647e+000  1.576389770508e+003
-1.977527856827e+000  1.573336914063e+003
-1.979133963585e+000  1.425639404297e+003
-1.980764269829e+000  1.053226928711e+003
-1.982415199280e+000  3.513966369629e+002
-1.984080314636e+000 -7.517599487305e+002
-1.985753655434e+000 -2.310842041016e+003
-1.987428784370e+000 -4.330126953125e+003
-1.989097595215e+000 -6.740557128906e+003
-1.990749835968e+000 -9.355789062500e+003
-1.992376327515e+000 -1.188449316406e+004
-1.993969798088e+000 -1.403045019531e+004
-1.995520830154e+000 -1.551929296875e+004
-1.997023582458e+000 -1.612578125000e+004
-1.998472332954e+000 -1.572182421875e+004
-1.999872565269e+000 -1.445190625000e+004
-2.001227855682e+000 -1.254689746094e+004
-2.002546548843e+000 -1.028631542969e+004
-2.003837347031e+000 -7.916778808594e+003
-2.005111217499e+000 -5.632808593750e+003
-2.006379365921e+000 -3.577445068359e+003
-2.007653474808e+000 -1.869305419922e+003
-2.008941888809e+000 -5.786020507813e+002
-2.010254859924e+000  2.840909118652e+002
-2.011598587036e+000  7.185467529297e+002
-2.012975931168e+000  7.409122924805e+002
-2.014384269714e+000  3.513400268555e+002
-2.015818595886e+000 -4.123780517578e+002
-2.017269372940e+000 -1.497716186523e+003
-2.018722772598e+000 -2.881601562500e+003
-2.020164966583e+000 -4.506483398438e+003
-2.021581649780e+000 -6.279860351563e+003
-2.022962093353e+000 -8.080003906250e+003
-2.024296045303e+000 -9.801249023438e+003
-2.025577306747e+000 -1.133831835938e+004
-2.026804924011e+000 -1.257953515625e+004
-2.027981758118e+000 -1.341267480469e+004
-2.029107332230e+000 -1.378567773438e+004
-2.030181646347e+000 -1.371185742188e+004
-2.031200885773e+000 -1.322763476563e+004
-2.032167196274e+000 -1.245087011719e+004
-2.033080577850e+000 -1.153309570313e+004
-2.033946275711e+000 -1.065709863281e+004
-2.034769535065e+000 -9.981711914063e+003
-2.035555124283e+000 -9.640416015625e+003
-2.036307573318e+000 -9.704682617188e+003
-2.037025213242e+000 -1.023534863281e+004
-2.037703275681e+000 -1.123449023438e+004
-2.038333654404e+000 -1.263122656250e+004
-2.038902759552e+000 -1.431449902344e+004
-2.039405584335e+000 -1.612985253906e+004
-2.039836168289e+000 -1.793414062500e+004
-2.040189981461e+000 -1.957173632813e+004
-2.040461063385e+000 -2.089984960938e+004
-2.040640354156e+000 -2.178465039063e+004
-2.040730953217e+000 -2.218353906250e+004
-2.040734052658e+000 -2.207467187500e+004
-2.040651559830e+000 -2.150195312500e+004
-2.040486574173e+000 -2.058267773438e+004
-2.040240526199e+000 -1.947904101563e+004
-2.039925336838e+000 -1.837832226563e+004
-2.039545774460e+000 -1.742545898438e+004
-2.039103984833e+000 -1.672313281250e+004
-2.038599729538e+000 -1.631370312500e+004
-2.038025617599e+000 -1.618758105469e+004
-2.037380933762e+000 -1.626881445313e+004
-2.036660909653e+000 -1.647624023438e+004
-2.035859346390e+000 -1.671463281250e+004
-2.034969568253e+000 -1.690818359375e+004
-2.033974647522e+000 -1.701132226563e+004
-2.032874822617e+000 -1.702416992188e+004
-2.031669855118e+000 -1.696836328125e+004
-2.030362606049e+000 -1.688818554688e+004
-2.028961896896e+000 -1.684087890625e+004
-2.027483701706e+000 -1.688140039063e+004
-2.025967359543e+000 -1.702544335938e+004
-2.024460077286e+000 -1.726728125000e+004
-2.023020744324e+000 -1.758069335938e+004
-2.021713972092e+000 -1.791888281250e+004
-2.020627260208e+000 -1.821931640625e+004
-2.019809722900e+000 -1.844041406250e+004
-2.019291400909e+000 -1.857163085938e+004
-2.019054412842e+000 -1.862646679688e+004
-2.019007444382e+000 -1.863627343750e+004
endcurve
