Curveplot
LS-DYNA keyword deck by LS-PrePost
Yrot-displ
phi moment-stiffness
Joint Stiff
300001 #pts=1000
* Minval= -1.309439257813e+004 at time=       0.145784765482
* Maxval=  2.709044335938e+004 at time=       1.087325334549
 5.159351834649e-010  3.731915727258e-002
-1.367997826129e-009  4.962216317654e-002
-4.117524099456e-009  5.997643619776e-002
-7.743087060419e-009  6.538455188274e-002
-1.210823707964e-008  6.198254600167e-002
-1.687202377809e-008  4.520370066166e-002
-2.134729371051e-008  8.670264855027e-003
-2.450083336214e-008 -5.129227414727e-002
-2.499059981176e-008 -1.374860852957e-001
-2.116421704557e-008 -2.492023259401e-001
-1.112013503501e-008 -3.775584697723e-001
 7.853487637988e-009 -4.988273680210e-001
 3.742463405842e-008 -5.846753716469e-001
 7.898094622760e-008 -6.083285808563e-001
 1.329053844756e-007 -5.315876603127e-001
 1.977446402179e-007 -2.993623614311e-001
 2.693408589494e-007  1.663642823696e-001
 3.384966760223e-007  9.127179980278e-001
 3.918538880043e-007  1.987385749817e+000
 4.104979893782e-007  3.424335241318e+000
 3.696460169067e-007  5.225682258606e+000
 2.305256998625e-007  7.370324134827e+000
-4.233852735069e-008  9.775649070740e+000
-4.907922743769e-007  1.238633537292e+001
-1.161090608548e-006  1.515250587463e+001
-2.102318831021e-006  1.801566505432e+001
-3.385976469872e-006  2.091611862183e+001
-5.050427262177e-006  2.380956840515e+001
-7.144201390474e-006  2.667354202271e+001
-9.718019100546e-006  2.948672485352e+001
-1.282067569264e-005  3.223111724854e+001
-1.653568688198e-005  3.490183639526e+001
-2.088558539981e-005  3.751140975952e+001
-2.591173506516e-005  4.006076049805e+001
-3.166053647874e-005  4.254512023926e+001
-3.817995821009e-005  4.496535873413e+001
-4.555442865239e-005  4.731518936157e+001
-5.380679431255e-005  4.957633972168e+001
-6.297171785263e-005  5.170386123657e+001
-7.309236389119e-005  5.364501571655e+001
-8.421909296885e-005  5.533887863159e+001
-9.644642705098e-005  5.667611694336e+001
-1.097826825571e-004  5.755035400391e+001
-1.242436992470e-004  5.784061813354e+001
-1.398593594786e-004  5.742155075073e+001
-1.566591381561e-004  5.616747665405e+001
-1.746957423165e-004  5.391816711426e+001
-1.939422509167e-004  5.064085388184e+001
-2.143586170860e-004  4.633916091919e+001
-2.359225618420e-004  4.102429580688e+001
-2.585813344922e-004  3.471070480347e+001
-2.823402755894e-004  2.735824775696e+001
-3.070718667004e-004  1.902934455872e+001
-3.326944715809e-004  9.752022743225e+000
-3.591141430661e-004 -4.669357538223e-001
-3.862148150802e-004 -1.161229133606e+001
-4.139082448091e-004 -2.369240951538e+001
-4.420419863891e-004 -3.662831115723e+001
-4.704404273070e-004 -5.034963226318e+001
-4.989621229470e-004 -6.483696746826e+001
-5.274463328533e-004 -8.003966522217e+001
-5.556882242672e-004 -9.592800140381e+001
-5.834853509441e-004 -1.124358978271e+002
-6.106801447459e-004 -1.295580596924e+002
-6.370442570187e-004 -1.472419891357e+002
-6.623624940403e-004 -1.654478759766e+002
-6.863605231047e-004 -1.841847686768e+002
-7.088251295500e-004 -2.034172363281e+002
-7.295346003957e-004 -2.230947570801e+002
-7.482590735890e-004 -2.432046966553e+002
-7.647379534319e-004 -2.636917114258e+002
-7.786038913764e-004 -2.845557556152e+002
-7.896297029220e-004 -3.057155761719e+002
-7.976016495377e-004 -3.271422729492e+002
-8.022527908906e-004 -3.487890014648e+002
-8.033112972043e-004 -3.706104125977e+002
-8.003248367459e-004 -3.926319580078e+002
-7.930871797726e-004 -4.147476196289e+002
-7.813947740942e-004 -4.368980102539e+002
-7.649759063497e-004 -4.590056152344e+002
-7.435695151798e-004 -4.809788818359e+002
-7.166538271122e-004 -5.027636718750e+002
-6.840602727607e-004 -5.242864990234e+002
-6.456382106990e-004 -5.455264282227e+002
-6.011383375153e-004 -5.664903564453e+002
-5.503270076588e-004 -5.871640014648e+002
-4.926875117235e-004 -6.075311279297e+002
-4.281002911739e-004 -6.275906982422e+002
-3.564784128685e-004 -6.473881225586e+002
-2.776024630293e-004 -6.669030151367e+002
-1.912914158311e-004 -6.861125488281e+002
-9.706179116620e-005 -7.049738769531e+002
 5.225505447015e-006 -7.235401611328e+002
 1.155000500148e-004 -7.418098754883e+002
 2.339913626201e-004 -7.598321533203e+002
 3.608675906435e-004 -7.776276855469e+002
 4.965842817910e-004 -7.952678222656e+002
 6.412855000235e-004 -8.128786010742e+002
 7.948111160658e-004 -8.305639648438e+002
 9.573051356710e-004 -8.484440917969e+002
 1.128916279413e-003 -8.666842041016e+002
 1.310280873440e-003 -8.855234375000e+002
 1.501269289292e-003 -9.051127929688e+002
 1.701787929051e-003 -9.255457153320e+002
 1.912083476782e-003 -9.468663940430e+002
 2.132258377969e-003 -9.690116577148e+002
 2.362834289670e-003 -9.917168579102e+002
 2.603790955618e-003 -1.014316833496e+003
 2.855043159798e-003 -1.035905395508e+003
 3.116713603958e-003 -1.055273681641e+003
 3.388824407011e-003 -1.070900390625e+003
 3.672091290355e-003 -1.080801513672e+003
 3.966372925788e-003 -1.083086425781e+003
 4.271488171071e-003 -1.076592285156e+003
 4.587473347783e-003 -1.060840698242e+003
 4.914299584925e-003 -1.036711425781e+003
 5.252370610833e-003 -1.007093261719e+003
 5.601472221315e-003 -9.786229858398e+002
 5.961521528661e-003 -9.611350708008e+002
 6.332270801067e-003 -9.680585937500e+002
 6.714205257595e-003 -1.016328063965e+003
 7.107942365110e-003 -1.128355468750e+003
 7.514002267271e-003 -1.326994995117e+003
 7.933013141155e-003 -1.628238647461e+003
 8.366204798222e-003 -2.042638183594e+003
 8.815451525152e-003 -2.569226562500e+003
 9.283212944865e-003 -3.195977050781e+003
 9.772567078471e-003 -3.893400146484e+003
 1.028545759618e-002 -4.621265625000e+003
 1.082474458963e-002 -5.336561035156e+003
 1.139320526272e-002 -5.995455566406e+003
 1.199444476515e-002 -6.554212402344e+003
 1.263133808970e-002 -6.977029785156e+003
 1.330389082432e-002 -7.245120117188e+003
 1.401360519230e-002 -7.349541015625e+003
 1.476159878075e-002 -7.294382812500e+003
 1.554821524769e-002 -7.094116210938e+003
 1.637318916619e-002 -6.782443359375e+003
 1.723452284932e-002 -6.407398437500e+003
 1.813045516610e-002 -6.016641601563e+003
 1.906062103808e-002 -5.655454589844e+003
 2.002371288836e-002 -5.365312988281e+003
 2.101871557534e-002 -5.180958007813e+003
 2.204528078437e-002 -5.120601562500e+003
 2.310184016824e-002 -5.194061035156e+003
 2.418947592378e-002 -5.398818847656e+003
 2.530915476382e-002 -5.723455078125e+003
 2.646275609732e-002 -6.144368164063e+003
 2.765085361898e-002 -6.626689941406e+003
 2.887530997396e-002 -7.137256835938e+003
 3.013811074197e-002 -7.644436523438e+003
 3.144098073244e-002 -8.119516601563e+003
 3.278818354011e-002 -8.537529296875e+003
 3.417927026749e-002 -8.882838867188e+003
 3.561482951045e-002 -9.143253906250e+003
 3.709711134434e-002 -9.311635742188e+003
 3.862697258592e-002 -9.382946289063e+003
 4.020577669144e-002 -9.358780273438e+003
 4.183131456375e-002 -9.252885742188e+003
 4.350455850363e-002 -9.082280273438e+003
 4.522451385856e-002 -8.870782226563e+003
 4.699018225074e-002 -8.647231445313e+003
 4.880327358842e-002 -8.444890625000e+003
 5.065979063511e-002 -8.291857421875e+003
 5.256090685725e-002 -8.210722656250e+003
 5.450548976660e-002 -8.217747070313e+003
 5.649413540959e-002 -8.322583007813e+003
 5.852826312184e-002 -8.524172851563e+003
 6.060709431767e-002 -8.805343750000e+003
 6.273259222507e-002 -9.147171875000e+003
 6.490509212017e-002 -9.527048828125e+003
 6.712762266397e-002 -9.922574218750e+003
 6.940222531557e-002 -1.031263183594e+004
 7.173019647598e-002 -1.068125488281e+004
 7.411184161901e-002 -1.101329785156e+004
 7.654932886362e-002 -1.129546386719e+004
 7.904516905546e-002 -1.151674707031e+004
 8.160081505775e-002 -1.167087207031e+004
 8.421635627747e-002 -1.176021777344e+004
 8.689152449369e-002 -1.178796875000e+004
 8.962635695934e-002 -1.176305468750e+004
 9.242466837168e-002 -1.170070410156e+004
 9.528421610594e-002 -1.162218847656e+004
 9.820625931025e-002 -1.155041796875e+004
 1.011893227696e-001 -1.150545410156e+004
 1.042335703969e-001 -1.150350683594e+004
 1.073392555118e-001 -1.155429687500e+004
 1.105089783669e-001 -1.165898730469e+004
 1.137427240610e-001 -1.180703906250e+004
 1.170373558998e-001 -1.198655566406e+004
 1.203978955746e-001 -1.218393554688e+004
 1.238206103444e-001 -1.238576953125e+004
 1.273129433393e-001 -1.258059863281e+004
 1.308723688126e-001 -1.275806250000e+004
 1.344975978136e-001 -1.290727539063e+004
 1.381899714470e-001 -1.301825488281e+004
 1.419506818056e-001 -1.308314746094e+004
 1.457847654819e-001 -1.309439257813e+004
 1.496843993664e-001 -1.304977343750e+004
 1.536533981562e-001 -1.294828417969e+004
 1.576894074678e-001 -1.279539941406e+004
 1.617936491966e-001 -1.260218750000e+004
 1.659674495459e-001 -1.238340625000e+004
 1.702080368996e-001 -1.215751953125e+004
 1.745126992464e-001 -1.194181738281e+004
 1.788812279701e-001 -1.175139941406e+004
 1.833120733500e-001 -1.159640917969e+004
 1.878104954958e-001 -1.148318945313e+004
 1.923677027225e-001 -1.141020800781e+004
 1.969893723726e-001 -1.137393457031e+004
 2.016707658768e-001 -1.136676660156e+004
 2.064164876938e-001 -1.137878027344e+004
 2.112247347832e-001 -1.140024902344e+004
 2.160940319300e-001 -1.142199023438e+004
 2.210281193256e-001 -1.143655566406e+004
 2.260212302208e-001 -1.143870214844e+004
 2.310775667429e-001 -1.142686718750e+004
 2.362002134323e-001 -1.140187304688e+004
 2.413865774870e-001 -1.136659082031e+004
 2.466331720352e-001 -1.132440039063e+004
 2.519426643848e-001 -1.128062011719e+004
 2.573159039021e-001 -1.124097656250e+004
 2.627512216568e-001 -1.121007128906e+004
 2.682519853115e-001 -1.119027929688e+004
 2.738147377968e-001 -1.118407519531e+004
 2.794373631477e-001 -1.119241015625e+004
 2.851218581200e-001 -1.121341015625e+004
 2.908729016781e-001 -1.124339941406e+004
 2.966867983341e-001 -1.127754003906e+004
 3.025644421577e-001 -1.131082031250e+004
 3.085043132305e-001 -1.133686328125e+004
 3.145046532154e-001 -1.134960156250e+004
 3.205741345882e-001 -1.134408984375e+004
 3.267067074776e-001 -1.131896777344e+004
 3.329003453255e-001 -1.127267871094e+004
 3.391606211662e-001 -1.120534765625e+004
 3.454822897911e-001 -1.111948242188e+004
 3.518714010715e-001 -1.101760937500e+004
 3.583213090897e-001 -1.090356738281e+004
 3.648347258568e-001 -1.078023339844e+004
 3.714085817337e-001 -1.065153710938e+004
 3.780421912670e-001 -1.052075683594e+004
 3.847421407700e-001 -1.038892773438e+004
 3.915014863014e-001 -1.025650488281e+004
 3.983216583729e-001 -1.012411816406e+004
 4.051969051361e-001 -9.992057617188e+003
 4.121349751949e-001 -9.859560546875e+003
 4.191329181194e-001 -9.726047851563e+003
 4.261888265610e-001 -9.591750976563e+003
 4.332979917526e-001 -9.456651367188e+003
 4.404634237289e-001 -9.319491210938e+003
 4.476879537106e-001 -9.178566406250e+003
 4.549659192562e-001 -9.032962890625e+003
 4.622973799706e-001 -8.882652343750e+003
 4.696776270866e-001 -8.727014648438e+003
 4.771141111851e-001 -8.564829101563e+003
 4.845995903015e-001 -8.396115234375e+003
 4.921350479126e-001 -8.220988281250e+003
 4.997204840183e-001 -8.040222656250e+003
 5.073547959328e-001 -7.854062988281e+003
 5.150365829468e-001 -7.663741210938e+003
 5.227586627007e-001 -7.471597167969e+003
 5.305314660072e-001 -7.279379394531e+003
 5.383438467979e-001 -7.088918945313e+003
 5.462008714676e-001 -6.902409179688e+003
 5.541033148766e-001 -6.722726562500e+003
 5.620449781418e-001 -6.552522949219e+003
 5.700267553329e-001 -6.394508300781e+003
 5.780465006828e-001 -6.249322265625e+003
 5.861108303070e-001 -6.118100585938e+003
 5.942091345787e-001 -6.001085937500e+003
 6.023510694504e-001 -5.896696289063e+003
 6.105272173882e-001 -5.803051757813e+003
 6.187400221825e-001 -5.716695312500e+003
 6.269931197166e-001 -5.634171875000e+003
 6.352801322937e-001 -5.551543945313e+003
 6.436011791229e-001 -5.464655761719e+003
 6.519650220871e-001 -5.369693847656e+003
 6.603572368622e-001 -5.264630859375e+003
 6.687854528427e-001 -5.147303710938e+003
 6.772465109825e-001 -5.016538085938e+003
 6.857345104218e-001 -4.872735839844e+003
 6.942588090897e-001 -4.717044433594e+003
 7.028155922890e-001 -4.552623046875e+003
 7.114008665085e-001 -4.382656250000e+003
 7.200132608414e-001 -4.211153320313e+003
 7.286520600319e-001 -4.042718261719e+003
 7.373191118240e-001 -3.881922363281e+003
 7.460147142410e-001 -3.730805175781e+003
 7.547376751900e-001 -3.590898437500e+003
 7.634813785553e-001 -3.463667968750e+003
 7.722520232201e-001 -3.349996582031e+003
 7.810440659523e-001 -3.251078857422e+003
 7.898645401001e-001 -3.166592773438e+003
 7.987043261528e-001 -3.096744140625e+003
 8.075692057610e-001 -3.040693115234e+003
 8.164528608322e-001 -2.996079345703e+003
 8.253639936447e-001 -2.959986816406e+003
 8.342943191528e-001 -2.929039794922e+003
 8.432478308678e-001 -2.900789550781e+003
 8.522192239761e-001 -2.873134277344e+003
 8.612135052681e-001 -2.844430175781e+003
 8.702285289764e-001 -2.813802490234e+003
 8.792629241943e-001 -2.781261474609e+003
 8.883179426193e-001 -2.746841552734e+003
 8.973910212517e-001 -2.710580078125e+003
 9.064758419991e-001 -2.672931152344e+003
 9.155848026276e-001 -2.634664306641e+003
 9.247094392776e-001 -2.596552978516e+003
 9.338524341583e-001 -2.558998535156e+003
 9.430103898048e-001 -2.522528320313e+003
 9.521839022636e-001 -2.487874511719e+003
 9.613730907440e-001 -2.455652343750e+003
 9.705749154091e-001 -2.425809082031e+003
 9.797969460487e-001 -2.398094726563e+003
 9.890292882919e-001 -2.372452392578e+003
 9.982842206955e-001 -2.348605224609e+003
 1.007544636726e+000 -2.325959228516e+003
 1.016823053360e+000 -2.303558349609e+003
 1.026108264923e+000 -2.280789794922e+003
 1.035405635834e+000 -2.257130859375e+003
 1.044701576233e+000 -2.231968750000e+003
 1.054000496864e+000 -2.204561767578e+003
 1.063306331635e+000 -2.174658203125e+003
 1.072605013847e+000 -2.142459228516e+003
 1.081909656525e+000 -2.108043457031e+003
 1.091215729713e+000 -2.071599609375e+003
 1.100522041321e+000 -2.033587158203e+003
 1.109838604927e+000 -1.994839843750e+003
 1.119160652161e+000 -1.956085205078e+003
 1.128494262695e+000 -1.917675048828e+003
 1.137840747833e+000 -1.879932495117e+003
 1.147205710411e+000 -1.843264526367e+003
 1.156580567360e+000 -1.807828613281e+003
 1.165978431702e+000 -1.773216186523e+003
 1.175390362740e+000 -1.738989257813e+003
 1.184814095497e+000 -1.704922241211e+003
 1.194252133369e+000 -1.670714111328e+003
 1.203693866730e+000 -1.636093017578e+003
 1.213139295578e+000 -1.600836914063e+003
 1.222584843636e+000 -1.565181640625e+003
 1.232021927834e+000 -1.529626464844e+003
 1.241454601288e+000 -1.494715576172e+003
 1.250871896744e+000 -1.461070434570e+003
 1.260268092155e+000 -1.429392700195e+003
 1.269656300545e+000 -1.400385864258e+003
 1.279033899307e+000 -1.374605957031e+003
 1.288392543793e+000 -1.352567626953e+003
 1.297752737999e+000 -1.334437133789e+003
 1.307097673416e+000 -1.320109985352e+003
 1.316440582275e+000 -1.309002319336e+003
 1.325773715973e+000 -1.299892700195e+003
 1.335101246834e+000 -1.290784790039e+003
 1.344416499138e+000 -1.279209594727e+003
 1.353719592094e+000 -1.264888183594e+003
 1.363014101982e+000 -1.250436645508e+003
 1.372292637825e+000 -1.237942504883e+003
 1.381557941437e+000 -1.225764404297e+003
 1.390802264214e+000 -1.211790771484e+003
 1.400029659271e+000 -1.198658203125e+003
 1.409238576889e+000 -1.190128906250e+003
 1.418424487114e+000 -1.186337402344e+003
 1.427600979805e+000 -1.185737304688e+003
 1.436756372452e+000 -1.191221923828e+003
 1.445896744728e+000 -1.208270385742e+003
 1.455017924309e+000 -1.239478515625e+003
 1.464115858078e+000 -1.284993286133e+003
 1.473173618317e+000 -1.347549926758e+003
 1.482184410095e+000 -1.431380615234e+003
 1.491134405136e+000 -1.534037841797e+003
 1.500003457069e+000 -1.646695434570e+003
 1.508775234222e+000 -1.757783081055e+003
 1.517433881760e+000 -1.853567138672e+003
 1.525955319405e+000 -1.911701049805e+003
 1.534344315529e+000 -1.903681152344e+003
 1.542608022690e+000 -1.814432739258e+003
 1.550762534142e+000 -1.676634521484e+003
 1.558829069138e+000 -1.556168334961e+003
 1.566841483116e+000 -1.473512573242e+003
 1.574815750122e+000 -1.398758544922e+003
 1.582771897316e+000 -1.336016723633e+003
 1.590712070465e+000 -1.329155273438e+003
 1.598631858826e+000 -1.399375488281e+003
 1.606524109840e+000 -1.514775756836e+003
 1.614357829094e+000 -1.668517211914e+003
 1.622100710869e+000 -1.905208129883e+003
 1.629702925682e+000 -2.253116943359e+003
 1.637098431587e+000 -2.680681884766e+003
 1.644208312035e+000 -3.138529541016e+003
 1.650961399078e+000 -3.609962890625e+003
 1.657288670540e+000 -4.050678466797e+003
 1.663133382797e+000 -4.339668945313e+003
 1.668459296227e+000 -4.331713867188e+003
 1.673266410828e+000 -4.000708007813e+003
 1.677629947662e+000 -3.510123046875e+003
 1.681612253189e+000 -3.048214111328e+003
 1.685273647308e+000 -2.697704345703e+003
 1.688659548759e+000 -2.436719970703e+003
 1.691792368889e+000 -2.272883544922e+003
 1.694682002068e+000 -2.254124023438e+003
 1.697313785553e+000 -2.341248535156e+003
 1.699670791626e+000 -2.400829589844e+003
 1.701732754707e+000 -2.337451660156e+003
 1.703499794006e+000 -2.184566894531e+003
 1.705015420914e+000 -1.997405029297e+003
 1.706325292587e+000 -1.779003662109e+003
 1.707480549812e+000 -1.543541503906e+003
 1.708531260490e+000 -1.344813842773e+003
 1.709521651268e+000 -1.213159179688e+003
 1.710489749908e+000 -1.109347534180e+003
 1.711457371712e+000 -1.008446594238e+003
 1.712438702583e+000 -9.340432128906e+002
 1.713442683220e+000 -9.087268676758e+002
 1.714471817017e+000 -8.965859375000e+002
 1.715525031090e+000 -8.614949340820e+002
 1.716598987579e+000 -8.245510864258e+002
 1.717689037323e+000 -8.162308349609e+002
 1.718790888786e+000 -8.187369384766e+002
 1.719898700714e+000 -7.930159301758e+002
 1.721009612083e+000 -7.570994262695e+002
 1.722121834755e+000 -7.456789550781e+002
 1.723231315613e+000 -7.482428588867e+002
 1.724337697029e+000 -7.236331176758e+002
 1.725436091423e+000 -6.731676635742e+002
 1.726523876190e+000 -6.372790527344e+002
 1.727597475052e+000 -6.186234130859e+002
 1.728655695915e+000 -5.891831054688e+002
 1.729695439339e+000 -5.499732055664e+002
 1.730714440346e+000 -5.463863525391e+002
 1.731713414192e+000 -5.880076904297e+002
 1.732692956924e+000 -6.413508911133e+002
 1.733655452728e+000 -6.878455200195e+002
 1.734602570534e+000 -7.464380493164e+002
 1.735537886620e+000 -8.233352050781e+002
 1.736463904381e+000 -8.804614868164e+002
 1.737383484840e+000 -8.981123046875e+002
 1.738297462463e+000 -8.991364746094e+002
 1.739205360413e+000 -9.071337890625e+002
 1.740103483200e+000 -9.040877075195e+002
 1.740987896919e+000 -8.747947387695e+002
 1.741854548454e+000 -8.434697875977e+002
 1.742699503899e+000 -8.358309936523e+002
 1.743520379066e+000 -8.403402099609e+002
 1.744316458702e+000 -8.321018066406e+002
 1.745089292526e+000 -8.254163818359e+002
 1.745838999748e+000 -8.416056518555e+002
 1.746565222740e+000 -8.701183471680e+002
 1.747267365456e+000 -8.860020751953e+002
 1.747943162918e+000 -8.967729492188e+002
 1.748592734337e+000 -9.285921020508e+002
 1.749216437340e+000 -9.761174316406e+002
 1.749815940857e+000 -1.015743713379e+003
 1.750393748283e+000 -1.045492675781e+003
 1.750951886177e+000 -1.086088623047e+003
 1.751494169235e+000 -1.132403076172e+003
 1.752020835876e+000 -1.160390014648e+003
 1.752531647682e+000 -1.167089233398e+003
 1.753024578094e+000 -1.174034423828e+003
 1.753496646881e+000 -1.188551269531e+003
 1.753947973251e+000 -1.191038696289e+003
 1.754378437996e+000 -1.177939697266e+003
 1.754789829254e+000 -1.167642211914e+003
 1.755184531212e+000 -1.168828735352e+003
 1.755563855171e+000 -1.162685058594e+003
 1.755931019783e+000 -1.140443847656e+003
 1.756285786629e+000 -1.118151489258e+003
 1.756627202034e+000 -1.105957641602e+003
 1.756952524185e+000 -1.091103393555e+003
 1.757257699966e+000 -1.061304321289e+003
 1.757540583611e+000 -1.031685668945e+003
 1.757800102234e+000 -1.014091613770e+003
 1.758037328720e+000 -9.999864501953e+002
 1.758255958557e+000 -9.793338012695e+002
 1.758460044861e+000 -9.645812377930e+002
 1.758654952049e+000 -9.696121826172e+002
 1.758844017982e+000 -9.866519775391e+002
 1.759029269218e+000 -1.004465454102e+003
 1.759210824966e+000 -1.028794677734e+003
 1.759386181831e+000 -1.072107421875e+003
 1.759551286697e+000 -1.123374877930e+003
 1.759700894356e+000 -1.167793212891e+003
 1.759829401970e+000 -1.208162231445e+003
 1.759932756424e+000 -1.255944580078e+003
 1.760008811951e+000 -1.306717773438e+003
 1.760061621666e+000 -1.345841674805e+003
 1.760095357895e+000 -1.375178466797e+003
 1.760113954544e+000 -1.405197998047e+003
 1.760120272636e+000 -1.433823486328e+003
 1.760115623474e+000 -1.446087280273e+003
 1.760100483894e+000 -1.442797485352e+003
 1.760072946548e+000 -1.434808471680e+003
 1.760029673576e+000 -1.422175048828e+003
 1.759967207909e+000 -1.394974243164e+003
 1.759881258011e+000 -1.354321289063e+003
 1.759772539139e+000 -1.317341308594e+003
 1.759642362595e+000 -1.289061767578e+003
 1.759492754936e+000 -1.262236938477e+003
 1.759325742722e+000 -1.236068359375e+003
 1.759140849113e+000 -1.222717041016e+003
 1.758938193321e+000 -1.222688720703e+003
 1.758715629578e+000 -1.222814086914e+003
 1.758470535278e+000 -1.217707275391e+003
 1.758200883865e+000 -1.216406982422e+003
 1.757903814316e+000 -1.224287841797e+003
 1.757581591606e+000 -1.230122680664e+003
 1.757235646248e+000 -1.229784790039e+003
 1.756866574287e+000 -1.233703247070e+003
 1.756473779678e+000 -1.249542480469e+003
 1.756055355072e+000 -1.268373291016e+003
 1.755611658096e+000 -1.282208251953e+003
 1.755142569542e+000 -1.299030639648e+003
 1.754649877548e+000 -1.324257080078e+003
 1.754136204720e+000 -1.346947875977e+003
 1.753604888916e+000 -1.351966064453e+003
 1.753061056137e+000 -1.343873168945e+003
 1.752508521080e+000 -1.330406616211e+003
 1.751948237419e+000 -1.306667114258e+003
 1.751379370689e+000 -1.265954467773e+003
 1.750798225403e+000 -1.218481933594e+003
 1.750201225281e+000 -1.182177368164e+003
 1.749584555626e+000 -1.157389038086e+003
 1.748945832253e+000 -1.137322631836e+003
 1.748284697533e+000 -1.126075439453e+003
 1.747602581978e+000 -1.136220458984e+003
 1.746903538704e+000 -1.163213623047e+003
 1.746191740036e+000 -1.193733642578e+003
 1.745470285416e+000 -1.226286132813e+003
 1.744742870331e+000 -1.269117065430e+003
 1.744010210037e+000 -1.320978515625e+003
 1.743274331093e+000 -1.367905883789e+003
 1.742534995079e+000 -1.408380981445e+003
 1.741791248322e+000 -1.452051391602e+003
 1.741042256355e+000 -1.500662841797e+003
 1.740284442902e+000 -1.542326904297e+003
 1.739514946938e+000 -1.573738525391e+003
 1.738729357719e+000 -1.605784423828e+003
 1.737925529480e+000 -1.642861328125e+003
 1.737101793289e+000 -1.676078369141e+003
 1.736255764961e+000 -1.699045898438e+003
 1.735388755798e+000 -1.721207275391e+003
 1.734503746033e+000 -1.747527465820e+003
 1.733603358269e+000 -1.770234985352e+003
 1.732692003250e+000 -1.784060180664e+003
 1.731772422791e+000 -1.799427490234e+003
 1.730849981308e+000 -1.826506713867e+003
 1.729927539825e+000 -1.858319458008e+003
 1.729007482529e+000 -1.886127197266e+003
 1.728090524673e+000 -1.913188842773e+003
 1.727177619934e+000 -1.946099609375e+003
 1.726266622543e+000 -1.976283203125e+003
 1.725356578827e+000 -1.993752685547e+003
 1.724447131157e+000 -2.004119262695e+003
 1.723535895348e+000 -2.020399414063e+003
 1.722623467445e+000 -2.044041137695e+003
 1.721706986427e+000 -2.066725830078e+003
 1.720784425735e+000 -2.091585937500e+003
 1.719853401184e+000 -2.127117187500e+003
 1.718911170959e+000 -2.169382812500e+003
 1.717954874039e+000 -2.201273925781e+003
 1.716984868050e+000 -2.215523437500e+003
 1.715999245644e+000 -2.217719970703e+003
 1.714999675751e+000 -2.206546875000e+003
 1.713986873627e+000 -2.172110107422e+003
 1.712963581085e+000 -2.112635009766e+003
 1.711933016777e+000 -2.045524414063e+003
 1.710896253586e+000 -1.984339843750e+003
 1.709850311279e+000 -1.932125244141e+003
 1.708788514137e+000 -1.895361938477e+003
 1.707696795464e+000 -1.892665283203e+003
 1.706554412842e+000 -1.933822753906e+003
 1.705340743065e+000 -2.007007202148e+003
 1.704031109810e+000 -2.095437255859e+003
 1.702602744102e+000 -2.185350097656e+003
 1.701029300690e+000 -2.252444580078e+003
 1.699301362038e+000 -2.250147949219e+003
 1.697422146797e+000 -2.151256835938e+003
 1.695409178734e+000 -1.999340087891e+003
 1.693282127380e+000 -1.886836181641e+003
 1.691059589386e+000 -1.856783203125e+003
 1.688762068748e+000 -1.866696289063e+003
 1.686403036118e+000 -1.910893432617e+003
 1.683984756470e+000 -2.041071777344e+003
 1.681501269341e+000 -2.271732421875e+003
 1.678935170174e+000 -2.536002929688e+003
 1.676264762878e+000 -2.771990234375e+003
 1.673470854759e+000 -2.983073242188e+003
 1.670537590981e+000 -3.142670898438e+003
 1.667458653450e+000 -3.165831787109e+003
 1.664236187935e+000 -3.010512939453e+003
 1.660890579224e+000 -2.781586914063e+003
 1.657451748848e+000 -2.581933105469e+003
 1.653947830200e+000 -2.403758544922e+003
 1.650403738022e+000 -2.210858642578e+003
 1.646849274635e+000 -2.046140380859e+003
 1.643299579620e+000 -1.976802612305e+003
 1.639770984650e+000 -1.964146484375e+003
 1.636268615723e+000 -1.941645751953e+003
 1.632802486420e+000 -1.920629760742e+003
 1.629368424416e+000 -1.963227050781e+003
 1.625964879990e+000 -2.047960815430e+003
 1.622589707375e+000 -2.100883544922e+003
 1.619234919548e+000 -2.125529296875e+003
 1.615897297859e+000 -2.182984130859e+003
 1.612568616867e+000 -2.277601806641e+003
 1.609244108200e+000 -2.335645507813e+003
 1.605924129486e+000 -2.348498046875e+003
 1.602600693703e+000 -2.373329833984e+003
 1.599280357361e+000 -2.422366455078e+003
 1.595958113670e+000 -2.427407958984e+003
 1.592637181282e+000 -2.355352050781e+003
 1.589321255684e+000 -2.264808349609e+003
 1.586013436317e+000 -2.184235839844e+003
 1.582718014717e+000 -2.070788330078e+003
 1.579436659813e+000 -1.895752075195e+003
 1.576172947884e+000 -1.725512939453e+003
 1.572929620743e+000 -1.613865356445e+003
 1.569705605507e+000 -1.531197387695e+003
 1.566498994827e+000 -1.441745605469e+003
 1.563305735588e+000 -1.382408325195e+003
 1.560124874115e+000 -1.402760864258e+003
 1.556951999664e+000 -1.459753295898e+003
 1.553785443306e+000 -1.496564208984e+003
 1.550623655319e+000 -1.525802734375e+003
 1.547465562820e+000 -1.596216552734e+003
 1.544310450554e+000 -1.687533569336e+003
 1.541157960892e+000 -1.744396972656e+003
 1.538009643555e+000 -1.779483032227e+003
 1.534867882729e+000 -1.846106201172e+003
 1.531735897064e+000 -1.945889160156e+003
 1.528617620468e+000 -2.021166992188e+003
 1.525517106056e+000 -2.070884277344e+003
 1.522436261177e+000 -2.142931152344e+003
 1.519380569458e+000 -2.244024414063e+003
 1.516345739365e+000 -2.321065429688e+003
 1.513336658478e+000 -2.354400878906e+003
 1.510345458984e+000 -2.395442382813e+003
 1.507370352745e+000 -2.464515625000e+003
 1.504414916039e+000 -2.522952392578e+003
 1.501474499702e+000 -2.543306640625e+003
 1.498555064201e+000 -2.565294921875e+003
 1.495655179024e+000 -2.612200439453e+003
 1.492776751518e+000 -2.643872802734e+003
 1.489915609360e+000 -2.625979248047e+003
 1.487074017525e+000 -2.587655517578e+003
 1.484245181084e+000 -2.571898437500e+003
 1.481428027153e+000 -2.556674072266e+003
 1.478620171547e+000 -2.516603027344e+003
 1.475822925568e+000 -2.480537353516e+003
 1.473031044006e+000 -2.492988281250e+003
 1.470244646072e+000 -2.533079345703e+003
 1.467467904091e+000 -2.549996826172e+003
 1.464698672295e+000 -2.546676513672e+003
 1.461941838264e+000 -2.549384033203e+003
 1.459201097488e+000 -2.538796386719e+003
 1.456476092339e+000 -2.458791748047e+003
 1.453773021698e+000 -2.316458251953e+003
 1.451091885567e+000 -2.157630859375e+003
 1.448432207108e+000 -1.995413208008e+003
 1.445792555809e+000 -1.804199707031e+003
 1.443169593811e+000 -1.592262207031e+003
 1.440558552742e+000 -1.413324707031e+003
 1.437955379486e+000 -1.283758178711e+003
 1.435356736183e+000 -1.174368652344e+003
 1.432760000229e+000 -1.071502441406e+003
 1.430161833763e+000 -1.010203979492e+003
 1.427565813065e+000 -1.000412231445e+003
 1.424967169762e+000 -1.007597961426e+003
 1.422372102737e+000 -1.010109802246e+003
 1.419781923294e+000 -1.032389648438e+003
 1.417197585106e+000 -1.096623535156e+003
 1.414622187614e+000 -1.170281005859e+003
 1.412058830261e+000 -1.227722534180e+003
 1.409511446953e+000 -1.285087402344e+003
 1.406980991364e+000 -1.363666748047e+003
 1.404471158981e+000 -1.439645751953e+003
 1.401977777481e+000 -1.485229125977e+003
 1.399499535561e+000 -1.517978149414e+003
 1.397035956383e+000 -1.565394165039e+003
 1.394586801529e+000 -1.618349853516e+003
 1.392146348953e+000 -1.649529541016e+003
 1.389714837074e+000 -1.675824340820e+003
 1.387290954590e+000 -1.727284057617e+003
 1.384871721268e+000 -1.797972534180e+003
 1.382457613945e+000 -1.857122070313e+003
 1.380047917366e+000 -1.903309814453e+003
 1.377648711205e+000 -1.962868408203e+003
 1.375257730484e+000 -2.032885864258e+003
 1.372882366180e+000 -2.089936279297e+003
 1.370523810387e+000 -2.135046386719e+003
 1.368187189102e+000 -2.200348388672e+003
 1.365871429443e+000 -2.287046142578e+003
 1.363577604294e+000 -2.365092285156e+003
 1.361303448677e+000 -2.420652343750e+003
 1.359050989151e+000 -2.467817382813e+003
 1.356817483902e+000 -2.504858154297e+003
 1.354603171349e+000 -2.497851806641e+003
 1.352409124374e+000 -2.430768066406e+003
 1.350235342979e+000 -2.320700439453e+003
 1.348084449768e+000 -2.182276367188e+003
 1.345955967903e+000 -2.000006225586e+003
 1.343850493431e+000 -1.775166748047e+003
 1.341761827469e+000 -1.541715576172e+003
 1.339691758156e+000 -1.330457275391e+003
 1.337635159492e+000 -1.140502929688e+003
 1.335591673851e+000 -9.654715576172e+002
 1.333559632301e+000 -8.276658325195e+002
 1.331541657448e+000 -7.488302612305e+002
 1.329535484314e+000 -7.193880615234e+002
 1.327545404434e+000 -7.174631958008e+002
 1.325574755669e+000 -7.471224365234e+002
 1.323620438576e+000 -8.183641967773e+002
 1.321686983109e+000 -9.157172851563e+002
 1.319774031639e+000 -1.012859802246e+003
 1.317879796028e+000 -1.104871826172e+003
 1.316005945206e+000 -1.204014770508e+003
 1.314148664474e+000 -1.300056640625e+003
 1.312309026718e+000 -1.371982421875e+003
 1.310487627983e+000 -1.421308715820e+003
 1.308685779572e+000 -1.468839721680e+003
 1.306907534599e+000 -1.518831176758e+003
 1.305150389671e+000 -1.553553466797e+003
 1.303415179253e+000 -1.573118041992e+003
 1.301700234413e+000 -1.595106201172e+003
 1.300001740456e+000 -1.622905151367e+003
 1.298318147659e+000 -1.634393432617e+003
 1.296646952629e+000 -1.624302001953e+003
 1.294988036156e+000 -1.612330444336e+003
 1.293341040611e+000 -1.609275024414e+003
 1.291705846786e+000 -1.604066528320e+003
 1.290084719658e+000 -1.591683593750e+003
 1.288479447365e+000 -1.592818481445e+003
 1.286891818047e+000 -1.615490356445e+003
 1.285322546959e+000 -1.639956665039e+003
 1.283773303032e+000 -1.644977783203e+003
 1.282242059708e+000 -1.631045776367e+003
 1.280726671219e+000 -1.598717407227e+003
 1.279226064682e+000 -1.524183227539e+003
 1.277740597725e+000 -1.389297973633e+003
 1.276269674301e+000 -1.208845947266e+003
 1.274815797806e+000 -1.014972839355e+003
 1.273381233215e+000 -8.211598510742e+002
 1.271968364716e+000 -6.333975219727e+002
 1.270581007004e+000 -4.773754882813e+002
 1.269218683243e+000 -3.833712158203e+002
 1.267882823944e+000 -3.545686035156e+002
 1.266571521759e+000 -3.641485290527e+002
 1.265283823013e+000 -4.063028564453e+002
 1.264018177986e+000 -4.880767211914e+002
 1.262775778770e+000 -5.997592163086e+002
 1.261559128761e+000 -7.127128295898e+002
 1.260366559029e+000 -8.164426269531e+002
 1.259197235107e+000 -9.204935913086e+002
 1.258049011230e+000 -1.020977111816e+003
 1.256919145584e+000 -1.097428955078e+003
 1.255804538727e+000 -1.142464233398e+003
 1.254702329636e+000 -1.178238037109e+003
 1.253611207008e+000 -1.214806030273e+003
 1.252530574799e+000 -1.242134765625e+003
 1.251463413239e+000 -1.256546752930e+003
 1.250413656235e+000 -1.276786621094e+003
 1.249382019043e+000 -1.313802856445e+003
 1.248369574547e+000 -1.353778564453e+003
 1.247375369072e+000 -1.387136596680e+003
 1.246398210526e+000 -1.425094604492e+003
 1.245436787605e+000 -1.478607666016e+003
 1.244486689568e+000 -1.529628662109e+003
 1.243546962738e+000 -1.559547973633e+003
 1.242616057396e+000 -1.572166259766e+003
 1.241693139076e+000 -1.578026977539e+003
 1.240776777267e+000 -1.567955810547e+003
 1.239865183830e+000 -1.527293945313e+003
 1.238956332207e+000 -1.463848510742e+003
 1.238048791885e+000 -1.394411132813e+003
 1.237140893936e+000 -1.322694213867e+003
 1.236230611801e+000 -1.244081298828e+003
 1.235319137573e+000 -1.171200073242e+003
 1.234406471252e+000 -1.121906372070e+003
 1.233493447304e+000 -1.096177612305e+003
 1.232580304146e+000 -1.082654052734e+003
 1.231668233871e+000 -1.084220703125e+003
 1.230755686760e+000 -1.114037963867e+003
 1.229843020439e+000 -1.165419677734e+003
 1.228930830956e+000 -1.217261230469e+003
 1.228019237518e+000 -1.259337646484e+003
 1.227110862732e+000 -1.297196411133e+003
 1.226205110550e+000 -1.327256347656e+003
 1.225303053856e+000 -1.335416748047e+003
 1.224403381348e+000 -1.322494628906e+003
 1.223503828049e+000 -1.306280883789e+003
 1.222601294518e+000 -1.296618774414e+003
 1.221693754196e+000 -1.282754638672e+003
 1.220777153969e+000 -1.260725219727e+003
 1.219847321510e+000 -1.238027221680e+003
 1.218901395798e+000 -1.209679809570e+003
 1.217935085297e+000 -1.141504150391e+003
 1.216943979263e+000 -9.959468994141e+002
 1.215926647186e+000 -7.488837890625e+002
 1.214882731438e+000 -3.734000244141e+002
 1.213813066483e+000  1.747921447754e+002
 1.212717890739e+000  9.362110595703e+002
 1.211597561836e+000  1.873373779297e+003
 1.210450530052e+000  2.911960205078e+003
 1.209276556969e+000  3.941973144531e+003
 1.208074212074e+000  4.836244628906e+003
 1.206844210625e+000  5.443813964844e+003
 1.205588102341e+000  5.682674804688e+003
 1.204309821129e+000  5.553502441406e+003
 1.203011751175e+000  5.112304199219e+003
 1.201695322990e+000  4.462898925781e+003
 1.200360536575e+000  3.735785400391e+003
 1.199007153511e+000  3.055011718750e+003
 1.197633385658e+000  2.501584228516e+003
 1.196239352226e+000  2.138581542969e+003
 1.194825172424e+000  2.014784423828e+003
 1.193391323090e+000  2.160551025391e+003
 1.191936492920e+000  2.558852783203e+003
 1.190460205078e+000  3.179496093750e+003
 1.188962578773e+000  3.995849853516e+003
 1.187439799309e+000  4.975449707031e+003
 1.185888528824e+000  6.081817871094e+003
 1.184306979179e+000  7.264416992188e+003
 1.182691335678e+000  8.467655273438e+003
 1.181041002274e+000  9.627294921875e+003
 1.179352045059e+000  1.066533105469e+004
 1.177620053291e+000  1.148004687500e+004
 1.175842523575e+000  1.197746484375e+004
 1.174018383026e+000  1.209917968750e+004
 1.172146081924e+000  1.180980078125e+004
 1.170225024223e+000  1.111077246094e+004
 1.168254733086e+000  1.005110449219e+004
 1.166233897209e+000  8.764500976563e+003
 1.164168477058e+000  7.389616699219e+003
 1.162057518959e+000  6.019756835938e+003
 1.159904956818e+000  4.718961914063e+003
 1.157711148262e+000  3.552831787109e+003
 1.155480384827e+000  2.574687255859e+003
 1.153212308884e+000  1.791544677734e+003
 1.150909304619e+000  1.183091430664e+003
 1.148569822311e+000  7.222467651367e+002
 1.146192789078e+000  3.865706176758e+002
 1.143782854080e+000  1.344261169434e+002
 1.141337037086e+000 -8.604708862305e+001
 1.138860106468e+000 -3.067529296875e+002
 1.136350870132e+000 -5.306165771484e+002
 1.133811354637e+000 -7.418182983398e+002
 1.131243348122e+000 -9.153289184570e+002
 1.128649234772e+000 -1.005000427246e+003
 1.126026749611e+000 -9.325562744141e+002
 1.123377799988e+000 -6.042985839844e+002
 1.120695471764e+000  8.218872070313e+001
 1.117977380753e+000  1.221165039063e+003
 1.115219831467e+000  2.880252441406e+003
 1.112419486046e+000  5.102437988281e+003
 1.109568595886e+000  7.864850097656e+003
 1.106656432152e+000  1.108617480469e+004
 1.103669166565e+000  1.460394628906e+004
 1.100602507591e+000  1.818987304688e+004
 1.097444772720e+000  2.156489843750e+004
 1.094187974930e+000  2.440201757813e+004
 1.090814828873e+000  2.634082421875e+004
 1.087325334549e+000  2.709044335938e+004
 1.083715558052e+000  2.657525976563e+004
 1.079989075661e+000  2.488288476563e+004
 1.076151013374e+000  2.231320507813e+004
 1.072205781937e+000  1.929469335938e+004
 1.068162679672e+000  1.622696679688e+004
 1.064033269882e+000  1.333679882813e+004
 1.059825420380e+000  1.078481640625e+004
 1.055544614792e+000  8.722471679688e+003
 1.051195740700e+000  7.239219726563e+003
 1.046780586243e+000  6.284510253906e+003
 1.042302966118e+000  5.756556152344e+003
 1.037762522697e+000  5.624222656250e+003
 1.033157825470e+000  5.848234863281e+003
 1.028484702110e+000  6.325657226563e+003
 1.023740649223e+000  6.932931152344e+003
 1.018929243088e+000  7.622444335938e+003
 1.014041304588e+000  8.375424804688e+003
 1.009080886841e+000  9.128750000000e+003
 1.004046559334e+000  9.808651367188e+003
 9.989301562309e-001  1.041021093750e+004
 9.937363862991e-001  1.095674707031e+004
 9.884667396545e-001  1.140998437500e+004
 9.831139445305e-001  1.170734960938e+004
 9.776827692986e-001  1.182923535156e+004
 9.721705317497e-001  1.178375781250e+004
 9.665820002556e-001  1.154030078125e+004
 9.609179496765e-001  1.104766210938e+004
 9.551780223846e-001  1.031486621094e+004
 9.493680596352e-001  9.401487304688e+003
 9.434800148010e-001  8.327155273438e+003
 9.375280737877e-001  7.146554687500e+003
 9.315122365952e-001  5.915318847656e+003
 9.254382252693e-001  4.733274414063e+003
 9.192988872528e-001  3.628662597656e+003
 9.131070375443e-001  2.621647460938e+003
 9.068610668182e-001  1.771258789063e+003
 9.005621671677e-001  1.166829223633e+003
 8.942171931267e-001  8.656335449219e+002
 8.878288269043e-001  9.007680664063e+002
 8.813883066177e-001  1.337039184570e+003
 8.749004006386e-001  2.235176757813e+003
 8.683583140373e-001  3.618714111328e+003
 8.617576956749e-001  5.441554687500e+003
 8.550885319710e-001  7.634085937500e+003
 8.483393788338e-001  1.011336718750e+004
 8.415026068687e-001  1.272287597656e+004
 8.345751762390e-001  1.524936914063e+004
 8.275455236435e-001  1.746288281250e+004
 8.203982710838e-001  1.915953710938e+004
 8.131377100945e-001  2.014732617188e+004
 8.057560324669e-001  2.031840820313e+004
 7.982631325722e-001  1.963721289063e+004
 7.906547188759e-001  1.821678320313e+004
 7.829387187958e-001  1.627808398438e+004
 7.751186490059e-001  1.407744042969e+004
 7.672072649002e-001  1.184035546875e+004
 7.592129111290e-001  9.731820312500e+003
 7.511425614357e-001  7.883876464844e+003
 7.430025935173e-001  6.391999511719e+003
 7.347975969315e-001  5.312894042969e+003
 7.265357971191e-001  4.635018066406e+003
 7.182140946388e-001  4.342926757813e+003
 7.098411321640e-001  4.394181640625e+003
 7.014130353928e-001  4.717242675781e+003
 6.929287910461e-001  5.213165039063e+003
 6.843913197517e-001  5.764566406250e+003
 6.757962107658e-001  6.267835449219e+003
 6.671367287636e-001  6.626982910156e+003
 6.584199666977e-001  6.765115234375e+003
 6.496439576149e-001  6.636375488281e+003
 6.408022046089e-001  6.264736328125e+003
 6.319025158882e-001  5.695879394531e+003
 6.229470968246e-001  4.997009765625e+003
 6.139295101166e-001  4.240479003906e+003
 6.048506498337e-001  3.491617431641e+003
 5.957182645798e-001  2.797662841797e+003
 5.865296125412e-001  2.195268554688e+003
 5.772919058800e-001  1.709696289063e+003
 5.679915547371e-001  1.344974121094e+003
 5.586472749710e-001  1.083009277344e+003
 5.492459535599e-001  8.920840454102e+002
 5.397979021072e-001  7.578160400391e+002
 5.303087234497e-001  6.711103515625e+002
 5.207722187042e-001  6.191637573242e+002
 5.111970901489e-001  5.883645019531e+002
 5.015751123428e-001  5.736868286133e+002
 4.919258356094e-001  5.761058959961e+002
 4.822354912758e-001  5.894923706055e+002
 4.725167155266e-001  6.012833862305e+002
 4.627677500248e-001  6.036624145508e+002
 4.529907107353e-001  5.981751708984e+002
 4.431799650192e-001  5.831472167969e+002
 4.333389401436e-001  5.536373291016e+002
 4.234642386436e-001  5.116815185547e+002
 4.135560691357e-001  4.733154296875e+002
 4.036126136780e-001  4.573447265625e+002
 3.936354219913e-001  4.783607177734e+002
 3.836179673672e-001  5.537731323242e+002
 3.735608756542e-001  7.081802368164e+002
 3.634626269341e-001  9.720067749023e+002
 3.533250093460e-001  1.353039428711e+003
 3.431400656700e-001  1.858460205078e+003
 3.329039812088e-001  2.491496826172e+003
 3.226198852062e-001  3.237774414063e+003
 3.122853934765e-001  4.043791015625e+003
 3.018932342529e-001  4.814529785156e+003
 2.914412915707e-001  5.457152343750e+003
 2.809412479401e-001  5.884976562500e+003
 2.703770995140e-001  6.020292480469e+003
 2.597715556622e-001  5.791705566406e+003
 2.491185814142e-001  5.237352050781e+003
 2.384217530489e-001  4.439994140625e+003
 2.276928871870e-001  3.512926269531e+003
 2.169496119022e-001  2.567377441406e+003
 2.061832845211e-001  1.712087402344e+003
 1.954109817743e-001  1.007475952148e+003
 1.846316158772e-001  5.011703186035e+002
 1.738455146551e-001  1.785820617676e+002
 1.630460321903e-001  1.062458801270e+001
 1.522189080715e-001 -3.495196151733e+001
 1.413488388062e-001  5.166172027588e+000
 1.304025202990e-001  9.568411254883e+001
 1.193532347679e-001  2.014221496582e+002
 1.081608235836e-001  2.998780517578e+002
 9.679574519396e-002  3.792964782715e+002
 8.523051440716e-002  4.278553466797e+002
 7.347087562084e-002  4.370296020508e+002
 6.154894456267e-002  4.146634521484e+002
 4.952865093946e-002  3.791450805664e+002
 3.755595535040e-002  3.392738647461e+002
 2.584144473076e-002  2.912375488281e+002
 1.465978100896e-002  2.367543334961e+002
 4.350704140961e-003  1.847412567139e+002
-4.724705591798e-003  1.385168914795e+002
-1.206795312464e-002  9.213317871094e+001
-1.746400259435e-002  4.636098480225e+001
-2.081247605383e-002  1.213362884521e+001
-2.231849730015e-002 -3.785474061966e+000
-2.261226810515e-002 -6.670242309570e+000
endcurve
