Curveplot
LS-DYNA keyword deck by LS-PrePost
Abscissa
Ordinate
XY data
NBDLHeadzCoo-1 #pts=2000
* Minval=    -5.4856697083e+01 at time=       172.8012237549
* Maxval=     1.5358810425e+02 at time=        40.9999351501
    0.0000000000e+00    1.5358110046e+02
    9.9943503737e-02    1.5358110046e+02
    1.9988700747e-01    1.5358110046e+02
    2.9994606972e-01    1.5358110046e+02
    3.9988955855e-01    1.5358110046e+02
    4.9994862080e-01    1.5358110046e+02
    5.9989213943e-01    1.5358110046e+02
    6.9995117188e-01    1.5358110046e+02
    7.9989469051e-01    1.5358110046e+02
    8.9995372295e-01    1.5358110046e+02
    9.9989724159e-01    1.5358110046e+02
    1.0999562740e+00    1.5358110046e+02
    1.1998997927e+00    1.5358110046e+02
    1.2999588251e+00    1.5358110046e+02
    1.3999023438e+00    1.5358110046e+02
    1.4999613762e+00    1.5358110046e+02
    1.5999048948e+00    1.5358110046e+02
    1.6999639273e+00    1.5358110046e+02
    1.7999074459e+00    1.5358110046e+02
    1.8999664783e+00    1.5358110046e+02
    1.9999099970e+00    1.5358110046e+02
    2.0999689102e+00    1.5358110046e+02
    2.1999125481e+00    1.5358110046e+02
    2.2999715805e+00    1.5358110046e+02
    2.3999152184e+00    1.5358110046e+02
    2.4999740124e+00    1.5358110046e+02
    2.5999176502e+00    1.5358110046e+02
    2.6999766827e+00    1.5358110046e+02
    2.7999200821e+00    1.5358110046e+02
    2.8999791145e+00    1.5358110046e+02
    2.9999227524e+00    1.5358110046e+02
    3.0999817848e+00    1.5358110046e+02
    3.1999251842e+00    1.5358110046e+02
    3.2999842167e+00    1.5358110046e+02
    3.3999278545e+00    1.5358110046e+02
    3.4999868870e+00    1.5358110046e+02
    3.5999302864e+00    1.5358110046e+02
    3.6999895573e+00    1.5358110046e+02
    3.7999279499e+00    1.5358110046e+02
    3.8999762535e+00    1.5358110046e+02
    3.9999499321e+00    1.5358110046e+02
    4.0999445915e+00    1.5358110046e+02
    4.1999964714e+00    1.5358110046e+02
    4.2998995781e+00    1.5358110046e+02
    4.3999047279e+00    1.5358110046e+02
    4.4998955727e+00    1.5358110046e+02
    4.5999093056e+00    1.5358110046e+02
    4.6999235153e+00    1.5358110046e+02
    4.7999372482e+00    1.5358110046e+02
    4.8999514580e+00    1.5358110046e+02
    4.9999651909e+00    1.5358110046e+02
    5.0999794006e+00    1.5358110046e+02
    5.1999931335e+00    1.5358110046e+02
    5.2998895645e+00    1.5358110046e+02
    5.3999023438e+00    1.5358110046e+02
    5.4999275208e+00    1.5358110046e+02
    5.5999093056e+00    1.5358110046e+02
    5.6999707222e+00    1.5358110046e+02
    5.7999162674e+00    1.5358110046e+02
    5.8999767303e+00    1.5358110046e+02
    5.9999217987e+00    1.5358110046e+02
    6.0999822617e+00    1.5358110046e+02
    6.1999273300e+00    1.5358110046e+02
    6.2999510765e+00    1.5358110046e+02
    6.3998889923e+00    1.5358110046e+02
    6.4999728203e+00    1.5358110046e+02
    6.5999174118e+00    1.5358110046e+02
    6.6999769211e+00    1.5358110046e+02
    6.7999210358e+00    1.5358110046e+02
    6.8999800682e+00    1.5358110046e+02
    6.9999241829e+00    1.5358110046e+02
    7.0999832153e+00    1.5358110046e+02
    7.1999268532e+00    1.5358110046e+02
    7.2998890877e+00    1.5358110046e+02
    7.3999085426e+00    1.5358110046e+02
    7.4998812675e+00    1.5358110046e+02
    7.5999879837e+00    1.5358110046e+02
    7.6999874115e+00    1.5358110046e+02
    7.7999334335e+00    1.5358110046e+02
    7.8998870850e+00    1.5358110046e+02
    7.9999461174e+00    1.5358110046e+02
    8.0998897552e+00    1.5358110046e+02
    8.1999492645e+00    1.5358110046e+02
    8.2998819351e+00    1.5358110046e+02
    8.3998956680e+00    1.5358110046e+02
    8.4999094009e+00    1.5358110046e+02
    8.5999240875e+00    1.5358110046e+02
    8.6999378204e+00    1.5358110046e+02
    8.7999515533e+00    1.5358110046e+02
    8.8999652863e+00    1.5358110046e+02
    8.9998817444e+00    1.5358110046e+02
    9.0998888016e+00    1.5358110046e+02
    9.1998910904e+00    1.5358110046e+02
    9.2999057770e+00    1.5358110046e+02
    9.3999195099e+00    1.5358110046e+02
    9.4999971390e+00    1.5358110046e+02
    9.5999011993e+00    1.5358110046e+02
    9.6999654770e+00    1.5358110046e+02
    9.7999839783e+00    1.5358110046e+02
    9.8999271393e+00    1.5358110046e+02
    9.9999856949e+00    1.5358110046e+02
    1.0099930763e+01    1.5358110046e+02
    1.0199992180e+01    1.5358110046e+02
    1.0299938202e+01    1.5358110046e+02
    1.0399998665e+01    1.5358110046e+02
    1.0499943733e+01    1.5358110046e+02
    1.0599887848e+01    1.5358110046e+02
    1.0699948311e+01    1.5358110046e+02
    1.0799893379e+01    1.5358110046e+02
    1.0899952888e+01    1.5358110046e+02
    1.0999897003e+01    1.5358110046e+02
    1.1099955559e+01    1.5358110046e+02
    1.1199900627e+01    1.5358110046e+02
    1.1299987793e+01    1.5358110046e+02
    1.1399967194e+01    1.5358110046e+02
    1.1499958992e+01    1.5358110046e+02
    1.1599999428e+01    1.5358110046e+02
    1.1699969292e+01    1.5358110046e+02
    1.1799905777e+01    1.5358110046e+02
    1.1899979591e+01    1.5358110046e+02
    1.1999974251e+01    1.5358110046e+02
    1.2099967957e+01    1.5358110046e+02
    1.2199919701e+01    1.5358110046e+02
    1.2299986839e+01    1.5358110046e+02
    1.2399944305e+01    1.5358110046e+02
    1.2500004768e+01    1.5358110046e+02
    1.2599967957e+01    1.5358110046e+02
    1.2699920654e+01    1.5358110046e+02
    1.2799924850e+01    1.5358110046e+02
    1.2899946213e+01    1.5358110046e+02
    1.2999925613e+01    1.5358110046e+02
    1.3099918365e+01    1.5358110046e+02
    1.3199960709e+01    1.5358110046e+02
    1.3299946785e+01    1.5358110046e+02
    1.3400008202e+01    1.5358110046e+02
    1.3499905586e+01    1.5358110046e+02
    1.3599942207e+01    1.5358110046e+02
    1.3699930191e+01    1.5358110046e+02
    1.3799924850e+01    1.5358110046e+02
    1.3899927139e+01    1.5358110046e+02
    1.3999902725e+01    1.5358110046e+02
    1.4099994659e+01    1.5358110046e+02
    1.4199906349e+01    1.5358110046e+02
    1.4299997330e+01    1.5358110046e+02
    1.4399909973e+01    1.5358110046e+02
    1.4499992371e+01    1.5358110046e+02
    1.4599964142e+01    1.5358110046e+02
    1.4699975014e+01    1.5358110046e+02
    1.4799990654e+01    1.5358110046e+02
    1.4899942398e+01    1.5358110046e+02
    1.4999903679e+01    1.5358110046e+02
    1.5099974632e+01    1.5358110046e+02
    1.5199993134e+01    1.5358110046e+02
    1.5299977303e+01    1.5358110046e+02
    1.5399943352e+01    1.5358110046e+02
    1.5499928474e+01    1.5358110046e+02
    1.5599970818e+01    1.5358110046e+02
    1.5699964523e+01    1.5358110046e+02
    1.5799925804e+01    1.5358110046e+02
    1.5899966240e+01    1.5358110046e+02
    1.5999949455e+01    1.5358110046e+02
    1.6099916458e+01    1.5358110046e+02
    1.6199945450e+01    1.5358110046e+02
    1.6299985886e+01    1.5358110046e+02
    1.6399925232e+01    1.5358110046e+02
    1.6499935150e+01    1.5358110046e+02
    1.6599946976e+01    1.5358110046e+02
    1.6699958801e+01    1.5358110046e+02
    1.6799919128e+01    1.5358110046e+02
    1.6899950027e+01    1.5358110046e+02
    1.6999931335e+01    1.5358110046e+02
    1.7100004196e+01    1.5358110046e+02
    1.7199949265e+01    1.5358110046e+02
    1.7299999237e+01    1.5358110046e+02
    1.7399999619e+01    1.5358110046e+02
    1.7500003815e+01    1.5358110046e+02
    1.7599948883e+01    1.5358110046e+02
    1.7699979782e+01    1.5358110046e+02
    1.7799987793e+01    1.5358110046e+02
    1.7899923325e+01    1.5358110046e+02
    1.8000024796e+01    1.5358110046e+02
    1.8099969864e+01    1.5358110046e+02
    1.8199991226e+01    1.5358110046e+02
    1.8299934387e+01    1.5358110046e+02
    1.8399986267e+01    1.5358110046e+02
    1.8500009537e+01    1.5358110046e+02
    1.8599933624e+01    1.5358110046e+02
    1.8699920654e+01    1.5358110046e+02
    1.8799968719e+01    1.5358110046e+02
    1.8900028229e+01    1.5358110046e+02
    1.8999969482e+01    1.5358110046e+02
    1.9099943161e+01    1.5358110046e+02
    1.9199972153e+01    1.5358110046e+02
    1.9300016403e+01    1.5358110046e+02
    1.9399984360e+01    1.5358110046e+02
    1.9499984741e+01    1.5358110046e+02
    1.9600000381e+01    1.5358210754e+02
    1.9700010300e+01    1.5358210754e+02
    1.9799989700e+01    1.5358210754e+02
    1.9899990082e+01    1.5358210754e+02
    1.9999952316e+01    1.5358210754e+02
    2.0099954605e+01    1.5358210754e+02
    2.0199935913e+01    1.5358210754e+02
    2.0299938202e+01    1.5358210754e+02
    2.0400022507e+01    1.5358210754e+02
    2.0500011444e+01    1.5358210754e+02
    2.0599948883e+01    1.5358210754e+02
    2.0700037003e+01    1.5358210754e+02
    2.0799945831e+01    1.5358210754e+02
    2.0899974823e+01    1.5358210754e+02
    2.0999980927e+01    1.5358210754e+02
    2.1100040436e+01    1.5358210754e+02
    2.1199998856e+01    1.5358210754e+02
    2.1299932480e+01    1.5358210754e+02
    2.1399944305e+01    1.5358210754e+02
    2.1499992371e+01    1.5358210754e+02
    2.1599941254e+01    1.5358210754e+02
    2.1699935913e+01    1.5358210754e+02
    2.1799959183e+01    1.5358210754e+02
    2.1900020599e+01    1.5358210754e+02
    2.1999992371e+01    1.5358210754e+02
    2.2099941254e+01    1.5358210754e+02
    2.2199941635e+01    1.5358210754e+02
    2.2300045013e+01    1.5358210754e+02
    2.2399942398e+01    1.5358210754e+02
    2.2499946594e+01    1.5358210754e+02
    2.2599962234e+01    1.5358210754e+02
    2.2699987411e+01    1.5358210754e+02
    2.2800003052e+01    1.5358210754e+02
    2.2899995804e+01    1.5358210754e+02
    2.2999992371e+01    1.5358210754e+02
    2.3099958420e+01    1.5358210754e+02
    2.3200040817e+01    1.5358210754e+02
    2.3299982071e+01    1.5358210754e+02
    2.3400009155e+01    1.5358210754e+02
    2.3499979019e+01    1.5358210754e+02
    2.3600013733e+01    1.5358210754e+02
    2.3699972153e+01    1.5358210754e+02
    2.3799985886e+01    1.5358309937e+02
    2.3900039673e+01    1.5358309937e+02
    2.3999959946e+01    1.5358309937e+02
    2.4100048065e+01    1.5358309937e+02
    2.4200029373e+01    1.5358309937e+02
    2.4299991608e+01    1.5358309937e+02
    2.4399957657e+01    1.5358309937e+02
    2.4500038147e+01    1.5358309937e+02
    2.4599966049e+01    1.5358309937e+02
    2.4700019836e+01    1.5358309937e+02
    2.4799961090e+01    1.5358309937e+02
    2.4900028229e+01    1.5358309937e+02
    2.5000022888e+01    1.5358309937e+02
    2.5100009918e+01    1.5358309937e+02
    2.5199970245e+01    1.5358309937e+02
    2.5299997330e+01    1.5358309937e+02
    2.5399974823e+01    1.5358309937e+02
    2.5500005722e+01    1.5358309937e+02
    2.5599981308e+01    1.5358309937e+02
    2.5700061798e+01    1.5358309937e+02
    2.5800037384e+01    1.5358309937e+02
    2.5899982452e+01    1.5358309937e+02
    2.6000032425e+01    1.5358309937e+02
    2.6099952698e+01    1.5358309937e+02
    2.6199974060e+01    1.5358309937e+02
    2.6300037384e+01    1.5358309937e+02
    2.6400035858e+01    1.5358309937e+02
    2.6499980927e+01    1.5358309937e+02
    2.6600057602e+01    1.5358309937e+02
    2.6700038910e+01    1.5358309937e+02
    2.6799953461e+01    1.5358309937e+02
    2.6899999619e+01    1.5358309937e+02
    2.6999963760e+01    1.5358410645e+02
    2.7100009918e+01    1.5358410645e+02
    2.7200021744e+01    1.5358410645e+02
    2.7300020218e+01    1.5358410645e+02
    2.7400064468e+01    1.5358410645e+02
    2.7500017166e+01    1.5358410645e+02
    2.7600000381e+01    1.5358410645e+02
    2.7700061798e+01    1.5358410645e+02
    2.7800043106e+01    1.5358410645e+02
    2.7900032043e+01    1.5358410645e+02
    2.7999950409e+01    1.5358410645e+02
    2.8100069046e+01    1.5358410645e+02
    2.8199987411e+01    1.5358410645e+02
    2.8300008774e+01    1.5358410645e+02
    2.8400026321e+01    1.5358410645e+02
    2.8500064850e+01    1.5358410645e+02
    2.8600070953e+01    1.5358410645e+02
    2.8699989319e+01    1.5358410645e+02
    2.8799957275e+01    1.5358410645e+02
    2.8900014877e+01    1.5358410645e+02
    2.8999992371e+01    1.5358410645e+02
    2.9100040436e+01    1.5358410645e+02
    2.9200010300e+01    1.5358410645e+02
    2.9300056458e+01    1.5358410645e+02
    2.9399995804e+01    1.5358410645e+02
    2.9499961853e+01    1.5358410645e+02
    2.9599985123e+01    1.5358410645e+02
    2.9699998856e+01    1.5358410645e+02
    2.9800075531e+01    1.5358410645e+02
    2.9899974823e+01    1.5358410645e+02
    2.9999965668e+01    1.5358509827e+02
    3.0100055695e+01    1.5358509827e+02
    3.0200025558e+01    1.5358509827e+02
    3.0300010681e+01    1.5358509827e+02
    3.0400028229e+01    1.5358509827e+02
    3.0500026703e+01    1.5358509827e+02
    3.0600042343e+01    1.5358509827e+02
    3.0699987411e+01    1.5358509827e+02
    3.0800006866e+01    1.5358509827e+02
    3.0900064468e+01    1.5358509827e+02
    3.1000062943e+01    1.5358509827e+02
    3.1100036621e+01    1.5358509827e+02
    3.1200031281e+01    1.5358509827e+02
    3.1300016403e+01    1.5358509827e+02
    3.1399988174e+01    1.5358509827e+02
    3.1500047684e+01    1.5358509827e+02
    3.1600072861e+01    1.5358509827e+02
    3.1700000763e+01    1.5358509827e+02
    3.1799976349e+01    1.5358509827e+02
    3.1900003433e+01    1.5358509827e+02
    3.2000080109e+01    1.5358509827e+02
    3.2100078583e+01    1.5358509827e+02
    3.2199966431e+01    1.5358509827e+02
    3.2299983978e+01    1.5358509827e+02
    3.2400066376e+01    1.5358509827e+02
    3.2500003815e+01    1.5358509827e+02
    3.2599960327e+01    1.5358509827e+02
    3.2700042725e+01    1.5358509827e+02
    3.2800056458e+01    1.5358509827e+02
    3.2900039673e+01    1.5358509827e+02
    3.2999958038e+01    1.5358610535e+02
    3.3100028992e+01    1.5358610535e+02
    3.3199993134e+01    1.5358610535e+02
    3.3300041199e+01    1.5358610535e+02
    3.3400016785e+01    1.5358610535e+02
    3.3500015259e+01    1.5358610535e+02
    3.3599948883e+01    1.5358610535e+02
    3.3699977875e+01    1.5358610535e+02
    3.3799942017e+01    1.5358610535e+02
    3.3899978638e+01    1.5358610535e+02
    3.4000034332e+01    1.5358610535e+02
    3.4099964142e+01    1.5358610535e+02
    3.4199970245e+01    1.5358610535e+02
    3.4299995422e+01    1.5358610535e+02
    3.4399948120e+01    1.5358610535e+02
    3.4500015259e+01    1.5358610535e+02
    3.4599971771e+01    1.5358610535e+02
    3.4699951172e+01    1.5358610535e+02
    3.4799968719e+01    1.5358610535e+02
    3.4899978638e+01    1.5358610535e+02
    3.4999988556e+01    1.5358610535e+02
    3.5099922180e+01    1.5358610535e+02
    3.5199993134e+01    1.5358610535e+02
    3.5300029755e+01    1.5358610535e+02
    3.5399940491e+01    1.5358610535e+02
    3.5500030518e+01    1.5358610535e+02
    3.5599929810e+01    1.5358610535e+02
    3.5700016022e+01    1.5358610535e+02
    3.5799911499e+01    1.5358610535e+02
    3.5899997711e+01    1.5358610535e+02
    3.5999923706e+01    1.5358610535e+02
    3.6099948883e+01    1.5358610535e+02
    3.6199981689e+01    1.5358610535e+02
    3.6299987793e+01    1.5358610535e+02
    3.6399906158e+01    1.5358709717e+02
    3.6499954224e+01    1.5358709717e+02
    3.6599964142e+01    1.5358709717e+02
    3.6699897766e+01    1.5358709717e+02
    3.6799972534e+01    1.5358709717e+02
    3.6899921417e+01    1.5358709717e+02
    3.6999938965e+01    1.5358709717e+02
    3.7099956512e+01    1.5358709717e+02
    3.7199901581e+01    1.5358709717e+02
    3.7299903870e+01    1.5358709717e+02
    3.7399963379e+01    1.5358709717e+02
    3.7499923706e+01    1.5358709717e+02
    3.7599910736e+01    1.5358709717e+02
    3.7699924469e+01    1.5358709717e+02
    3.7799926758e+01    1.5358709717e+02
    3.7899940491e+01    1.5358709717e+02
    3.7999904633e+01    1.5358709717e+02
    3.8099952698e+01    1.5358709717e+02
    3.8199878693e+01    1.5358709717e+02
    3.8299964905e+01    1.5358709717e+02
    3.8399932861e+01    1.5358709717e+02
    3.8499961853e+01    1.5358709717e+02
    3.8599929810e+01    1.5358709717e+02
    3.8699893951e+01    1.5358709717e+02
    3.8799900055e+01    1.5358709717e+02
    3.8899959564e+01    1.5358709717e+02
    3.8999927521e+01    1.5358709717e+02
    3.9099899292e+01    1.5358709717e+02
    3.9199893951e+01    1.5358709717e+02
    3.9299903870e+01    1.5358709717e+02
    3.9399951935e+01    1.5358709717e+02
    3.9499935150e+01    1.5358709717e+02
    3.9599914551e+01    1.5358709717e+02
    3.9699916840e+01    1.5358709717e+02
    3.9799934387e+01    1.5358709717e+02
    3.9899917603e+01    1.5358709717e+02
    3.9999847412e+01    1.5358709717e+02
    4.0099876404e+01    1.5358709717e+02
    4.0199886322e+01    1.5358709717e+02
    4.0299919128e+01    1.5358709717e+02
    4.0399906158e+01    1.5358709717e+02
    4.0499847412e+01    1.5358709717e+02
    4.0599922180e+01    1.5358709717e+02
    4.0699844360e+01    1.5358709717e+02
    4.0799877167e+01    1.5358709717e+02
    4.0899856567e+01    1.5358709717e+02
    4.0999935150e+01    1.5358810425e+02
    4.1099845886e+01    1.5358810425e+02
    4.1199836731e+01    1.5358810425e+02
    4.1299869537e+01    1.5358810425e+02
    4.1399860382e+01    1.5358810425e+02
    4.1499919891e+01    1.5358810425e+02
    4.1599845886e+01    1.5358810425e+02
    4.1699848175e+01    1.5358810425e+02
    4.1799892426e+01    1.5358810425e+02
    4.1899864197e+01    1.5358810425e+02
    4.1999843597e+01    1.5358810425e+02
    4.2099918365e+01    1.5358810425e+02
    4.2199855804e+01    1.5358810425e+02
    4.2299926758e+01    1.5358810425e+02
    4.2399852753e+01    1.5358810425e+02
    4.2499912262e+01    1.5358810425e+02
    4.2599887848e+01    1.5358810425e+02
    4.2699878693e+01    1.5358810425e+02
    4.2799865723e+01    1.5358810425e+02
    4.2899795532e+01    1.5358810425e+02
    4.2999843597e+01    1.5358810425e+02
    4.3099811554e+01    1.5358810425e+02
    4.3199821472e+01    1.5358810425e+02
    4.3299819946e+01    1.5358810425e+02
    4.3399852753e+01    1.5358810425e+02
    4.3499839783e+01    1.5358810425e+02
    4.3599849701e+01    1.5358810425e+02
    4.3699897766e+01    1.5358810425e+02
    4.3799858093e+01    1.5358810425e+02
    4.3899845123e+01    1.5358810425e+02
    4.3999805450e+01    1.5358810425e+02
    4.4099788666e+01    1.5358810425e+02
    4.4199893951e+01    1.5358810425e+02
    4.4299869537e+01    1.5358810425e+02
    4.4399829865e+01    1.5358810425e+02
    4.4499889374e+01    1.5358810425e+02
    4.4599807739e+01    1.5358810425e+02
    4.4699775696e+01    1.5358810425e+02
    4.4799827576e+01    1.5358810425e+02
    4.4899868011e+01    1.5358810425e+02
    4.4999828339e+01    1.5358810425e+02
    4.5099800110e+01    1.5358810425e+02
    4.5199859619e+01    1.5358810425e+02
    4.5299865723e+01    1.5358810425e+02
    4.5399795532e+01    1.5358810425e+02
    4.5499824524e+01    1.5358810425e+02
    4.5599849701e+01    1.5358810425e+02
    4.5699836731e+01    1.5358810425e+02
    4.5799869537e+01    1.5358810425e+02
    4.5899799347e+01    1.5358810425e+02
    4.5999809265e+01    1.5358810425e+02
    4.6099811554e+01    1.5358810425e+02
    4.6199748993e+01    1.5358810425e+02
    4.6299770355e+01    1.5358810425e+02
    4.6399860382e+01    1.5358810425e+02
    4.6499778748e+01    1.5358810425e+02
    4.6599769592e+01    1.5358810425e+02
    4.6699768066e+01    1.5358810425e+02
    4.6799835205e+01    1.5358810425e+02
    4.6899768829e+01    1.5358810425e+02
    4.6999774933e+01    1.5358810425e+02
    4.7099754333e+01    1.5358810425e+02
    4.7199821472e+01    1.5358810425e+02
    4.7299766541e+01    1.5358810425e+02
    4.7399837494e+01    1.5358810425e+02
    4.7499832153e+01    1.5358810425e+02
    4.7599788666e+01    1.5358810425e+02
    4.7699813843e+01    1.5358810425e+02
    4.7799736023e+01    1.5358810425e+02
    4.7899726868e+01    1.5358810425e+02
    4.7999755859e+01    1.5358810425e+02
    4.8099746704e+01    1.5358810425e+02
    4.8199726105e+01    1.5358810425e+02
    4.8299816132e+01    1.5358810425e+02
    4.8399742126e+01    1.5358810425e+02
    4.8499774933e+01    1.5358810425e+02
    4.8599777222e+01    1.5358810425e+02
    4.8699810028e+01    1.5358810425e+02
    4.8799800873e+01    1.5358810425e+02
    4.8899745941e+01    1.5358810425e+02
    4.8999805450e+01    1.5358810425e+02
    4.9099800110e+01    1.5358810425e+02
    4.9199771881e+01    1.5358810425e+02
    4.9299720764e+01    1.5358709717e+02
    4.9399795532e+01    1.5358709717e+02
    4.9499706268e+01    1.5358709717e+02
    4.9599746704e+01    1.5358709717e+02
    4.9699752808e+01    1.5358709717e+02
    4.9799770355e+01    1.5358709717e+02
    4.9899806976e+01    1.5358709717e+02
    4.9999790192e+01    1.5358709717e+02
    5.0099796295e+01    1.5358709717e+02
    5.0199714661e+01    1.5358709717e+02
    5.0299709320e+01    1.5358709717e+02
    5.0399711609e+01    1.5358709717e+02
    5.0499683380e+01    1.5358709717e+02
    5.0599723816e+01    1.5358709717e+02
    5.0699768066e+01    1.5358709717e+02
    5.0799781799e+01    1.5358709717e+02
    5.0899700165e+01    1.5358709717e+02
    5.0999767303e+01    1.5358709717e+02
    5.1099716187e+01    1.5358709717e+02
    5.1199745178e+01    1.5358709717e+02
    5.1299697876e+01    1.5358709717e+02
    5.1399784088e+01    1.5358709717e+02
    5.1499721527e+01    1.5358709717e+02
    5.1599727631e+01    1.5358709717e+02
    5.1699760437e+01    1.5358709717e+02
    5.1799770355e+01    1.5358709717e+02
    5.1899753571e+01    1.5358709717e+02
    5.1999717712e+01    1.5358709717e+02
    5.2099750519e+01    1.5358709717e+02
    5.2199699402e+01    1.5358709717e+02
    5.2299659729e+01    1.5358709717e+02
    5.2399749756e+01    1.5358709717e+02
    5.2499717712e+01    1.5358709717e+02
    5.2599658966e+01    1.5358709717e+02
    5.2699752808e+01    1.5358709717e+02
    5.2799728394e+01    1.5358709717e+02
    5.2899700165e+01    1.5358709717e+02
    5.2999744415e+01    1.5358709717e+02
    5.3099693298e+01    1.5358709717e+02
    5.3199760437e+01    1.5358709717e+02
    5.3299743652e+01    1.5358709717e+02
    5.3399711609e+01    1.5358709717e+02
    5.3499694824e+01    1.5358610535e+02
    5.3599731445e+01    1.5358610535e+02
    5.3699638367e+01    1.5358610535e+02
    5.3799652100e+01    1.5358610535e+02
    5.3899703979e+01    1.5358610535e+02
    5.3999660492e+01    1.5358610535e+02
    5.4099647522e+01    1.5358610535e+02
    5.4199653625e+01    1.5358610535e+02
    5.4299674988e+01    1.5358610535e+02
    5.4399703979e+01    1.5358610535e+02
    5.4499664307e+01    1.5358610535e+02
    5.4599674225e+01    1.5358610535e+02
    5.4699634552e+01    1.5358610535e+02
    5.4799652100e+01    1.5358610535e+02
    5.4899646759e+01    1.5358610535e+02
    5.4999668121e+01    1.5358610535e+02
    5.5099708557e+01    1.5358610535e+02
    5.5199615479e+01    1.5358610535e+02
    5.5299636841e+01    1.5358610535e+02
    5.5399681091e+01    1.5358610535e+02
    5.5499641418e+01    1.5358610535e+02
    5.5599601746e+01    1.5358610535e+02
    5.5699668884e+01    1.5358610535e+02
    5.5799610138e+01    1.5358610535e+02
    5.5899639130e+01    1.5358610535e+02
    5.5999683380e+01    1.5358610535e+02
    5.6099670410e+01    1.5358509827e+02
    5.6199657440e+01    1.5358509827e+02
    5.6299659729e+01    1.5358509827e+02
    5.6399604797e+01    1.5358509827e+02
    5.6499710083e+01    1.5358509827e+02
    5.6599655151e+01    1.5358509827e+02
    5.6699596405e+01    1.5358509827e+02
    5.6799705505e+01    1.5358509827e+02
    5.6899684906e+01    1.5358509827e+02
    5.6999694824e+01    1.5358509827e+02
    5.7099609375e+01    1.5358509827e+02
    5.7199676514e+01    1.5358509827e+02
    5.7299686432e+01    1.5358509827e+02
    5.7399631500e+01    1.5358509827e+02
    5.7499694824e+01    1.5358509827e+02
    5.7599617004e+01    1.5358509827e+02
    5.7699645996e+01    1.5358509827e+02
    5.7799663544e+01    1.5358509827e+02
    5.7899662018e+01    1.5358509827e+02
    5.7999668121e+01    1.5358410645e+02
    5.8099613190e+01    1.5358410645e+02
    5.8199661255e+01    1.5358410645e+02
    5.8299678802e+01    1.5358410645e+02
    5.8399639130e+01    1.5358410645e+02
    5.8499668121e+01    1.5358410645e+02
    5.8599666595e+01    1.5358410645e+02
    5.8699577332e+01    1.5358410645e+02
    5.8799652100e+01    1.5358410645e+02
    5.8899639130e+01    1.5358410645e+02
    5.8999633789e+01    1.5358410645e+02
    5.9099597931e+01    1.5358410645e+02
    5.9199623108e+01    1.5358410645e+02
    5.9299583435e+01    1.5358410645e+02
    5.9399566650e+01    1.5358410645e+02
    5.9499614716e+01    1.5358410645e+02
    5.9599594116e+01    1.5358309937e+02
    5.9699573517e+01    1.5358309937e+02
    5.9799571991e+01    1.5358309937e+02
    5.9899578094e+01    1.5358309937e+02
    5.9999599457e+01    1.5358309937e+02
    6.0099552155e+01    1.5358309937e+02
    6.0199649811e+01    1.5358309937e+02
    6.0299549103e+01    1.5358309937e+02
    6.0399593353e+01    1.5358309937e+02
    6.0499576569e+01    1.5358309937e+02
    6.0599590302e+01    1.5358309937e+02
    6.0699607849e+01    1.5358309937e+02
    6.0799640656e+01    1.5358210754e+02
    6.0899616241e+01    1.5358210754e+02
    6.0999523163e+01    1.5358210754e+02
    6.1099548340e+01    1.5358210754e+02
    6.1199611664e+01    1.5358210754e+02
    6.1299549103e+01    1.5358210754e+02
    6.1399551392e+01    1.5358210754e+02
    6.1499584198e+01    1.5358210754e+02
    6.1599536896e+01    1.5358210754e+02
    6.1699623108e+01    1.5358210754e+02
    6.1799583435e+01    1.5358110046e+02
    6.1899520874e+01    1.5358110046e+02
    6.1999542236e+01    1.5358110046e+02
    6.2099544525e+01    1.5358110046e+02
    6.2199619293e+01    1.5358110046e+02
    6.2299564362e+01    1.5358110046e+02
    6.2399604797e+01    1.5358110046e+02
    6.2499515533e+01    1.5358110046e+02
    6.2599590302e+01    1.5358009338e+02
    6.2699573517e+01    1.5358009338e+02
    6.2799518585e+01    1.5358009338e+02
    6.2899524689e+01    1.5358009338e+02
    6.2999507904e+01    1.5358009338e+02
    6.3099575043e+01    1.5358009338e+02
    6.3199562073e+01    1.5358009338e+02
    6.3299499512e+01    1.5357910156e+02
    6.3399562836e+01    1.5357910156e+02
    6.3499507904e+01    1.5357910156e+02
    6.3599491119e+01    1.5357910156e+02
    6.3699501038e+01    1.5357910156e+02
    6.3799507141e+01    1.5357910156e+02
    6.3899547577e+01    1.5357809448e+02
    6.3999576569e+01    1.5357809448e+02
    6.4099563599e+01    1.5357809448e+02
    6.4199584961e+01    1.5357809448e+02
    6.4299530029e+01    1.5357809448e+02
    6.4399475098e+01    1.5357809448e+02
    6.4499534607e+01    1.5357710266e+02
    6.4599548340e+01    1.5357710266e+02
    6.4699493408e+01    1.5357710266e+02
    6.4799552917e+01    1.5357710266e+02
    6.4899475098e+01    1.5357710266e+02
    6.4999519348e+01    1.5357609558e+02
    6.5099525452e+01    1.5357609558e+02
    6.5199462891e+01    1.5357609558e+02
    6.5299476624e+01    1.5357609558e+02
    6.5399490356e+01    1.5357510376e+02
    6.5499465942e+01    1.5357510376e+02
    6.5599525452e+01    1.5357510376e+02
    6.5699562073e+01    1.5357510376e+02
    6.5799491882e+01    1.5357409668e+02
    6.5899497986e+01    1.5357409668e+02
    6.5999511719e+01    1.5357409668e+02
    6.6099456787e+01    1.5357409668e+02
    6.6199516296e+01    1.5357310486e+02
    6.6299468994e+01    1.5357310486e+02
    6.6399543762e+01    1.5357310486e+02
    6.6499488831e+01    1.5357209778e+02
    6.6599449158e+01    1.5357209778e+02
    6.6699447632e+01    1.5357209778e+02
    6.6799507141e+01    1.5357110596e+02
    6.6899452209e+01    1.5357110596e+02
    6.6999488831e+01    1.5357110596e+02
    6.7099456787e+01    1.5357009888e+02
    6.7199508667e+01    1.5357009888e+02
    6.7299430847e+01    1.5357009888e+02
    6.7399475098e+01    1.5356910706e+02
    6.7499458313e+01    1.5356910706e+02
    6.7599502563e+01    1.5356910706e+02
    6.7699424744e+01    1.5356809998e+02
    6.7799430847e+01    1.5356809998e+02
    6.7899459839e+01    1.5356709290e+02
    6.7999473572e+01    1.5356709290e+02
    6.8099426270e+01    1.5356610107e+02
    6.8199501038e+01    1.5356610107e+02
    6.8299430847e+01    1.5356509399e+02
    6.8399436951e+01    1.5356509399e+02
    6.8499435425e+01    1.5356509399e+02
    6.8599487305e+01    1.5356410217e+02
    6.8699485779e+01    1.5356410217e+02
    6.8799446106e+01    1.5356309509e+02
    6.8899475098e+01    1.5356210327e+02
    6.8999443054e+01    1.5356210327e+02
    6.9099464417e+01    1.5356109619e+02
    6.9199478149e+01    1.5356109619e+02
    6.9299476624e+01    1.5356010437e+02
    6.9399429321e+01    1.5356010437e+02
    6.9499504089e+01    1.5355909729e+02
    6.9599395752e+01    1.5355810547e+02
    6.9699409485e+01    1.5355810547e+02
    6.9799484253e+01    1.5355709839e+02
    6.9899398804e+01    1.5355610657e+02
    6.9999389648e+01    1.5355610657e+02
    7.0099502563e+01    1.5355509949e+02
    7.0199401855e+01    1.5355410767e+02
    7.0299407959e+01    1.5355410767e+02
    7.0399406433e+01    1.5355310059e+02
    7.0499404907e+01    1.5355209351e+02
    7.0599456787e+01    1.5355110168e+02
    7.0699447632e+01    1.5355110168e+02
    7.0799400330e+01    1.5355009460e+02
    7.0899482727e+01    1.5354910278e+02
    7.0999473572e+01    1.5354809570e+02
    7.1099372864e+01    1.5354710388e+02
    7.1199447632e+01    1.5354609680e+02
    7.1299461365e+01    1.5354510498e+02
    7.1399375916e+01    1.5354409790e+02
    7.1499412537e+01    1.5354310608e+02
    7.1599441528e+01    1.5354310608e+02
    7.1699432373e+01    1.5354209900e+02
    7.1799438477e+01    1.5354010010e+02
    7.1899368286e+01    1.5353909302e+02
    7.1999427795e+01    1.5353810120e+02
    7.2099456787e+01    1.5353709412e+02
    7.2199386597e+01    1.5353610229e+02
    7.2299385071e+01    1.5353509521e+02
    7.2399444580e+01    1.5353410339e+02
    7.2499404907e+01    1.5353309631e+02
    7.2599411011e+01    1.5353109741e+02
    7.2699378967e+01    1.5353010559e+02
    7.2799346924e+01    1.5352909851e+02
    7.2899360657e+01    1.5352810669e+02
    7.2999343872e+01    1.5352610779e+02
    7.3099449158e+01    1.5352510071e+02
    7.3199356079e+01    1.5352310181e+02
    7.3299407959e+01    1.5352209473e+02
    7.3399383545e+01    1.5352110291e+02
    7.3499427795e+01    1.5351910400e+02
    7.3599395752e+01    1.5351710510e+02
    7.3699356079e+01    1.5351609802e+02
    7.3799331665e+01    1.5351409912e+02
    7.3899337769e+01    1.5351310730e+02
    7.3999389648e+01    1.5351109314e+02
    7.4099388123e+01    1.5350909424e+02
    7.4199432373e+01    1.5350709534e+02
    7.4299369812e+01    1.5350610352e+02
    7.4399383545e+01    1.5350410461e+02
    7.4499412537e+01    1.5350210571e+02
    7.4599342346e+01    1.5350010681e+02
    7.4699371338e+01    1.5349810791e+02
    7.4799331665e+01    1.5349609375e+02
    7.4899368286e+01    1.5349409485e+02
    7.4999320984e+01    1.5349209595e+02
    7.5099372864e+01    1.5349009705e+02
    7.5199348450e+01    1.5348809814e+02
    7.5299369812e+01    1.5348510742e+02
    7.5399337769e+01    1.5348309326e+02
    7.5499359131e+01    1.5348109436e+02
    7.5599411011e+01    1.5347810364e+02
    7.5699386597e+01    1.5347610474e+02
    7.5799369812e+01    1.5347309875e+02
    7.5899406433e+01    1.5347109985e+02
    7.5999343872e+01    1.5346809387e+02
    7.6099304199e+01    1.5346510315e+02
    7.6199348450e+01    1.5346310425e+02
    7.6299392700e+01    1.5346009827e+02
    7.6399353027e+01    1.5345710754e+02
    7.6499298096e+01    1.5345410156e+02
    7.6599357605e+01    1.5345109558e+02
    7.6699348450e+01    1.5344810486e+02
    7.6799316406e+01    1.5344509888e+02
    7.6899284363e+01    1.5344110107e+02
    7.6999320984e+01    1.5343809509e+02
    7.7099304199e+01    1.5343510437e+02
    7.7199348450e+01    1.5343110657e+02
    7.7299339294e+01    1.5342810059e+02
    7.7399299622e+01    1.5342410278e+02
    7.7499382019e+01    1.5342109680e+02
    7.7599365234e+01    1.5341709900e+02
    7.7699279785e+01    1.5341310120e+02
    7.7799316406e+01    1.5340910339e+02
    7.7899291992e+01    1.5340510559e+02
    7.7999267578e+01    1.5340110779e+02
    7.8099296570e+01    1.5339709473e+02
    7.8199333191e+01    1.5339210510e+02
    7.8299278259e+01    1.5338810730e+02
    7.8399345398e+01    1.5338310242e+02
    7.8499343872e+01    1.5337910461e+02
    7.8599281311e+01    1.5337409973e+02
    7.8699272156e+01    1.5336909485e+02
    7.8799346924e+01    1.5336410522e+02
    7.8899284363e+01    1.5335910034e+02
    7.8999343872e+01    1.5335409546e+02
    7.9099288940e+01    1.5334910583e+02
    7.9199279785e+01    1.5334410095e+02
    7.9299285889e+01    1.5333810425e+02
    7.9399276733e+01    1.5333309937e+02
    7.9499313354e+01    1.5332710266e+02
    7.9599311829e+01    1.5332110596e+02
    7.9699256897e+01    1.5331509399e+02
    7.9799346924e+01    1.5330909729e+02
    7.9899322510e+01    1.5330310059e+02
    7.9999290466e+01    1.5329609680e+02
    8.0099349976e+01    1.5329010010e+02
    8.0199234009e+01    1.5328309631e+02
    8.0299331665e+01    1.5327610779e+02
    8.0399238586e+01    1.5326910400e+02
    8.0499244690e+01    1.5326210022e+02
    8.0599319458e+01    1.5325509644e+02
    8.0699302673e+01    1.5324710083e+02
    8.0799339294e+01    1.5324009705e+02
    8.0899322510e+01    1.5323210144e+02
    8.0999290466e+01    1.5322410583e+02
    8.1099296570e+01    1.5321609497e+02
    8.1199302673e+01    1.5320809937e+02
    8.1299301147e+01    1.5319909668e+02
    8.1399284363e+01    1.5319110107e+02
    8.1499298096e+01    1.5318209839e+02
    8.1599273682e+01    1.5317309570e+02
    8.1699310303e+01    1.5316409302e+02
    8.1799255371e+01    1.5315409851e+02
    8.1899276733e+01    1.5314509583e+02
    8.1999244690e+01    1.5313510132e+02
    8.2099243164e+01    1.5312510681e+02
    8.2199218750e+01    1.5311509705e+02
    8.2299201965e+01    1.5310409546e+02
    8.2399200439e+01    1.5309410095e+02
    8.2499282837e+01    1.5308309937e+02
    8.2599243164e+01    1.5307209778e+02
    8.2699272156e+01    1.5306010437e+02
    8.2799278259e+01    1.5304910278e+02
    8.2899192810e+01    1.5303709412e+02
    8.2999221802e+01    1.5302510071e+02
    8.3099197388e+01    1.5301310730e+02
    8.3199203491e+01    1.5300010681e+02
    8.3299293518e+01    1.5298710632e+02
    8.3399276733e+01    1.5297410583e+02
    8.3499198914e+01    1.5296110535e+02
    8.3599243164e+01    1.5294709778e+02
    8.3699264526e+01    1.5293310547e+02
    8.3799285889e+01    1.5291909790e+02
    8.3899230957e+01    1.5290510559e+02
    8.3999275208e+01    1.5289010620e+02
    8.4099182129e+01    1.5287510681e+02
    8.4199172974e+01    1.5285910034e+02
    8.4299232483e+01    1.5284410095e+02
    8.4399246216e+01    1.5282809448e+02
    8.4499176025e+01    1.5281109619e+02
    8.4599182129e+01    1.5279510498e+02
    8.4699218750e+01    1.5277810669e+02
    8.4799194336e+01    1.5276010132e+02
    8.4899208069e+01    1.5274310303e+02
    8.4999206543e+01    1.5272509766e+02
    8.5099212646e+01    1.5270610046e+02
    8.5199211121e+01    1.5268809509e+02
    8.5299263000e+01    1.5266909790e+02
    8.5399154663e+01    1.5264909363e+02
    8.5499183655e+01    1.5262910461e+02
    8.5599220276e+01    1.5260910034e+02
    8.5699218750e+01    1.5258909607e+02
    8.5799217224e+01    1.5256809998e+02
    8.5899253845e+01    1.5254609680e+02
    8.5999221802e+01    1.5252409363e+02
    8.6099227905e+01    1.5250210571e+02
    8.6199249268e+01    1.5247909546e+02
    8.6299247742e+01    1.5245610046e+02
    8.6399177551e+01    1.5243310547e+02
    8.6499160767e+01    1.5240910339e+02
    8.6599166870e+01    1.5238510132e+02
    8.6699157715e+01    1.5236010742e+02
    8.6799186707e+01    1.5233410645e+02
    8.6899230957e+01    1.5230909729e+02
    8.6999206543e+01    1.5228210449e+02
    8.7099227905e+01    1.5225610352e+02
    8.7199157715e+01    1.5222810364e+02
    8.7299179077e+01    1.5220109558e+02
    8.7399185181e+01    1.5217210388e+02
    8.7499191284e+01    1.5214410400e+02
    8.7599197388e+01    1.5211410522e+02
    8.7699203491e+01    1.5208509827e+02
    8.7799148560e+01    1.5205410767e+02
    8.7899154663e+01    1.5202409363e+02
    8.7999122620e+01    1.5199209595e+02
    8.8099174500e+01    1.5196009827e+02
    8.8199180603e+01    1.5192810059e+02
    8.8299186707e+01    1.5189509583e+02
    8.8399139404e+01    1.5186109924e+02
    8.8499145508e+01    1.5182710266e+02
    8.8599143982e+01    1.5179209900e+02
    8.8699142456e+01    1.5175610352e+02
    8.8799148560e+01    1.5172010803e+02
    8.8899093628e+01    1.5168409729e+02
    8.8999099731e+01    1.5164610291e+02
    8.9099105835e+01    1.5160809326e+02
    8.9199195862e+01    1.5157009888e+02
    8.9299087524e+01    1.5153109741e+02
    8.9399093628e+01    1.5149110413e+02
    8.9499107361e+01    1.5145010376e+02
    8.9599121094e+01    1.5140910339e+02
    8.9699127197e+01    1.5136709595e+02
    8.9799140930e+01    1.5132409668e+02
    8.9899154663e+01    1.5128109741e+02
    8.9999168396e+01    1.5123710632e+02
    9.0099174500e+01    1.5119309998e+02
    9.0199188232e+01    1.5114709473e+02
    9.0299156189e+01    1.5110110474e+02
    9.0399169922e+01    1.5105410767e+02
    9.0499183655e+01    1.5100610352e+02
    9.0599128723e+01    1.5095809937e+02
    9.0699127197e+01    1.5090910339e+02
    9.0799118042e+01    1.5085910034e+02
    9.0899147034e+01    1.5080810547e+02
    9.0999084473e+01    1.5075709534e+02
    9.1099082947e+01    1.5070509338e+02
    9.1199096680e+01    1.5065209961e+02
    9.1299125671e+01    1.5059910583e+02
    9.1399085999e+01    1.5054510498e+02
    9.1499061584e+01    1.5049009705e+02
    9.1599105835e+01    1.5043409729e+02
    9.1699165344e+01    1.5037809753e+02
    9.1799148560e+01    1.5032110596e+02
    9.1899093628e+01    1.5026310730e+02
    9.1999084473e+01    1.5020509338e+02
    9.2099075317e+01    1.5014610291e+02
    9.2199058533e+01    1.5008709717e+02
    9.2299118042e+01    1.5002610779e+02
    9.2399078369e+01    1.4996609497e+02
    9.2499076843e+01    1.4990409851e+02
    9.2599143982e+01    1.4984210205e+02
    9.2699073792e+01    1.4977909851e+02
    9.2799064636e+01    1.4971510315e+02
    9.2899139404e+01    1.4965110779e+02
    9.2999130249e+01    1.4958610535e+02
    9.3099090576e+01    1.4952009583e+02
    9.3199096680e+01    1.4945309448e+02
    9.3299072266e+01    1.4938510132e+02
    9.3399085999e+01    1.4931709290e+02
    9.3499076843e+01    1.4924710083e+02
    9.3599067688e+01    1.4917709351e+02
    9.3699028015e+01    1.4910609436e+02
    9.3799034119e+01    1.4903410339e+02
    9.3899093628e+01    1.4896110535e+02
    9.3999114990e+01    1.4888710022e+02
    9.4099060059e+01    1.4881210327e+02
    9.4199096680e+01    1.4873609924e+02
    9.4299095154e+01    1.4865910339e+02
    9.4399070740e+01    1.4858110046e+02
    9.4499038696e+01    1.4850210571e+02
    9.4599075317e+01    1.4842210388e+02
    9.4699028015e+01    1.4834109497e+02
    9.4799026489e+01    1.4825909424e+02
    9.4899093628e+01    1.4817610168e+02
    9.4999114990e+01    1.4809210205e+02
    9.5099067688e+01    1.4800709534e+02
    9.5199096680e+01    1.4792010498e+02
    9.5299003601e+01    1.4783309937e+02
    9.5399017334e+01    1.4774510193e+02
    9.5499038696e+01    1.4765609741e+02
    9.5599006653e+01    1.4756509399e+02
    9.5699104309e+01    1.4747410583e+02
    9.5799079895e+01    1.4738110352e+02
    9.5899024963e+01    1.4728810120e+02
    9.5998992920e+01    1.4719410706e+02
    9.6099098206e+01    1.4709809875e+02
    9.6199050903e+01    1.4700210571e+02
    9.6299041748e+01    1.4690409851e+02
    9.6399078369e+01    1.4680609131e+02
    9.6499008179e+01    1.4670610046e+02
    9.6599060059e+01    1.4660610962e+02
    9.6699028015e+01    1.4650509644e+02
    9.6798995972e+01    1.4640209961e+02
    9.6899078369e+01    1.4629910278e+02
    9.6999046326e+01    1.4619409180e+02
    9.7099029541e+01    1.4608911133e+02
    9.7199020386e+01    1.4598309326e+02
    9.7299079895e+01    1.4587509155e+02
    9.7399078369e+01    1.4576708984e+02
    9.7498992920e+01    1.4565811157e+02
    9.7599029541e+01    1.4554809570e+02
    9.7698989868e+01    1.4543609619e+02
    9.7798995972e+01    1.4532409668e+02
    9.7898971558e+01    1.4521109009e+02
    9.7998977661e+01    1.4509710693e+02
    9.8098968506e+01    1.4498210144e+02
    9.8199058533e+01    1.4486509705e+02
    9.8299064636e+01    1.4474810791e+02
    9.8399009705e+01    1.4463009644e+02
    9.8499038696e+01    1.4451110840e+02
    9.8598960876e+01    1.4439010620e+02
    9.8698982239e+01    1.4426910400e+02
    9.8799018860e+01    1.4414709473e+02
    9.8898994446e+01    1.4402310181e+02
    9.8999038696e+01    1.4389910889e+02
    9.9098983765e+01    1.4377410889e+02
    9.9198959351e+01    1.4364709473e+02
    9.9299049377e+01    1.4352011108e+02
    9.9398971558e+01    1.4339109802e+02
    9.9499008179e+01    1.4326210022e+02
    9.9598976135e+01    1.4313110352e+02
    9.9699012756e+01    1.4299909973e+02
    9.9798942566e+01    1.4286709595e+02
    9.9898963928e+01    1.4273309326e+02
    9.9998931885e+01    1.4259809875e+02
    1.0009902191e+02    1.4246209717e+02
    1.0019902039e+02    1.4232510376e+02
    1.0029895020e+02    1.4218710327e+02
    1.0039894867e+02    1.4204809570e+02
    1.0049893188e+02    1.4190811157e+02
    1.0059896851e+02    1.4176708984e+02
    1.0069892883e+02    1.4162409973e+02
    1.0079892731e+02    1.4148110962e+02
    1.0089897156e+02    1.4133609009e+02
    1.0099896240e+02    1.4119110107e+02
    1.0109892273e+02    1.4104409790e+02
    1.0119895172e+02    1.4089709473e+02
    1.0129898071e+02    1.4074810791e+02
    1.0139897919e+02    1.4059809875e+02
    1.0149893951e+02    1.4044709778e+02
    1.0159893799e+02    1.4029510498e+02
    1.0169898224e+02    1.4014208984e+02
    1.0179895782e+02    1.3998809814e+02
    1.0189897156e+02    1.3983309937e+02
    1.0199893951e+02    1.3967610168e+02
    1.0209896088e+02    1.3951910400e+02
    1.0219898224e+02    1.3936109924e+02
    1.0229898834e+02    1.3920111084e+02
    1.0239893341e+02    1.3904110718e+02
    1.0249899292e+02    1.3887908936e+02
    1.0259889984e+02    1.3871710205e+02
    1.0269895935e+02    1.3855310059e+02
    1.0279894257e+02    1.3838809204e+02
    1.0289898682e+02    1.3822309875e+02
    1.0299893188e+02    1.3805609131e+02
    1.0309896851e+02    1.3788909912e+02
    1.0319895172e+02    1.3772009277e+02
    1.0329897308e+02    1.3755110168e+02
    1.0339891815e+02    1.3738009644e+02
    1.0349890900e+02    1.3720910645e+02
    1.0359889221e+02    1.3703710938e+02
    1.0369888306e+02    1.3686410522e+02
    1.0379891205e+02    1.3668910217e+02
    1.0389888763e+02    1.3651409912e+02
    1.0399894714e+02    1.3633810425e+02
    1.0409890747e+02    1.3616110229e+02
    1.0419889832e+02    1.3598309326e+02
    1.0429892731e+02    1.3580410767e+02
    1.0439897156e+02    1.3562409973e+02
    1.0449887085e+02    1.3544309998e+02
    1.0459890747e+02    1.3526110840e+02
    1.0469886017e+02    1.3507809448e+02
    1.0479885101e+02    1.3489410400e+02
    1.0489888763e+02    1.3470910645e+02
    1.0499887848e+02    1.3452209473e+02
    1.0509889984e+02    1.3433509827e+02
    1.0519888306e+02    1.3414709473e+02
    1.0529888916e+02    1.3395709229e+02
    1.0539888763e+02    1.3376708984e+02
    1.0549890900e+02    1.3357510376e+02
    1.0559889984e+02    1.3338310242e+02
    1.0569892120e+02    1.3318910217e+02
    1.0579888916e+02    1.3299411011e+02
    1.0589890289e+02    1.3279809570e+02
    1.0599886322e+02    1.3260110474e+02
    1.0609893799e+02    1.3240310669e+02
    1.0619886780e+02    1.3220410156e+02
    1.0629885101e+02    1.3200408936e+02
    1.0639891052e+02    1.3180209351e+02
    1.0649884796e+02    1.3160009766e+02
    1.0659892273e+02    1.3139709473e+02
    1.0669886780e+02    1.3119210815e+02
    1.0679888153e+02    1.3098709106e+02
    1.0689891052e+02    1.3078009033e+02
    1.0699881744e+02    1.3057308960e+02
    1.0709884644e+02    1.3036410522e+02
    1.0719891357e+02    1.3015409851e+02
    1.0729889679e+02    1.2994409180e+02
    1.0739884186e+02    1.2973210144e+02
    1.0749884796e+02    1.2951910400e+02
    1.0759886932e+02    1.2930509949e+02
    1.0769889069e+02    1.2909109497e+02
    1.0779881287e+02    1.2887509155e+02
    1.0789891052e+02    1.2865811157e+02
    1.0799891663e+02    1.2844009399e+02
    1.0809887695e+02    1.2822210693e+02
    1.0819891357e+02    1.2800210571e+02
    1.0829885101e+02    1.2778109741e+02
    1.0839885712e+02    1.2756009674e+02
    1.0849886322e+02    1.2733709717e+02
    1.0859887695e+02    1.2711309814e+02
    1.0869882202e+02    1.2688909912e+02
    1.0879878998e+02    1.2666310120e+02
    1.0889884186e+02    1.2643610382e+02
    1.0899878693e+02    1.2620909882e+02
    1.0909882355e+02    1.2598010254e+02
    1.0919882965e+02    1.2575009918e+02
    1.0929885864e+02    1.2551910400e+02
    1.0939884186e+02    1.2528810120e+02
    1.0949880981e+02    1.2505509949e+02
    1.0959882355e+02    1.2482209778e+02
    1.0969879150e+02    1.2458709717e+02
    1.0979888153e+02    1.2435109711e+02
    1.0989887238e+02    1.2411509705e+02
    1.0999884796e+02    1.2387809753e+02
    1.1009877777e+02    1.2364009857e+02
    1.1019885254e+02    1.2340010071e+02
    1.1029885864e+02    1.2316010284e+02
    1.1039884949e+02    1.2291909790e+02
    1.1049883270e+02    1.2267810059e+02
    1.1059886932e+02    1.2243509674e+02
    1.1069880676e+02    1.2219110107e+02
    1.1079875946e+02    1.2194709778e+02
    1.1089884186e+02    1.2170210266e+02
    1.1099884796e+02    1.2145510101e+02
    1.1109882355e+02    1.2120809937e+02
    1.1119876099e+02    1.2096109772e+02
    1.1129876709e+02    1.2071209717e+02
    1.1139875793e+02    1.2046209717e+02
    1.1149884033e+02    1.2021109772e+02
    1.1159874725e+02    1.1996009827e+02
    1.1169877625e+02    1.1970809937e+02
    1.1179884338e+02    1.1945410156e+02
    1.1189878082e+02    1.1920010376e+02
    1.1199874115e+02    1.1894540405e+02
    1.1209879303e+02    1.1868920135e+02
    1.1219885254e+02    1.1843209839e+02
    1.1229876709e+02    1.1817440033e+02
    1.1239877319e+02    1.1791549683e+02
    1.1249883270e+02    1.1765560150e+02
    1.1259879303e+02    1.1739489746e+02
    1.1269873047e+02    1.1713330078e+02
    1.1279878235e+02    1.1687049866e+02
    1.1289884186e+02    1.1660669708e+02
    1.1299877930e+02    1.1634230042e+02
    1.1309877014e+02    1.1607679749e+02
    1.1319882965e+02    1.1581009674e+02
    1.1329881287e+02    1.1554260254e+02
    1.1339878845e+02    1.1527420044e+02
    1.1349878693e+02    1.1500479889e+02
    1.1359877014e+02    1.1473439789e+02
    1.1369877625e+02    1.1446299744e+02
    1.1379879761e+02    1.1419069672e+02
    1.1389881134e+02    1.1391740417e+02
    1.1399877930e+02    1.1364320374e+02
    1.1409873199e+02    1.1336820221e+02
    1.1419870758e+02    1.1309210205e+02
    1.1429872894e+02    1.1281500244e+02
    1.1439875031e+02    1.1253700256e+02
    1.1449875641e+02    1.1225800323e+02
    1.1459873199e+02    1.1197820282e+02
    1.1469879150e+02    1.1169730377e+02
    1.1479875183e+02    1.1141570282e+02
    1.1489872742e+02    1.1113310242e+02
    1.1499878693e+02    1.1084940338e+02
    1.1509873962e+02    1.1056510162e+02
    1.1519880676e+02    1.1027950287e+02
    1.1529872131e+02    1.0999349976e+02
    1.1539878845e+02    1.0970619965e+02
    1.1549877930e+02    1.0941809845e+02
    1.1559877014e+02    1.0912920380e+02
    1.1569872284e+02    1.0883950043e+02
    1.1579868317e+02    1.0854889679e+02
    1.1589869690e+02    1.0825730133e+02
    1.1599871063e+02    1.0796479797e+02
    1.1609873962e+02    1.0767140198e+02
    1.1619877625e+02    1.0737709808e+02
    1.1629871368e+02    1.0708219910e+02
    1.1639878082e+02    1.0678610229e+02
    1.1649873352e+02    1.0648960114e+02
    1.1659877777e+02    1.0619190216e+02
    1.1669869232e+02    1.0589379883e+02
    1.1679878235e+02    1.0559429932e+02
    1.1689878082e+02    1.0529430389e+02
    1.1699871826e+02    1.0499359894e+02
    1.1709874725e+02    1.0469190216e+02
    1.1719875336e+02    1.0438939667e+02
    1.1729872131e+02    1.0408630371e+02
    1.1739875031e+02    1.0378209686e+02
    1.1749877167e+02    1.0347720337e+02
    1.1759870148e+02    1.0317169952e+02
    1.1769867706e+02    1.0286530304e+02
    1.1779872894e+02    1.0255789948e+02
    1.1789875031e+02    1.0224970245e+02
    1.1799870300e+02    1.0194100189e+02
    1.1809867859e+02    1.0163140106e+02
    1.1819867706e+02    1.0132099915e+02
    1.1829875183e+02    1.0100949860e+02
    1.1839866638e+02    1.0069770050e+02
    1.1849874115e+02    1.0038469696e+02
    1.1859870911e+02    1.0007109833e+02
    1.1869876099e+02    9.9756599426e+01
    1.1879866028e+02    9.9441703796e+01
    1.1889869690e+02    9.9125602722e+01
    1.1899874115e+02    9.8808700562e+01
    1.1909864044e+02    9.8491401672e+01
    1.1919866943e+02    9.8173004150e+01
    1.1929871368e+02    9.7853698730e+01
    1.1939868927e+02    9.7533798218e+01
    1.1949873352e+02    9.7212997437e+01
    1.1959864807e+02    9.6891700745e+01
    1.1969869995e+02    9.6569198608e+01
    1.1979869080e+02    9.6246200562e+01
    1.1989865875e+02    9.5922401428e+01
    1.1999868774e+02    9.5597602844e+01
    1.2009864044e+02    9.5272300720e+01
    1.2019866943e+02    9.4945899963e+01
    1.2029862976e+02    9.4619003296e+01
    1.2039862823e+02    9.4291198730e+01
    1.2049867249e+02    9.3962402344e+01
    1.2059870911e+02    9.3632904053e+01
    1.2069864655e+02    9.3303001404e+01
    1.2079862213e+02    9.2972198486e+01
    1.2089862823e+02    9.2640403748e+01
    1.2099871063e+02    9.2307800293e+01
    1.2109870911e+02    9.1974601746e+01
    1.2119864655e+02    9.1640899658e+01
    1.2129859924e+02    9.1306503296e+01
    1.2139865875e+02    9.0970901489e+01
    1.2149867249e+02    9.0634902954e+01
    1.2159864044e+02    9.0298202515e+01
    1.2169860840e+02    8.9960899353e+01
    1.2179866028e+02    8.9622596741e+01
    1.2189864349e+02    8.9283897400e+01
    1.2199861145e+02    8.8944602966e+01
    1.2209867859e+02    8.8604202271e+01
    1.2219863892e+02    8.8263504028e+01
    1.2229865265e+02    8.7922103882e+01
    1.2239868927e+02    8.7579902649e+01
    1.2249864197e+02    8.7237403870e+01
    1.2259866333e+02    8.6893997192e+01
    1.2269863129e+02    8.6550201416e+01
    1.2279868317e+02    8.6205497742e+01
    1.2289859772e+02    8.5860603333e+01
    1.2299864197e+02    8.5514701843e+01
    1.2309866333e+02    8.5168296814e+01
    1.2319866943e+02    8.4821403503e+01
    1.2329859924e+02    8.4474098206e+01
    1.2339861298e+02    8.4125999451e+01
    1.2349858093e+02    8.3777503967e+01
    1.2359863281e+02    8.3428100586e+01
    1.2369864655e+02    8.3078300476e+01
    1.2379857635e+02    8.2728195190e+01
    1.2389859772e+02    8.2377304077e+01
    1.2399862671e+02    8.2025802612e+01
    1.2409866333e+02    8.1673797607e+01
    1.2419857788e+02    8.1321601868e+01
    1.2429866028e+02    8.0968299866e+01
    1.2439861298e+02    8.0615005493e+01
    1.2449858093e+02    8.0261001587e+01
    1.2459864807e+02    7.9906204224e+01
    1.2469856262e+02    7.9551498413e+01
    1.2479865265e+02    7.9195602417e+01
    1.2489859009e+02    7.8839698792e+01
    1.2499859619e+02    7.8483100891e+01
    1.2509863281e+02    7.8125900269e+01
    1.2519863129e+02    7.7768295288e+01
    1.2529857635e+02    7.7410400391e+01
    1.2539855957e+02    7.7051895142e+01
    1.2549854279e+02    7.6693000793e+01
    1.2559861755e+02    7.6333206177e+01
    1.2569862366e+02    7.5973297119e+01
    1.2579857635e+02    7.5612998962e+01
    1.2589858246e+02    7.5252105713e+01
    1.2599861145e+02    7.4890701294e+01
    1.2609861755e+02    7.4528800964e+01
    1.2619853973e+02    7.4166900635e+01
    1.2629860687e+02    7.3804000854e+01
    1.2639852905e+02    7.3441200256e+01
    1.2649857330e+02    7.3077598572e+01
    1.2659854126e+02    7.2713806152e+01
    1.2669860840e+02    7.2349197388e+01
    1.2679853821e+02    7.1984695435e+01
    1.2689859009e+02    7.1619400024e+01
    1.2699859619e+02    7.1253898621e+01
    1.2709855652e+02    7.0888099670e+01
    1.2719859314e+02    7.0521598816e+01
    1.2729852295e+02    7.0155197144e+01
    1.2739859772e+02    6.9787796021e+01
    1.2749858856e+02    6.9420303345e+01
    1.2759857178e+02    6.9052505493e+01
    1.2769853210e+02    6.8684402466e+01
    1.2779852295e+02    6.8315704346e+01
    1.2789859772e+02    6.7946395874e+01
    1.2799855042e+02    6.7577102661e+01
    1.2809860229e+02    6.7207099915e+01
    1.2819854736e+02    6.6837005615e+01
    1.2829855347e+02    6.6466300964e+01
    1.2839859009e+02    6.6095199585e+01
    1.2849862671e+02    6.5723602295e+01
    1.2859861755e+02    6.5351799011e+01
    1.2869854736e+02    6.4979797363e+01
    1.2879855347e+02    6.4607101440e+01
    1.2889862061e+02    6.4233795166e+01
    1.2899859619e+02    6.3860401154e+01
    1.2909863281e+02    6.3486400604e+01
    1.2919866943e+02    6.3111999512e+01
    1.2929858398e+02    6.2737602234e+01
    1.2939859009e+02    6.2362499237e+01
    1.2949861145e+02    6.1986900330e+01
    1.2959869385e+02    6.1610599518e+01
    1.2969859314e+02    6.1234699249e+01
    1.2979861450e+02    6.0857898712e+01
    1.2989866638e+02    6.0480602264e+01
    1.2999871826e+02    6.0102901459e+01
    1.3009866333e+02    5.9725299835e+01
    1.3019869995e+02    5.9346900940e+01
    1.3029873657e+02    5.8968101501e+01
    1.3039869690e+02    5.8589199066e+01
    1.3049865723e+02    5.8209999084e+01
    1.3059867859e+02    5.7830200195e+01
    1.3069871521e+02    5.7449901581e+01
    1.3079876709e+02    5.7069198608e+01
    1.3089869690e+02    5.6688701630e+01
    1.3099867249e+02    5.6307601929e+01
    1.3109878540e+02    5.5925701141e+01
    1.3119879150e+02    5.5543899536e+01
    1.3129873657e+02    5.5161998749e+01
    1.3139872742e+02    5.4779499054e+01
    1.3149871826e+02    5.4396701813e+01
    1.3159872437e+02    5.4013698578e+01
    1.3169873047e+02    5.3630298615e+01
    1.3179881287e+02    5.3246299744e+01
    1.3189874268e+02    5.2862701416e+01
    1.3199874878e+02    5.2478401184e+01
    1.3209883118e+02    5.2093601227e+01
    1.3219880676e+02    5.1708900452e+01
    1.3229881287e+02    5.1323799133e+01
    1.3239883423e+02    5.0938499451e+01
    1.3249882507e+02    5.0553001404e+01
    1.3259887695e+02    5.0166999817e+01
    1.3269877625e+02    4.9781402588e+01
    1.3279881287e+02    4.9395000458e+01
    1.3289889526e+02    4.9008201599e+01
    1.3299890137e+02    4.8621498108e+01
    1.3309887695e+02    4.8234802246e+01
    1.3319888306e+02    4.7847499847e+01
    1.3329882812e+02    4.7460502625e+01
    1.3339892578e+02    4.7072601318e+01
    1.3349882507e+02    4.6685199738e+01
    1.3359893799e+02    4.6296897888e+01
    1.3369885254e+02    4.5909202576e+01
    1.3379890442e+02    4.5520797729e+01
    1.3389884949e+02    4.5132598877e+01
    1.3399891663e+02    4.4743698120e+01
    1.3409893799e+02    4.4354999542e+01
    1.3419888306e+02    4.3966300964e+01
    1.3429887390e+02    4.3577400208e+01
    1.3439888000e+02    4.3188201904e+01
    1.3449893188e+02    4.2798698425e+01
    1.3459895325e+02    4.2409202576e+01
    1.3469889832e+02    4.2020000458e+01
    1.3479896545e+02    4.1630100250e+01
    1.3489889526e+02    4.1240600586e+01
    1.3499894714e+02    4.0850700378e+01
    1.3509895325e+02    4.0460700989e+01
    1.3519900513e+02    4.0070602417e+01
    1.3529904175e+02    3.9680400848e+01
    1.3539901733e+02    3.9290397644e+01
    1.3549900818e+02    3.8900299072e+01
    1.3559896851e+02    3.8510299683e+01
    1.3569897461e+02    3.8120101929e+01
    1.3579904175e+02    3.7729598999e+01
    1.3589898682e+02    3.7339599609e+01
    1.3599905396e+02    3.6949100494e+01
    1.3609898376e+02    3.6559200287e+01
    1.3619900513e+02    3.6168899536e+01
    1.3629902649e+02    3.5778701782e+01
    1.3639906311e+02    3.5388298035e+01
    1.3649911499e+02    3.4998100281e+01
    1.3659907532e+02    3.4608200073e+01
    1.3669908142e+02    3.4218299866e+01
    1.3679905701e+02    3.3828498840e+01
    1.3689907837e+02    3.3438598633e+01
    1.3699911499e+02    3.3048698425e+01
    1.3709909058e+02    3.2659301758e+01
    1.3719914246e+02    3.2269599915e+01
    1.3729914856e+02    3.1880199432e+01
    1.3739907837e+02    3.1491300583e+01
    1.3749917603e+02    3.1101900101e+01
    1.3759916687e+02    3.0713001251e+01
    1.3769917297e+02    3.0324100494e+01
    1.3779910278e+02    2.9935800552e+01
    1.3789910889e+02    2.9547401428e+01
    1.3799914551e+02    2.9158901215e+01
    1.3809913635e+02    2.8770961761e+01
    1.3819918823e+02    2.8382801056e+01
    1.3829914856e+02    2.7995239258e+01
    1.3839921570e+02    2.7607471466e+01
    1.3849920654e+02    2.7220199585e+01
    1.3859916687e+02    2.6833280563e+01
    1.3869914246e+02    2.6446500778e+01
    1.3879919434e+02    2.6059631348e+01
    1.3889916992e+02    2.5673339844e+01
    1.3899926758e+02    2.5286809921e+01
    1.3909927368e+02    2.4900819778e+01
    1.3919917297e+02    2.4515491486e+01
    1.3929922485e+02    2.4129871368e+01
    1.3939923096e+02    2.3744630814e+01
    1.3949922180e+02    2.3359741211e+01
    1.3959924316e+02    2.2974979401e+01
    1.3969923401e+02    2.2590530396e+01
    1.3979924011e+02    2.2206371307e+01
    1.3989930725e+02    2.1822240829e+01
    1.3999932861e+02    2.1438579559e+01
    1.4009925842e+02    2.1055530548e+01
    1.4019932556e+02    2.0672309875e+01
    1.4029927063e+02    2.0289819717e+01
    1.4039932251e+02    1.9907171249e+01
    1.4049931335e+02    1.9525142670e+01
    1.4059927368e+02    1.9143608093e+01
    1.4069937134e+02    1.8761814117e+01
    1.4079930115e+02    1.8380975723e+01
    1.4089936829e+02    1.7999950409e+01
    1.4099929810e+02    1.7619831085e+01
    1.4109928894e+02    1.7239789963e+01
    1.4119938660e+02    1.6859701157e+01
    1.4129934692e+02    1.6480470657e+01
    1.4139930725e+02    1.6101619720e+01
    1.4149942017e+02    1.5722510338e+01
    1.4159936523e+02    1.5344390869e+01
    1.4169941711e+02    1.4966239929e+01
    1.4179936218e+02    1.4588830948e+01
    1.4189941406e+02    1.4211410522e+01
    1.4199937439e+02    1.3834640503e+01
    1.4209945679e+02    1.3457780838e+01
    1.4219937134e+02    1.3081911087e+01
    1.4229943848e+02    1.2705820084e+01
    1.4239944458e+02    1.2330340385e+01
    1.4249945068e+02    1.1955221176e+01
    1.4259942627e+02    1.1580579758e+01
    1.4269943237e+02    1.1206211090e+01
    1.4279945374e+02    1.0832210541e+01
    1.4289941406e+02    1.0458790779e+01
    1.4299940491e+02    1.0085660934e+01
    1.4309945679e+02    9.7126703262e+00
    1.4319944763e+02    9.3402605057e+00
    1.4329949951e+02    8.9680805206e+00
    1.4339944458e+02    8.5967006683e+00
    1.4349954224e+02    8.2251005173e+00
    1.4359948730e+02    7.8545007706e+00
    1.4369952393e+02    7.4840002060e+00
    1.4379954529e+02    7.1139001846e+00
    1.4389953613e+02    6.7444000244e+00
    1.4399952698e+02    6.3753004074e+00
    1.4409953308e+02    6.0065002441e+00
    1.4419958496e+02    5.6381006241e+00
    1.4429948425e+02    5.2705001831e+00
    1.4439956665e+02    4.9027004242e+00
    1.4449952698e+02    4.5358009338e+00
    1.4459953308e+02    4.1691007614e+00
    1.4469961548e+02    3.8025007248e+00
    1.4479962158e+02    3.4366006851e+00
    1.4489950562e+02    3.0715007782e+00
    1.4499960327e+02    2.7061004639e+00
    1.4509962463e+02    2.3411998749e+00
    1.4519963074e+02    1.9769001007e+00
    1.4529957581e+02    1.6133003235e+00
    1.4539956665e+02    1.2497997284e+00
    1.4549957275e+02    8.8680076599e-01
    1.4559959412e+02    5.2410125732e-01
    1.4569961548e+02    1.6180038452e-01
    1.4579959106e+02   -1.9979858398e-01
    1.4589967346e+02   -5.6130027771e-01
    1.4599958801e+02   -9.2189979553e-01
    1.4609965515e+02   -1.2824001312e+00
    1.4619967651e+02   -1.6422996521e+00
    1.4629960632e+02   -2.0013999939e+00
    1.4639965820e+02   -2.3603000641e+00
    1.4649971008e+02   -2.7187004089e+00
    1.4659968567e+02   -3.0762996674e+00
    1.4669973755e+02   -3.4335994720e+00
    1.4679966736e+02   -3.7898998260e+00
    1.4689964294e+02   -4.1457996368e+00
    1.4699975586e+02   -4.5016994476e+00
    1.4709971619e+02   -4.8564987183e+00
    1.4719967651e+02   -5.2106990814e+00
    1.4729972839e+02   -5.5645999908e+00
    1.4739967346e+02   -5.9175987244e+00
    1.4749972534e+02   -6.2702999115e+00
    1.4759968567e+02   -6.6220989227e+00
    1.4769969177e+02   -6.9734001160e+00
    1.4779977417e+02   -7.3242988586e+00
    1.4789970398e+02   -7.6739997864e+00
    1.4799981689e+02   -8.0236988068e+00
    1.4809979248e+02   -8.3722000122e+00
    1.4819979858e+02   -8.7201004028e+00
    1.4829980469e+02   -9.0672988892e+00
    1.4839976501e+02   -9.4135990143e+00
    1.4849981689e+02   -9.7595996857e+00
    1.4859974670e+02   -1.0104398727e+01
    1.4869981384e+02   -1.0448900223e+01
    1.4879981995e+02   -1.0792400360e+01
    1.4889978027e+02   -1.1135000229e+01
    1.4899981689e+02   -1.1477100372e+01
    1.4909979248e+02   -1.1818199158e+01
    1.4919987488e+02   -1.2158899307e+01
    1.4929983521e+02   -1.2498199463e+01
    1.4939981079e+02   -1.2836898804e+01
    1.4949981689e+02   -1.3174800873e+01
    1.4959988403e+02   -1.3512100220e+01
    1.4969987488e+02   -1.3848300934e+01
    1.4979985046e+02   -1.4183601379e+01
    1.4989990234e+02   -1.4518501282e+01
    1.4999989319e+02   -1.4852298737e+01
    1.5009986877e+02   -1.5185298920e+01
    1.5019984436e+02   -1.5517398834e+01
    1.5029989624e+02   -1.5848999023e+01
    1.5039985657e+02   -1.6179401398e+01
    1.5049995422e+02   -1.6509498596e+01
    1.5059988403e+02   -1.6838100433e+01
    1.5069996643e+02   -1.7166297913e+01
    1.5079994202e+02   -1.7493301392e+01
    1.5089991760e+02   -1.7819400787e+01
    1.5099996948e+02   -1.8144798279e+01
    1.5110000610e+02   -1.8469100952e+01
    1.5119998169e+02   -1.8792301178e+01
    1.5129997253e+02   -1.9114601135e+01
    1.5140002441e+02   -1.9436100006e+01
    1.5149996948e+02   -1.9756401062e+01
    1.5159991455e+02   -2.0075599670e+01
    1.5170002747e+02   -2.0394298553e+01
    1.5180003357e+02   -2.0711799622e+01
    1.5190003967e+02   -2.1028198242e+01
    1.5200004578e+02   -2.1343498230e+01
    1.5210005188e+02   -2.1657897949e+01
    1.5220007324e+02   -2.1971298218e+01
    1.5230006409e+02   -2.2283500671e+01
    1.5240002441e+02   -2.2594600677e+01
    1.5249998474e+02   -2.2904701233e+01
    1.5259997559e+02   -2.3213699341e+01
    1.5270002747e+02   -2.3521697998e+01
    1.5280004883e+02   -2.3828598022e+01
    1.5290002441e+02   -2.4134300232e+01
    1.5300007629e+02   -2.4439098358e+01
    1.5310009766e+02   -2.4742698669e+01
    1.5320008850e+02   -2.5045200348e+01
    1.5330006409e+02   -2.5346401215e+01
    1.5340011597e+02   -2.5646800995e+01
    1.5350015259e+02   -2.5946098328e+01
    1.5360008240e+02   -2.6243801117e+01
    1.5370016479e+02   -2.6540901184e+01
    1.5380015564e+02   -2.6836498260e+01
    1.5390014648e+02   -2.7130901337e+01
    1.5400007629e+02   -2.7423999786e+01
    1.5410011292e+02   -2.7716300964e+01
    1.5420008850e+02   -2.8007099152e+01
    1.5430012512e+02   -2.8296897888e+01
    1.5440011597e+02   -2.8585399628e+01
    1.5450019836e+02   -2.8872898102e+01
    1.5460021973e+02   -2.9159099579e+01
    1.5470013428e+02   -2.9443698883e+01
    1.5480014038e+02   -2.9727298737e+01
    1.5490022278e+02   -3.0009899139e+01
    1.5500024414e+02   -3.0291099548e+01
    1.5510023499e+02   -3.0570800781e+01
    1.5520025635e+02   -3.0849399567e+01
    1.5530024719e+02   -3.1126598358e+01
    1.5540020752e+02   -3.1402400970e+01
    1.5550024414e+02   -3.1677101135e+01
    1.5560020447e+02   -3.1950099945e+01
    1.5570028687e+02   -3.2222198486e+01
    1.5580027771e+02   -3.2492698669e+01
    1.5590028381e+02   -3.2761798859e+01
    1.5600027466e+02   -3.3029499054e+01
    1.5610032654e+02   -3.3295898438e+01
    1.5620025635e+02   -3.3560699463e+01
    1.5630029297e+02   -3.3824199677e+01
    1.5640032959e+02   -3.4086299896e+01
    1.5650027466e+02   -3.4346698761e+01
    1.5660029602e+02   -3.4605800629e+01
    1.5670030212e+02   -3.4863300323e+01
    1.5680035400e+02   -3.5119400024e+01
    1.5690028381e+02   -3.5373600006e+01
    1.5700036621e+02   -3.5626598358e+01
    1.5710037231e+02   -3.5877799988e+01
    1.5720037842e+02   -3.6127399445e+01
    1.5730030823e+02   -3.6375198364e+01
    1.5740031433e+02   -3.6621498108e+01
    1.5750033569e+02   -3.6866199493e+01
    1.5760032654e+02   -3.7109298706e+01
    1.5770039368e+02   -3.7350898743e+01
    1.5780041504e+02   -3.7590599060e+01
    1.5790034485e+02   -3.7828598022e+01
    1.5800038147e+02   -3.8064998627e+01
    1.5810035706e+02   -3.8299697876e+01
    1.5820039368e+02   -3.8532897949e+01
    1.5830044556e+02   -3.8764400482e+01
    1.5840039062e+02   -3.8993900299e+01
    1.5850035095e+02   -3.9221900940e+01
    1.5860037231e+02   -3.9448299408e+01
    1.5870046997e+02   -3.9673198700e+01
    1.5880047607e+02   -3.9896301270e+01
    1.5890043640e+02   -4.0117500305e+01
    1.5900050354e+02   -4.0337398529e+01
    1.5910040283e+02   -4.0555297852e+01
    1.5920043945e+02   -4.0771900177e+01
    1.5930043030e+02   -4.0986598969e+01
    1.5940051270e+02   -4.1200000763e+01
    1.5950042725e+02   -4.1411399841e+01
    1.5960047913e+02   -4.1621398926e+01
    1.5970053101e+02   -4.1829601288e+01
    1.5980047607e+02   -4.2036098480e+01
    1.5990048218e+02   -4.2241001129e+01
    1.6000044250e+02   -4.2444198608e+01
    1.6010055542e+02   -4.2645999908e+01
    1.6020053101e+02   -4.2845798492e+01
    1.6030047607e+02   -4.3043899536e+01
    1.6040049744e+02   -4.3240501404e+01
    1.6050048828e+02   -4.3435298920e+01
    1.6060049438e+02   -4.3628398895e+01
    1.6070051575e+02   -4.3819801331e+01
    1.6080058289e+02   -4.4009597778e+01
    1.6090052795e+02   -4.4197399139e+01
    1.6100054932e+02   -4.4383499146e+01
    1.6110061646e+02   -4.4568099976e+01
    1.6120051575e+02   -4.4750499725e+01
    1.6130056763e+02   -4.4931400299e+01
    1.6140058899e+02   -4.5110496521e+01
    1.6150057983e+02   -4.5287796021e+01
    1.6160060120e+02   -4.5463401794e+01
    1.6170054626e+02   -4.5637199402e+01
    1.6180064392e+02   -4.5809402466e+01
    1.6190055847e+02   -4.5979598999e+01
    1.6200067139e+02   -4.6148399353e+01
    1.6210064697e+02   -4.6315200806e+01
    1.6220062256e+02   -4.6480300903e+01
    1.6230062866e+02   -4.6643699646e+01
    1.6240068054e+02   -4.6805496216e+01
    1.6250065613e+02   -4.6965400696e+01
    1.6260064697e+02   -4.7123703003e+01
    1.6270060730e+02   -4.7280197144e+01
    1.6280068970e+02   -4.7435096741e+01
    1.6290068054e+02   -4.7588302612e+01
    1.6300062561e+02   -4.7739700317e+01
    1.6310067749e+02   -4.7889602661e+01
    1.6320071411e+02   -4.8037796021e+01
    1.6330064392e+02   -4.8184303284e+01
    1.6340069580e+02   -4.8329200745e+01
    1.6350071716e+02   -4.8472496033e+01
    1.6360067749e+02   -4.8614097595e+01
    1.6370065308e+02   -4.8754096985e+01
    1.6380070496e+02   -4.8892501831e+01
    1.6390072632e+02   -4.9029296875e+01
    1.6400079346e+02   -4.9164497375e+01
    1.6410069275e+02   -4.9297897339e+01
    1.6420079041e+02   -4.9429901123e+01
    1.6430070496e+02   -4.9560096741e+01
    1.6440080261e+02   -4.9688796997e+01
    1.6450073242e+02   -4.9815696716e+01
    1.6460075378e+02   -4.9941101074e+01
    1.6470080566e+02   -5.0064903259e+01
    1.6480076599e+02   -5.0186897278e+01
    1.6490078735e+02   -5.0307296753e+01
    1.6500079346e+02   -5.0426101685e+01
    1.6510086060e+02   -5.0543296814e+01
    1.6520085144e+02   -5.0658798218e+01
    1.6530085754e+02   -5.0772697449e+01
    1.6540083313e+02   -5.0884796143e+01
    1.6550088501e+02   -5.0995399475e+01
    1.6560081482e+02   -5.1104202271e+01
    1.6570086670e+02   -5.1211502075e+01
    1.6580085754e+02   -5.1317100525e+01
    1.6590080261e+02   -5.1420997620e+01
    1.6600088501e+02   -5.1523399353e+01
    1.6610087585e+02   -5.1624000549e+01
    1.6620082092e+02   -5.1722900391e+01
    1.6630093384e+02   -5.1820297241e+01
    1.6640092468e+02   -5.1915901184e+01
    1.6650085449e+02   -5.2009796143e+01
    1.6660087585e+02   -5.2102195740e+01
    1.6670089722e+02   -5.2192901611e+01
    1.6680091858e+02   -5.2281997681e+01
    1.6690086365e+02   -5.2369400024e+01
    1.6700094604e+02   -5.2455299377e+01
    1.6710096741e+02   -5.2539497375e+01
    1.6720088196e+02   -5.2622100830e+01
    1.6730093384e+02   -5.2703102112e+01
    1.6740089417e+02   -5.2782402039e+01
    1.6750099182e+02   -5.2860298157e+01
    1.6760096741e+02   -5.2936500549e+01
    1.6770097351e+02   -5.3011100769e+01
    1.6780096436e+02   -5.3084197998e+01
    1.6790092468e+02   -5.3155700684e+01
    1.6800094604e+02   -5.3225700378e+01
    1.6810104370e+02   -5.3294197083e+01
    1.6820098877e+02   -5.3361099243e+01
    1.6830094910e+02   -5.3426498413e+01
    1.6840106201e+02   -5.3490402222e+01
    1.6850102234e+02   -5.3552803040e+01
    1.6860098267e+02   -5.3613601685e+01
    1.6870103455e+02   -5.3672996521e+01
    1.6880105591e+02   -5.3730895996e+01
    1.6890107727e+02   -5.3787399292e+01
    1.6900105286e+02   -5.3842300415e+01
    1.6910101318e+02   -5.3895797729e+01
    1.6920111084e+02   -5.3947898865e+01
    1.6930101013e+02   -5.3998397827e+01
    1.6940107727e+02   -5.4047599792e+01
    1.6950103760e+02   -5.4095199585e+01
    1.6960112000e+02   -5.4141502380e+01
    1.6970106506e+02   -5.4186203003e+01
    1.6980108643e+02   -5.4229598999e+01
    1.6990107727e+02   -5.4271400452e+01
    1.7000111389e+02   -5.4311798096e+01
    1.7010116577e+02   -5.4350799561e+01
    1.7020106506e+02   -5.4388198853e+01
    1.7030116272e+02   -5.4424301147e+01
    1.7040118408e+02   -5.4458900452e+01
    1.7050108337e+02   -5.4491897583e+01
    1.7060116577e+02   -5.4523597717e+01
    1.7070115662e+02   -5.4553802490e+01
    1.7080117798e+02   -5.4582496643e+01
    1.7090116882e+02   -5.4609802246e+01
    1.7100119019e+02   -5.4635597229e+01
    1.7110119629e+02   -5.4659996033e+01
    1.7120120239e+02   -5.4682899475e+01
    1.7130119324e+02   -5.4704299927e+01
    1.7140113831e+02   -5.4724296570e+01
    1.7150120544e+02   -5.4742897034e+01
    1.7160121155e+02   -5.4760101318e+01
    1.7170126343e+02   -5.4775802612e+01
    1.7180125427e+02   -5.4790100098e+01
    1.7190121460e+02   -5.4803100586e+01
    1.7200120544e+02   -5.4814598083e+01
    1.7210125732e+02   -5.4824699402e+01
    1.7220123291e+02   -5.4833396912e+01
    1.7230128479e+02   -5.4840797424e+01
    1.7240130615e+02   -5.4846702576e+01
    1.7250131226e+02   -5.4851303101e+01
    1.7260125732e+02   -5.4854400635e+01
    1.7270123291e+02   -5.4856300354e+01
    1.7280122375e+02   -5.4856697083e+01
    1.7290132141e+02   -5.4855796814e+01
    1.7300134277e+02   -5.4853500366e+01
    1.7310130310e+02   -5.4849800110e+01
    1.7320132446e+02   -5.4844802856e+01
    1.7330130005e+02   -5.4838401794e+01
    1.7340127563e+02   -5.4830696106e+01
    1.7350131226e+02   -5.4821502686e+01
    1.7360127258e+02   -5.4810997009e+01
    1.7370129395e+02   -5.4799102783e+01
    1.7380137634e+02   -5.4785896301e+01
    1.7390132141e+02   -5.4771202087e+01
    1.7400137329e+02   -5.4755203247e+01
    1.7410136414e+02   -5.4737800598e+01
    1.7420135498e+02   -5.4718902588e+01
    1.7430140686e+02   -5.4698699951e+01
    1.7440135193e+02   -5.4677101135e+01
    1.7450140381e+02   -5.4654098511e+01
    1.7460137939e+02   -5.4629798889e+01
    1.7470137024e+02   -5.4603996277e+01
    1.7480143738e+02   -5.4576797485e+01
    1.7490141296e+02   -5.4548301697e+01
    1.7500138855e+02   -5.4518402100e+01
    1.7510140991e+02   -5.4487098694e+01
    1.7520140076e+02   -5.4454399109e+01
    1.7530137634e+02   -5.4420303345e+01
    1.7540147400e+02   -5.4384796143e+01
    1.7550138855e+02   -5.4347999573e+01
    1.7560144043e+02   -5.4309799194e+01
    1.7570149231e+02   -5.4270095825e+01
    1.7580148315e+02   -5.4228996277e+01
    1.7590144348e+02   -5.4186401367e+01
    1.7600144958e+02   -5.4142295837e+01
    1.7610147095e+02   -5.4096801758e+01
    1.7620143127e+02   -5.4049896240e+01
    1.7630152893e+02   -5.4001396179e+01
    1.7640151978e+02   -5.3951400757e+01
    1.7650155640e+02   -5.3900001526e+01
    1.7660145569e+02   -5.3847099304e+01
    1.7670155334e+02   -5.3792602539e+01
    1.7680151367e+02   -5.3736701965e+01
    1.7690147400e+02   -5.3679199219e+01
    1.7700148010e+02   -5.3620300293e+01
    1.7710156250e+02   -5.3559799194e+01
    1.7720150757e+02   -5.3497802734e+01
    1.7730154419e+02   -5.3434303284e+01
    1.7740156555e+02   -5.3369300842e+01
    1.7750152588e+02   -5.3302803040e+01
    1.7760151672e+02   -5.3234802246e+01
    1.7770158386e+02   -5.3165298462e+01
    1.7780154419e+02   -5.3094299316e+01
    1.7790162659e+02   -5.3021797180e+01
    1.7800158691e+02   -5.2947799683e+01
    1.7810162354e+02   -5.2872398376e+01
    1.7820159912e+02   -5.2795402527e+01
    1.7830154419e+02   -5.2717102051e+01
    1.7840164185e+02   -5.2637100220e+01
    1.7850166321e+02   -5.2555702209e+01
    1.7860165405e+02   -5.2472801208e+01
    1.7870158386e+02   -5.2388496399e+01
    1.7880163574e+02   -5.2302597046e+01
    1.7890159607e+02   -5.2215202332e+01
    1.7900170898e+02   -5.2126197815e+01
    1.7910169983e+02   -5.2035697937e+01
    1.7920161438e+02   -5.1943801880e+01
    1.7930163574e+02   -5.1850296021e+01
    1.7940168762e+02   -5.1755203247e+01
    1.7950172424e+02   -5.1658599854e+01
    1.7960165405e+02   -5.1560600281e+01
    1.7970166016e+02   -5.1460998535e+01
    1.7980174255e+02   -5.1359901428e+01
    1.7990171814e+02   -5.1257400513e+01
    1.8000169373e+02   -5.1153396606e+01
    1.8010169983e+02   -5.1047897339e+01
    1.8020173645e+02   -5.0940902710e+01
    1.8030172729e+02   -5.0832397461e+01
    1.8040170288e+02   -5.0722396851e+01
    1.8050170898e+02   -5.0610801697e+01
    1.8060176086e+02   -5.0497497559e+01
    1.8070178223e+02   -5.0382598877e+01
    1.8080181885e+02   -5.0266098022e+01
    1.8090171814e+02   -5.0148002625e+01
    1.8100178528e+02   -5.0028099060e+01
    1.8110173035e+02   -4.9906700134e+01
    1.8120175171e+02   -4.9783599854e+01
    1.8130181885e+02   -4.9658699036e+01
    1.8140184021e+02   -4.9532302856e+01
    1.8150184631e+02   -4.9404296875e+01
    1.8160177612e+02   -4.9274803162e+01
    1.8170176697e+02   -4.9143501282e+01
    1.8180178833e+02   -4.9010498047e+01
    1.8190185547e+02   -4.8875900269e+01
    1.8200183105e+02   -4.8739700317e+01
    1.8210185242e+02   -4.8601799011e+01
    1.8220179749e+02   -4.8462402344e+01
    1.8230183411e+02   -4.8321197510e+01
    1.8240185547e+02   -4.8178497314e+01
    1.8250189209e+02   -4.8034095764e+01
    1.8260191345e+02   -4.7888099670e+01
    1.8270181274e+02   -4.7740600586e+01
    1.8280186462e+02   -4.7591400146e+01
    1.8290193176e+02   -4.7440498352e+01
    1.8300184631e+02   -4.7288101196e+01
    1.8310186768e+02   -4.7134101868e+01
    1.8320196533e+02   -4.6978302002e+01
    1.8330192566e+02   -4.6820999146e+01
    1.8340197754e+02   -4.6662101746e+01
    1.8350198364e+02   -4.6501602173e+01
    1.8360188293e+02   -4.6339698792e+01
    1.8370196533e+02   -4.6175903320e+01
    1.8380201721e+02   -4.6010597229e+01
    1.8390191650e+02   -4.5844001770e+01
    1.8400196838e+02   -4.5675399780e+01
    1.8410194397e+02   -4.5505401611e+01
    1.8420198059e+02   -4.5333801270e+01
    1.8430192566e+02   -4.5160797119e+01
    1.8440196228e+02   -4.4986099243e+01
    1.8450192261e+02   -4.4810001373e+01
    1.8460195923e+02   -4.4632400513e+01
    1.8470196533e+02   -4.4453201294e+01
    1.8480206299e+02   -4.4272399902e+01
    1.8490197754e+02   -4.4090400696e+01
    1.8500204468e+02   -4.3906700134e+01
    1.8510197449e+02   -4.3721797943e+01
    1.8520202637e+02   -4.3535198212e+01
    1.8530209351e+02   -4.3347099304e+01
    1.8540199280e+02   -4.3158000946e+01
    1.8550202942e+02   -4.2967201233e+01
    1.8560203552e+02   -4.2775100708e+01
    1.8570204163e+02   -4.2581699371e+01
    1.8580209351e+02   -4.2386898041e+01
    1.8590203857e+02   -4.2190998077e+01
    1.8600201416e+02   -4.1993698120e+01
    1.8610212708e+02   -4.1794799805e+01
    1.8620205688e+02   -4.1595100403e+01
    1.8630209351e+02   -4.1394001007e+01
    1.8640208435e+02   -4.1191699982e+01
    1.8650213623e+02   -4.0988098145e+01
    1.8660211182e+02   -4.0783500671e+01
    1.8670208740e+02   -4.0577697754e+01
    1.8680209351e+02   -4.0370597839e+01
    1.8690211487e+02   -4.0162498474e+01
    1.8700213623e+02   -3.9952999115e+01
    1.8710212708e+02   -3.9742298126e+01
    1.8720213318e+02   -3.9530300140e+01
    1.8730221558e+02   -3.9317100525e+01
    1.8740211487e+02   -3.9102897644e+01
    1.8750221252e+02   -3.8887199402e+01
    1.8760214233e+02   -3.8670600891e+01
    1.8770213318e+02   -3.8452800751e+01
    1.8780224609e+02   -3.8233501434e+01
    1.8790216064e+02   -3.8013599396e+01
    1.8800224304e+02   -3.7792198181e+01
    1.8810215759e+02   -3.7569900513e+01
    1.8820225525e+02   -3.7346000671e+01
    1.8830221558e+02   -3.7121299744e+01
    1.8840223694e+02   -3.6895401001e+01
    1.8850218201e+02   -3.6668399811e+01
    1.8860226440e+02   -3.6439998627e+01
    1.8870228577e+02   -3.6210700989e+01
    1.8880227661e+02   -3.5980300903e+01
    1.8890220642e+02   -3.5749000549e+01
    1.8900225830e+02   -3.5516300201e+01
    1.8910221863e+02   -3.5282798767e+01
    1.8920225525e+02   -3.5047901154e+01
    1.8930233765e+02   -3.4811901093e+01
    1.8940223694e+02   -3.4575298309e+01
    1.8950230408e+02   -3.4337200165e+01
    1.8960227966e+02   -3.4098197937e+01
    1.8970231628e+02   -3.3858100891e+01
    1.8980235291e+02   -3.3616901398e+01
    1.8990232849e+02   -3.3374698639e+01
    1.9000230408e+02   -3.3131500244e+01
    1.9010238647e+02   -3.2887100220e+01
    1.9020233154e+02   -3.2641799927e+01
    1.9030230713e+02   -3.2395401001e+01
    1.9040234375e+02   -3.2147800446e+01
    1.9050233459e+02   -3.1899299622e+01
    1.9060232544e+02   -3.1649700165e+01
    1.9070234680e+02   -3.1398899078e+01
    1.9080232239e+02   -3.1147098541e+01
    1.9090237427e+02   -3.0894100189e+01
    1.9100242615e+02   -3.0639900208e+01
    1.9110234070e+02   -3.0384899139e+01
    1.9120236206e+02   -3.0128498077e+01
    1.9130236816e+02   -2.9870998383e+01
    1.9140237427e+02   -2.9612197876e+01
    1.9150241089e+02   -2.9352298737e+01
    1.9160240173e+02   -2.9091300964e+01
    1.9170239258e+02   -2.8829097748e+01
    1.9180244446e+02   -2.8565601349e+01
    1.9190245056e+02   -2.8300998688e+01
    1.9200248718e+02   -2.8035099030e+01
    1.9210247803e+02   -2.7768199921e+01
    1.9220242310e+02   -2.7500198364e+01
    1.9230247498e+02   -2.7230697632e+01
    1.9240249634e+02   -2.6959999084e+01
    1.9250253296e+02   -2.6687900543e+01
    1.9260246277e+02   -2.6414897919e+01
    1.9270252991e+02   -2.6140300751e+01
    1.9280247498e+02   -2.5864601135e+01
    1.9290254211e+02   -2.5587398529e+01
    1.9300248718e+02   -2.5309101105e+01
    1.9310246277e+02   -2.5029399872e+01
    1.9320254517e+02   -2.4748100281e+01
    1.9330247498e+02   -2.4465698242e+01
    1.9340252686e+02   -2.4181499481e+01
    1.9350248718e+02   -2.3896198273e+01
    1.9360255432e+02   -2.3609100342e+01
    1.9370251465e+02   -2.3320999146e+01
    1.9380253601e+02   -2.3031200409e+01
    1.9390261841e+02   -2.2739799500e+01
    1.9400253296e+02   -2.2447399139e+01
    1.9410258484e+02   -2.2153099060e+01
    1.9420257568e+02   -2.1857700348e+01
    1.9430261230e+02   -2.1560699463e+01
    1.9440254211e+02   -2.1262599945e+01
    1.9450263977e+02   -2.0962398529e+01
    1.9460264587e+02   -2.0661098480e+01
    1.9470266724e+02   -2.0358299255e+01
    1.9480262756e+02   -2.0054298401e+01
    1.9490257263e+02   -1.9748901367e+01
    1.9500267029e+02   -1.9441699982e+01
    1.9510258484e+02   -1.9133800507e+01
    1.9520259094e+02   -1.8824199677e+01
    1.9530262756e+02   -1.8513198853e+01
    1.9540263367e+02   -1.8200901031e+01
    1.9550259399e+02   -1.7887500763e+01
    1.9560270691e+02   -1.7572399139e+01
    1.9570271301e+02   -1.7256298065e+01
    1.9580264282e+02   -1.6939300537e+01
    1.9590272522e+02   -1.6620597839e+01
    1.9600265503e+02   -1.6301097870e+01
    1.9610264587e+02   -1.5980197906e+01
    1.9620268250e+02   -1.5658100128e+01
    1.9630274963e+02   -1.5334697723e+01
    1.9640272522e+02   -1.5010498047e+01
    1.9650273132e+02   -1.4685001373e+01
    1.9660267639e+02   -1.4358699799e+01
    1.9670271301e+02   -1.4030899048e+01
    1.9680278015e+02   -1.3702098846e+01
    1.9690280151e+02   -1.3372398376e+01
    1.9700273132e+02   -1.3041898727e+01
    1.9710279846e+02   -1.2710100174e+01
    1.9720274353e+02   -1.2377698898e+01
    1.9730279541e+02   -1.2043899536e+01
    1.9740272522e+02   -1.1709699631e+01
    1.9750277710e+02   -1.1374099731e+01
    1.9760281372e+02   -1.1037698746e+01
    1.9770283508e+02   -1.0700500488e+01
    1.9780276489e+02   -1.0362699509e+01
    1.9790281677e+02   -1.0023698807e+01
    1.9800279236e+02   -9.6842002869e+00
    1.9810282898e+02   -9.3437004089e+00
    1.9820283508e+02   -9.0024986267e+00
    1.9830287170e+02   -8.6604995728e+00
    1.9840286255e+02   -8.3178997040e+00
    1.9850280762e+02   -7.9746990204e+00
    1.9860284424e+02   -7.6305999756e+00
    1.9870280457e+02   -7.2859992981e+00
    1.9880291748e+02   -6.9402999878e+00
    1.9890283203e+02   -6.5945987701e+00
    1.9900286865e+02   -6.2477989197e+00
    1.9910284424e+02   -5.9004993439e+00
    1.9920283508e+02   -5.5527000427e+00
    1.9930293274e+02   -5.2038993835e+00
    1.9940289307e+02   -4.8549995422e+00
    1.9950292969e+02   -4.5053997040e+00
    1.9960296631e+02   -4.1550998688e+00
    1.9970292664e+02   -3.8046989441e+00
    1.9980294800e+02   -3.4533004761e+00
    1.9990293884e+02   -3.1014995575e+00
endcurve
