Curveplot
LS-DYNA keyword deck by LS-PrePost
Abscissa
Ordinate
XY data
NBDLHeadxCoo-1 #pts=2000
* Minval=     3.8422401428e+01 at time=         0.0000000000
* Maxval=     2.1753901672e+02 at time=       133.5989379883
    0.0000000000e+00    3.8422401428e+01
    9.9943503737e-02    3.8422401428e+01
    1.9988700747e-01    3.8422401428e+01
    2.9994606972e-01    3.8422401428e+01
    3.9988955855e-01    3.8422401428e+01
    4.9994862080e-01    3.8422401428e+01
    5.9989213943e-01    3.8422401428e+01
    6.9995117188e-01    3.8422401428e+01
    7.9989469051e-01    3.8422401428e+01
    8.9995372295e-01    3.8422401428e+01
    9.9989724159e-01    3.8422401428e+01
    1.0999562740e+00    3.8422500610e+01
    1.1998997927e+00    3.8422500610e+01
    1.2999588251e+00    3.8422500610e+01
    1.3999023438e+00    3.8422500610e+01
    1.4999613762e+00    3.8422599792e+01
    1.5999048948e+00    3.8422599792e+01
    1.6999639273e+00    3.8422599792e+01
    1.7999074459e+00    3.8422698975e+01
    1.8999664783e+00    3.8422698975e+01
    1.9999099970e+00    3.8422798157e+01
    2.0999689102e+00    3.8422798157e+01
    2.1999125481e+00    3.8422798157e+01
    2.2999715805e+00    3.8422897339e+01
    2.3999152184e+00    3.8423000336e+01
    2.4999740124e+00    3.8423000336e+01
    2.5999176502e+00    3.8423099518e+01
    2.6999766827e+00    3.8423099518e+01
    2.7999200821e+00    3.8423202515e+01
    2.8999791145e+00    3.8423301697e+01
    2.9999227524e+00    3.8423400879e+01
    3.0999817848e+00    3.8423400879e+01
    3.1999251842e+00    3.8423500061e+01
    3.2999842167e+00    3.8423599243e+01
    3.3999278545e+00    3.8423698425e+01
    3.4999868870e+00    3.8423797607e+01
    3.5999302864e+00    3.8423900604e+01
    3.6999895573e+00    3.8423999786e+01
    3.7999279499e+00    3.8424098969e+01
    3.8999762535e+00    3.8424201965e+01
    3.9999499321e+00    3.8424301147e+01
    4.0999445915e+00    3.8424400330e+01
    4.1999964714e+00    3.8424499512e+01
    4.2998995781e+00    3.8424697876e+01
    4.3999047279e+00    3.8424797058e+01
    4.4998955727e+00    3.8424900055e+01
    4.5999093056e+00    3.8424999237e+01
    4.6999235153e+00    3.8425201416e+01
    4.7999372482e+00    3.8425300598e+01
    4.8999514580e+00    3.8425399780e+01
    4.9999651909e+00    3.8425598145e+01
    5.0999794006e+00    3.8425697327e+01
    5.1999931335e+00    3.8425899506e+01
    5.2998895645e+00    3.8426002502e+01
    5.3999023438e+00    3.8426200867e+01
    5.4999275208e+00    3.8426399231e+01
    5.5999093056e+00    3.8426498413e+01
    5.6999707222e+00    3.8426700592e+01
    5.7999162674e+00    3.8426898956e+01
    5.8999767303e+00    3.8427001953e+01
    5.9999217987e+00    3.8427200317e+01
    6.0999822617e+00    3.8427398682e+01
    6.1999273300e+00    3.8427597046e+01
    6.2999510765e+00    3.8427799225e+01
    6.3998889923e+00    3.8428001404e+01
    6.4999728203e+00    3.8428199768e+01
    6.5999174118e+00    3.8428398132e+01
    6.6999769211e+00    3.8428600311e+01
    6.7999210358e+00    3.8428802490e+01
    6.8999800682e+00    3.8429000854e+01
    6.9999241829e+00    3.8429199219e+01
    7.0999832153e+00    3.8429500580e+01
    7.1999268532e+00    3.8429698944e+01
    7.2998890877e+00    3.8429901123e+01
    7.3999085426e+00    3.8430198669e+01
    7.4998812675e+00    3.8430397034e+01
    7.5999879837e+00    3.8430599213e+01
    7.6999874115e+00    3.8430900574e+01
    7.7999334335e+00    3.8431098938e+01
    7.8998870850e+00    3.8431400299e+01
    7.9999461174e+00    3.8431701660e+01
    8.0998897552e+00    3.8431900024e+01
    8.1999492645e+00    3.8432197571e+01
    8.2998819351e+00    3.8432498932e+01
    8.3998956680e+00    3.8432701111e+01
    8.4999094009e+00    3.8432998657e+01
    8.5999240875e+00    3.8433300018e+01
    8.6999378204e+00    3.8433601379e+01
    8.7999515533e+00    3.8433898926e+01
    8.8999652863e+00    3.8434200287e+01
    8.9998817444e+00    3.8434501648e+01
    9.0998888016e+00    3.8434799194e+01
    9.1998910904e+00    3.8435100555e+01
    9.2999057770e+00    3.8435401917e+01
    9.3999195099e+00    3.8435699463e+01
    9.4999971390e+00    3.8436000824e+01
    9.5999011993e+00    3.8436401367e+01
    9.6999654770e+00    3.8436698914e+01
    9.7999839783e+00    3.8437000275e+01
    9.8999271393e+00    3.8437400818e+01
    9.9999856949e+00    3.8437698364e+01
    1.0099930763e+01    3.8437999725e+01
    1.0199992180e+01    3.8438400269e+01
    1.0299938202e+01    3.8438800812e+01
    1.0399998665e+01    3.8439102173e+01
    1.0499943733e+01    3.8439498901e+01
    1.0599887848e+01    3.8439800262e+01
    1.0699948311e+01    3.8440200806e+01
    1.0799893379e+01    3.8440597534e+01
    1.0899952888e+01    3.8441001892e+01
    1.0999897003e+01    3.8441398621e+01
    1.1099955559e+01    3.8441799164e+01
    1.1199900627e+01    3.8442199707e+01
    1.1299987793e+01    3.8442600250e+01
    1.1399967194e+01    3.8443000793e+01
    1.1499958992e+01    3.8443397522e+01
    1.1599999428e+01    3.8443801880e+01
    1.1699969292e+01    3.8444198608e+01
    1.1799905777e+01    3.8444599152e+01
    1.1899979591e+01    3.8445098877e+01
    1.1999974251e+01    3.8445499420e+01
    1.2099967957e+01    3.8445899963e+01
    1.2199919701e+01    3.8446399689e+01
    1.2299986839e+01    3.8446800232e+01
    1.2399944305e+01    3.8447299957e+01
    1.2500004768e+01    3.8447700500e+01
    1.2599967957e+01    3.8448200226e+01
    1.2699920654e+01    3.8448699951e+01
    1.2799924850e+01    3.8449100494e+01
    1.2899946213e+01    3.8449600220e+01
    1.2999925613e+01    3.8450099945e+01
    1.3099918365e+01    3.8450599670e+01
    1.3199960709e+01    3.8451099396e+01
    1.3299946785e+01    3.8451599121e+01
    1.3400008202e+01    3.8452102661e+01
    1.3499905586e+01    3.8452598572e+01
    1.3599942207e+01    3.8453102112e+01
    1.3699930191e+01    3.8453701019e+01
    1.3799924850e+01    3.8454200745e+01
    1.3899927139e+01    3.8454700470e+01
    1.3999902725e+01    3.8455299377e+01
    1.4099994659e+01    3.8455799103e+01
    1.4199906349e+01    3.8456401825e+01
    1.4299997330e+01    3.8456901550e+01
    1.4399909973e+01    3.8457401276e+01
    1.4499992371e+01    3.8458000183e+01
    1.4599964142e+01    3.8458599091e+01
    1.4699975014e+01    3.8459098816e+01
    1.4799990654e+01    3.8459701538e+01
    1.4899942398e+01    3.8460300446e+01
    1.4999903679e+01    3.8460899353e+01
    1.5099974632e+01    3.8461399078e+01
    1.5199993134e+01    3.8462001801e+01
    1.5299977303e+01    3.8462600708e+01
    1.5399943352e+01    3.8463199615e+01
    1.5499928474e+01    3.8463798523e+01
    1.5599970818e+01    3.8464500427e+01
    1.5699964523e+01    3.8465099335e+01
    1.5799925804e+01    3.8465698242e+01
    1.5899966240e+01    3.8466300964e+01
    1.5999949455e+01    3.8466999054e+01
    1.6099916458e+01    3.8467601776e+01
    1.6199945450e+01    3.8468200684e+01
    1.6299985886e+01    3.8468898773e+01
    1.6399925232e+01    3.8469501495e+01
    1.6499935150e+01    3.8470199585e+01
    1.6599946976e+01    3.8470901489e+01
    1.6699958801e+01    3.8471500397e+01
    1.6799919128e+01    3.8472297668e+01
    1.6899950027e+01    3.8472999573e+01
    1.6999931335e+01    3.8473701477e+01
    1.7100004196e+01    3.8474399567e+01
    1.7199949265e+01    3.8475097656e+01
    1.7299999237e+01    3.8475799561e+01
    1.7399999619e+01    3.8476501465e+01
    1.7500003815e+01    3.8477199554e+01
    1.7599948883e+01    3.8477897644e+01
    1.7699979782e+01    3.8478698730e+01
    1.7799987793e+01    3.8479400635e+01
    1.7899923325e+01    3.8480102539e+01
    1.8000024796e+01    3.8480899811e+01
    1.8099969864e+01    3.8481597900e+01
    1.8199991226e+01    3.8482398987e+01
    1.8299934387e+01    3.8483100891e+01
    1.8399986267e+01    3.8483901978e+01
    1.8500009537e+01    3.8484699249e+01
    1.8599933624e+01    3.8485397339e+01
    1.8699920654e+01    3.8486198425e+01
    1.8799968719e+01    3.8486999512e+01
    1.8900028229e+01    3.8487800598e+01
    1.8999969482e+01    3.8488601685e+01
    1.9099943161e+01    3.8489402771e+01
    1.9199972153e+01    3.8490200043e+01
    1.9300016403e+01    3.8491100311e+01
    1.9399984360e+01    3.8491897583e+01
    1.9499984741e+01    3.8492698669e+01
    1.9600000381e+01    3.8493499756e+01
    1.9700010300e+01    3.8494400024e+01
    1.9799989700e+01    3.8495201111e+01
    1.9899990082e+01    3.8496101379e+01
    1.9999952316e+01    3.8496902466e+01
    2.0099954605e+01    3.8497802734e+01
    2.0199935913e+01    3.8498703003e+01
    2.0299938202e+01    3.8499401093e+01
    2.0400022507e+01    3.8500301361e+01
    2.0500011444e+01    3.8501201630e+01
    2.0599948883e+01    3.8502101898e+01
    2.0700037003e+01    3.8502998352e+01
    2.0799945831e+01    3.8503898621e+01
    2.0899974823e+01    3.8504798889e+01
    2.0999980927e+01    3.8505798340e+01
    2.1100040436e+01    3.8506698608e+01
    2.1199998856e+01    3.8507598877e+01
    2.1299932480e+01    3.8508598328e+01
    2.1399944305e+01    3.8509399414e+01
    2.1499992371e+01    3.8510299683e+01
    2.1599941254e+01    3.8511299133e+01
    2.1699935913e+01    3.8512298584e+01
    2.1799959183e+01    3.8513198853e+01
    2.1900020599e+01    3.8514198303e+01
    2.1999992371e+01    3.8515197754e+01
    2.2099941254e+01    3.8516098022e+01
    2.2199941635e+01    3.8517101288e+01
    2.2300045013e+01    3.8518100739e+01
    2.2399942398e+01    3.8519100189e+01
    2.2499946594e+01    3.8520099640e+01
    2.2599962234e+01    3.8520999908e+01
    2.2699987411e+01    3.8521999359e+01
    2.2800003052e+01    3.8523101807e+01
    2.2899995804e+01    3.8524101257e+01
    2.2999992371e+01    3.8525001526e+01
    2.3099958420e+01    3.8526100159e+01
    2.3200040817e+01    3.8527198792e+01
    2.3299982071e+01    3.8528198242e+01
    2.3400009155e+01    3.8529201508e+01
    2.3499979019e+01    3.8530300140e+01
    2.3600013733e+01    3.8531299591e+01
    2.3699972153e+01    3.8532402039e+01
    2.3799985886e+01    3.8533401489e+01
    2.3900039673e+01    3.8534500122e+01
    2.3999959946e+01    3.8535598755e+01
    2.4100048065e+01    3.8536701202e+01
    2.4200029373e+01    3.8537799835e+01
    2.4299991608e+01    3.8538898468e+01
    2.4399957657e+01    3.8540000916e+01
    2.4500038147e+01    3.8541099548e+01
    2.4599966049e+01    3.8542198181e+01
    2.4700019836e+01    3.8543300629e+01
    2.4799961090e+01    3.8544498444e+01
    2.4900028229e+01    3.8545600891e+01
    2.5000022888e+01    3.8546699524e+01
    2.5100009918e+01    3.8547897339e+01
    2.5199970245e+01    3.8548999786e+01
    2.5299997330e+01    3.8550201416e+01
    2.5399974823e+01    3.8551399231e+01
    2.5500005722e+01    3.8552501678e+01
    2.5599981308e+01    3.8553699493e+01
    2.5700061798e+01    3.8554801941e+01
    2.5800037384e+01    3.8556098938e+01
    2.5899982452e+01    3.8557300568e+01
    2.6000032425e+01    3.8558399200e+01
    2.6099952698e+01    3.8559700012e+01
    2.6199974060e+01    3.8560897827e+01
    2.6300037384e+01    3.8562099457e+01
    2.6400035858e+01    3.8563301086e+01
    2.6499980927e+01    3.8564598083e+01
    2.6600057602e+01    3.8565799713e+01
    2.6700038910e+01    3.8567001343e+01
    2.6799953461e+01    3.8568199158e+01
    2.6899999619e+01    3.8569602966e+01
    2.6999963760e+01    3.8570800781e+01
    2.7100009918e+01    3.8572101593e+01
    2.7200021744e+01    3.8573299408e+01
    2.7300020218e+01    3.8574600220e+01
    2.7400064468e+01    3.8575901031e+01
    2.7500017166e+01    3.8577102661e+01
    2.7600000381e+01    3.8578498840e+01
    2.7700061798e+01    3.8579799652e+01
    2.7800043106e+01    3.8581100464e+01
    2.7900032043e+01    3.8582397461e+01
    2.7999950409e+01    3.8583702087e+01
    2.8100069046e+01    3.8585098267e+01
    2.8199987411e+01    3.8586399078e+01
    2.8300008774e+01    3.8587799072e+01
    2.8400026321e+01    3.8589099884e+01
    2.8500064850e+01    3.8590400696e+01
    2.8600070953e+01    3.8591899872e+01
    2.8699989319e+01    3.8593200684e+01
    2.8799957275e+01    3.8594501495e+01
    2.8900014877e+01    3.8596000671e+01
    2.8999992371e+01    3.8597396851e+01
    2.9100040436e+01    3.8598701477e+01
    2.9200010300e+01    3.8600101471e+01
    2.9300056458e+01    3.8601600647e+01
    2.9399995804e+01    3.8603000641e+01
    2.9499961853e+01    3.8604400635e+01
    2.9599985123e+01    3.8605899811e+01
    2.9699998856e+01    3.8607299805e+01
    2.9800075531e+01    3.8608699799e+01
    2.9899974823e+01    3.8610099792e+01
    2.9999965668e+01    3.8611701965e+01
    3.0100055695e+01    3.8613098145e+01
    3.0200025558e+01    3.8614601135e+01
    3.0300010681e+01    3.8615997314e+01
    3.0400028229e+01    3.8617500305e+01
    3.0500026703e+01    3.8619098663e+01
    3.0600042343e+01    3.8620498657e+01
    3.0699987411e+01    3.8622001648e+01
    3.0800006866e+01    3.8623497009e+01
    3.0900064468e+01    3.8625099182e+01
    3.1000062943e+01    3.8626602173e+01
    3.1100036621e+01    3.8628097534e+01
    3.1200031281e+01    3.8629699707e+01
    3.1300016403e+01    3.8631202698e+01
    3.1399988174e+01    3.8632900238e+01
    3.1500047684e+01    3.8634498596e+01
    3.1600072861e+01    3.8636100769e+01
    3.1700000763e+01    3.8637702942e+01
    3.1799976349e+01    3.8639301300e+01
    3.1900003433e+01    3.8640899658e+01
    3.2000080109e+01    3.8642501831e+01
    3.2100078583e+01    3.8644199371e+01
    3.2199966431e+01    3.8645801544e+01
    3.2299983978e+01    3.8647499084e+01
    3.2400066376e+01    3.8649200439e+01
    3.2500003815e+01    3.8650802612e+01
    3.2599960327e+01    3.8652500153e+01
    3.2700042725e+01    3.8654197693e+01
    3.2800056458e+01    3.8655899048e+01
    3.2900039673e+01    3.8657699585e+01
    3.2999958038e+01    3.8659400940e+01
    3.3100028992e+01    3.8661201477e+01
    3.3199993134e+01    3.8663002014e+01
    3.3300041199e+01    3.8664699554e+01
    3.3400016785e+01    3.8666500092e+01
    3.3500015259e+01    3.8668296814e+01
    3.3599948883e+01    3.8670200348e+01
    3.3699977875e+01    3.8671897888e+01
    3.3799942017e+01    3.8673801422e+01
    3.3899978638e+01    3.8675697327e+01
    3.4000034332e+01    3.8677600861e+01
    3.4099964142e+01    3.8679401398e+01
    3.4199970245e+01    3.8681400299e+01
    3.4299995422e+01    3.8683300018e+01
    3.4399948120e+01    3.8685199738e+01
    3.4500015259e+01    3.8687198639e+01
    3.4599971771e+01    3.8689102173e+01
    3.4699951172e+01    3.8691101074e+01
    3.4799968719e+01    3.8693099976e+01
    3.4899978638e+01    3.8694999695e+01
    3.4999988556e+01    3.8697101593e+01
    3.5099922180e+01    3.8699100494e+01
    3.5199993134e+01    3.8701198578e+01
    3.5300029755e+01    3.8703201294e+01
    3.5399940491e+01    3.8705200195e+01
    3.5500030518e+01    3.8707397461e+01
    3.5599929810e+01    3.8709499359e+01
    3.5700016022e+01    3.8711601257e+01
    3.5799911499e+01    3.8713699341e+01
    3.5899997711e+01    3.8715900421e+01
    3.5999923706e+01    3.8718101501e+01
    3.6099948883e+01    3.8720298767e+01
    3.6199981689e+01    3.8722499847e+01
    3.6299987793e+01    3.8724800110e+01
    3.6399906158e+01    3.8727001190e+01
    3.6499954224e+01    3.8729202271e+01
    3.6599964142e+01    3.8731498718e+01
    3.6699897766e+01    3.8733898163e+01
    3.6799972534e+01    3.8736198425e+01
    3.6899921417e+01    3.8738502502e+01
    3.6999938965e+01    3.8740798950e+01
    3.7099956512e+01    3.8743202209e+01
    3.7199901581e+01    3.8745601654e+01
    3.7299903870e+01    3.8748001099e+01
    3.7399963379e+01    3.8750499725e+01
    3.7499923706e+01    3.8752899170e+01
    3.7599910736e+01    3.8755401611e+01
    3.7699924469e+01    3.8757900238e+01
    3.7799926758e+01    3.8760398865e+01
    3.7899940491e+01    3.8763000488e+01
    3.7999904633e+01    3.8765499115e+01
    3.8099952698e+01    3.8768100739e+01
    3.8199878693e+01    3.8770797729e+01
    3.8299964905e+01    3.8773399353e+01
    3.8399932861e+01    3.8776100159e+01
    3.8499961853e+01    3.8778697968e+01
    3.8599929810e+01    3.8781402588e+01
    3.8699893951e+01    3.8784202576e+01
    3.8799900055e+01    3.8786899567e+01
    3.8899959564e+01    3.8789600372e+01
    3.8999927521e+01    3.8792499542e+01
    3.9099899292e+01    3.8795299530e+01
    3.9199893951e+01    3.8798099518e+01
    3.9299903870e+01    3.8801002502e+01
    3.9399951935e+01    3.8803901672e+01
    3.9499935150e+01    3.8806800842e+01
    3.9599914551e+01    3.8809799194e+01
    3.9699916840e+01    3.8812698364e+01
    3.9799934387e+01    3.8815799713e+01
    3.9899917603e+01    3.8818698883e+01
    3.9999847412e+01    3.8821800232e+01
    4.0099876404e+01    3.8824901581e+01
    4.0199886322e+01    3.8827999115e+01
    4.0299919128e+01    3.8831100464e+01
    4.0399906158e+01    3.8834197998e+01
    4.0499847412e+01    3.8837501526e+01
    4.0599922180e+01    3.8840698242e+01
    4.0699844360e+01    3.8843898773e+01
    4.0799877167e+01    3.8847198486e+01
    4.0899856567e+01    3.8850502014e+01
    4.0999935150e+01    3.8853797913e+01
    4.1099845886e+01    3.8857200623e+01
    4.1199836731e+01    3.8860599518e+01
    4.1299869537e+01    3.8863998413e+01
    4.1399860382e+01    3.8867500305e+01
    4.1499919891e+01    3.8870899200e+01
    4.1599845886e+01    3.8874401093e+01
    4.1699848175e+01    3.8877998352e+01
    4.1799892426e+01    3.8881500244e+01
    4.1899864197e+01    3.8885101318e+01
    4.1999843597e+01    3.8888797760e+01
    4.2099918365e+01    3.8892398834e+01
    4.2199855804e+01    3.8896099091e+01
    4.2299926758e+01    3.8899902344e+01
    4.2399852753e+01    3.8903598785e+01
    4.2499912262e+01    3.8907402039e+01
    4.2599887848e+01    3.8911201477e+01
    4.2699878693e+01    3.8915100098e+01
    4.2799865723e+01    3.8918998718e+01
    4.2899795532e+01    3.8922901154e+01
    4.2999843597e+01    3.8926799774e+01
    4.3099811554e+01    3.8930801392e+01
    4.3199821472e+01    3.8934898376e+01
    4.3299819946e+01    3.8938899994e+01
    4.3399852753e+01    3.8943000793e+01
    4.3499839783e+01    3.8946998596e+01
    4.3599849701e+01    3.8951301575e+01
    4.3699897766e+01    3.8955497742e+01
    4.3799858093e+01    3.8959701538e+01
    4.3899845123e+01    3.8963897705e+01
    4.3999805450e+01    3.8968200684e+01
    4.4099788666e+01    3.8972499847e+01
    4.4199893951e+01    3.8977001190e+01
    4.4299869537e+01    3.8981300354e+01
    4.4399829865e+01    3.8985702515e+01
    4.4499889374e+01    3.8990200043e+01
    4.4599807739e+01    3.8994800568e+01
    4.4699775696e+01    3.8999301910e+01
    4.4799827576e+01    3.9003898621e+01
    4.4899868011e+01    3.9008499146e+01
    4.4999828339e+01    3.9013198853e+01
    4.5099800110e+01    3.9017898560e+01
    4.5199859619e+01    3.9022598267e+01
    4.5299865723e+01    3.9027400970e+01
    4.5399795532e+01    3.9032299042e+01
    4.5499824524e+01    3.9037200928e+01
    4.5599849701e+01    3.9042098999e+01
    4.5699836731e+01    3.9047100067e+01
    4.5799869537e+01    3.9052101135e+01
    4.5899799347e+01    3.9057102203e+01
    4.5999809265e+01    3.9062198639e+01
    4.6099811554e+01    3.9067398071e+01
    4.6199748993e+01    3.9072498322e+01
    4.6299770355e+01    3.9077800751e+01
    4.6399860382e+01    3.9083099365e+01
    4.6499778748e+01    3.9088401794e+01
    4.6599769592e+01    3.9093799591e+01
    4.6699768066e+01    3.9099201202e+01
    4.6799835205e+01    3.9104801178e+01
    4.6899768829e+01    3.9110301971e+01
    4.6999774933e+01    3.9115898132e+01
    4.7099754333e+01    3.9121601105e+01
    4.7199821472e+01    3.9127300262e+01
    4.7299766541e+01    3.9132999420e+01
    4.7399837494e+01    3.9138801575e+01
    4.7499832153e+01    3.9144699097e+01
    4.7599788666e+01    3.9150600433e+01
    4.7699813843e+01    3.9156600952e+01
    4.7799736023e+01    3.9162601471e+01
    4.7899726868e+01    3.9168701172e+01
    4.7999755859e+01    3.9174900055e+01
    4.8099746704e+01    3.9181198120e+01
    4.8199726105e+01    3.9187500000e+01
    4.8299816132e+01    3.9193698883e+01
    4.8399742126e+01    3.9200199127e+01
    4.8499774933e+01    3.9206699371e+01
    4.8599777222e+01    3.9213199615e+01
    4.8699810028e+01    3.9219799042e+01
    4.8799800873e+01    3.9226501465e+01
    4.8899745941e+01    3.9233299255e+01
    4.8999805450e+01    3.9239997864e+01
    4.9099800110e+01    3.9246898651e+01
    4.9199771881e+01    3.9253898621e+01
    4.9299720764e+01    3.9261001587e+01
    4.9399795532e+01    3.9268096924e+01
    4.9499706268e+01    3.9275199890e+01
    4.9599746704e+01    3.9282501221e+01
    4.9699752808e+01    3.9289901733e+01
    4.9799770355e+01    3.9297302246e+01
    4.9899806976e+01    3.9304801941e+01
    4.9999790192e+01    3.9312500000e+01
    5.0099796295e+01    3.9320198059e+01
    5.0199714661e+01    3.9327999115e+01
    5.0299709320e+01    3.9335800171e+01
    5.0399711609e+01    3.9343799591e+01
    5.0499683380e+01    3.9351898193e+01
    5.0599723816e+01    3.9360000610e+01
    5.0699768066e+01    3.9368198395e+01
    5.0799781799e+01    3.9376602173e+01
    5.0899700165e+01    3.9385002136e+01
    5.0999767303e+01    3.9393600464e+01
    5.1099716187e+01    3.9402198792e+01
    5.1199745178e+01    3.9410999298e+01
    5.1299697876e+01    3.9419799805e+01
    5.1399784088e+01    3.9428798676e+01
    5.1499721527e+01    3.9437900543e+01
    5.1599727631e+01    3.9447101593e+01
    5.1699760437e+01    3.9456401825e+01
    5.1799770355e+01    3.9465801239e+01
    5.1899753571e+01    3.9475299835e+01
    5.1999717712e+01    3.9485000610e+01
    5.2099750519e+01    3.9494800568e+01
    5.2199699402e+01    3.9504600525e+01
    5.2299659729e+01    3.9514701843e+01
    5.2399749756e+01    3.9524799347e+01
    5.2499717712e+01    3.9535099030e+01
    5.2599658966e+01    3.9545600891e+01
    5.2699752808e+01    3.9556098938e+01
    5.2799728394e+01    3.9566799164e+01
    5.2899700165e+01    3.9577598572e+01
    5.2999744415e+01    3.9588600159e+01
    5.3099693298e+01    3.9599700928e+01
    5.3199760437e+01    3.9611000061e+01
    5.3299743652e+01    3.9622398376e+01
    5.3399711609e+01    3.9633899689e+01
    5.3499694824e+01    3.9645599365e+01
    5.3599731445e+01    3.9657501221e+01
    5.3699638367e+01    3.9669399261e+01
    5.3799652100e+01    3.9681598663e+01
    5.3899703979e+01    3.9693901062e+01
    5.3999660492e+01    3.9706501007e+01
    5.4099647522e+01    3.9719100952e+01
    5.4199653625e+01    3.9731899261e+01
    5.4299674988e+01    3.9744899750e+01
    5.4399703979e+01    3.9758102417e+01
    5.4499664307e+01    3.9771499634e+01
    5.4599674225e+01    3.9784999847e+01
    5.4699634552e+01    3.9798801422e+01
    5.4799652100e+01    3.9812698364e+01
    5.4899646759e+01    3.9826797485e+01
    5.4999668121e+01    3.9841098785e+01
    5.5099708557e+01    3.9855598450e+01
    5.5199615479e+01    3.9870300293e+01
    5.5299636841e+01    3.9885200500e+01
    5.5399681091e+01    3.9900299072e+01
    5.5499641418e+01    3.9915599823e+01
    5.5599601746e+01    3.9931098938e+01
    5.5699668884e+01    3.9946899414e+01
    5.5799610138e+01    3.9962799072e+01
    5.5899639130e+01    3.9979000092e+01
    5.5999683380e+01    3.9995399475e+01
    5.6099670410e+01    4.0012001038e+01
    5.6199657440e+01    4.0028800964e+01
    5.6299659729e+01    4.0045898438e+01
    5.6399604797e+01    4.0063098907e+01
    5.6499710083e+01    4.0080699921e+01
    5.6599655151e+01    4.0098400116e+01
    5.6699596405e+01    4.0116298676e+01
    5.6799705505e+01    4.0134597778e+01
    5.6899684906e+01    4.0152999878e+01
    5.6999694824e+01    4.0171699524e+01
    5.7099609375e+01    4.0190700531e+01
    5.7199676514e+01    4.0209899902e+01
    5.7299686432e+01    4.0229400635e+01
    5.7399631500e+01    4.0249000549e+01
    5.7499694824e+01    4.0269100189e+01
    5.7599617004e+01    4.0289199829e+01
    5.7699645996e+01    4.0309799194e+01
    5.7799663544e+01    4.0330600739e+01
    5.7899662018e+01    4.0351600647e+01
    5.7999668121e+01    4.0372901917e+01
    5.8099613190e+01    4.0394500732e+01
    5.8199661255e+01    4.0416400909e+01
    5.8299678802e+01    4.0438499451e+01
    5.8399639130e+01    4.0460899353e+01
    5.8499668121e+01    4.0483699799e+01
    5.8599666595e+01    4.0506698608e+01
    5.8699577332e+01    4.0529998779e+01
    5.8799652100e+01    4.0553600311e+01
    5.8899639130e+01    4.0577499390e+01
    5.8999633789e+01    4.0601699829e+01
    5.9099597931e+01    4.0626197815e+01
    5.9199623108e+01    4.0650901794e+01
    5.9299583435e+01    4.0675998688e+01
    5.9399566650e+01    4.0701301575e+01
    5.9499614716e+01    4.0727100372e+01
    5.9599594116e+01    4.0752998352e+01
    5.9699573517e+01    4.0779300690e+01
    5.9799571991e+01    4.0805900574e+01
    5.9899578094e+01    4.0832798004e+01
    5.9999599457e+01    4.0860099792e+01
    6.0099552155e+01    4.0887599945e+01
    6.0199649811e+01    4.0915401459e+01
    6.0299549103e+01    4.0943599701e+01
    6.0399593353e+01    4.0972000122e+01
    6.0499576569e+01    4.1000801086e+01
    6.0599590302e+01    4.1029899597e+01
    6.0699607849e+01    4.1059299469e+01
    6.0799640656e+01    4.1089099884e+01
    6.0899616241e+01    4.1119098663e+01
    6.0999523163e+01    4.1149497986e+01
    6.1099548340e+01    4.1180099487e+01
    6.1199611664e+01    4.1211097717e+01
    6.1299549103e+01    4.1242500305e+01
    6.1399551392e+01    4.1274101257e+01
    6.1499584198e+01    4.1306198120e+01
    6.1599536896e+01    4.1338401794e+01
    6.1699623108e+01    4.1371200562e+01
    6.1799583435e+01    4.1404098511e+01
    6.1899520874e+01    4.1437400818e+01
    6.1999542236e+01    4.1471099854e+01
    6.2099544525e+01    4.1505100250e+01
    6.2199619293e+01    4.1539398193e+01
    6.2299564362e+01    4.1574100494e+01
    6.2399604797e+01    4.1609100342e+01
    6.2499515533e+01    4.1644401550e+01
    6.2599590302e+01    4.1680099487e+01
    6.2699573517e+01    4.1715999603e+01
    6.2799518585e+01    4.1752399445e+01
    6.2899524689e+01    4.1789100647e+01
    6.2999507904e+01    4.1826099396e+01
    6.3099575043e+01    4.1863597870e+01
    6.3199562073e+01    4.1901401520e+01
    6.3299499512e+01    4.1939498901e+01
    6.3399562836e+01    4.1977897644e+01
    6.3499507904e+01    4.2016700745e+01
    6.3599491119e+01    4.2055900574e+01
    6.3699501038e+01    4.2095397949e+01
    6.3799507141e+01    4.2135299683e+01
    6.3899547577e+01    4.2175498962e+01
    6.3999576569e+01    4.2216102600e+01
    6.4099563599e+01    4.2257099152e+01
    6.4199584961e+01    4.2298500061e+01
    6.4299530029e+01    4.2340099335e+01
    6.4399475098e+01    4.2382099152e+01
    6.4499534607e+01    4.2424598694e+01
    6.4599548340e+01    4.2467502594e+01
    6.4699493408e+01    4.2510601044e+01
    6.4799552917e+01    4.2554298401e+01
    6.4899475098e+01    4.2598197937e+01
    6.4999519348e+01    4.2642601013e+01
    6.5099525452e+01    4.2687400818e+01
    6.5199462891e+01    4.2732501984e+01
    6.5299476624e+01    4.2778102875e+01
    6.5399490356e+01    4.2823997498e+01
    6.5499465942e+01    4.2870399475e+01
    6.5599525452e+01    4.2917201996e+01
    6.5699562073e+01    4.2964500427e+01
    6.5799491882e+01    4.3012001038e+01
    6.5899497986e+01    4.3060096741e+01
    6.5999511719e+01    4.3108600616e+01
    6.6099456787e+01    4.3157398224e+01
    6.6199516296e+01    4.3206901550e+01
    6.6299468994e+01    4.3256599426e+01
    6.6399543762e+01    4.3306900024e+01
    6.6499488831e+01    4.3357498169e+01
    6.6599449158e+01    4.3408599854e+01
    6.6699447632e+01    4.3460300446e+01
    6.6799507141e+01    4.3512401581e+01
    6.6899452209e+01    4.3564899445e+01
    6.6999488831e+01    4.3617897034e+01
    6.7099456787e+01    4.3671501160e+01
    6.7199508667e+01    4.3725502014e+01
    6.7299430847e+01    4.3779899597e+01
    6.7399475098e+01    4.3834899902e+01
    6.7499458313e+01    4.3890403748e+01
    6.7599502563e+01    4.3946498871e+01
    6.7699424744e+01    4.4002899170e+01
    6.7799430847e+01    4.4059997559e+01
    6.7899459839e+01    4.4117500305e+01
    6.7999473572e+01    4.4175697327e+01
    6.8099426270e+01    4.4234298706e+01
    6.8199501038e+01    4.4293598175e+01
    6.8299430847e+01    4.4353199005e+01
    6.8399436951e+01    4.4413600922e+01
    6.8499435425e+01    4.4474498749e+01
    6.8599487305e+01    4.4535999298e+01
    6.8699485779e+01    4.4598098755e+01
    6.8799446106e+01    4.4660701752e+01
    6.8899475098e+01    4.4723999023e+01
    6.8999443054e+01    4.4787799835e+01
    6.9099464417e+01    4.4852302551e+01
    6.9199478149e+01    4.4917396545e+01
    6.9299476624e+01    4.4983100891e+01
    6.9399429321e+01    4.5049400330e+01
    6.9499504089e+01    4.5116500854e+01
    6.9599395752e+01    4.5184101105e+01
    6.9699409485e+01    4.5252399445e+01
    6.9799484253e+01    4.5321502686e+01
    6.9899398804e+01    4.5391098022e+01
    6.9999389648e+01    4.5461502075e+01
    7.0099502563e+01    4.5532699585e+01
    7.0199401855e+01    4.5604400635e+01
    7.0299407959e+01    4.5676898956e+01
    7.0399406433e+01    4.5750198364e+01
    7.0499404907e+01    4.5824100494e+01
    7.0599456787e+01    4.5898902893e+01
    7.0699447632e+01    4.5974300385e+01
    7.0799400330e+01    4.6050502777e+01
    7.0899482727e+01    4.6127597809e+01
    7.0999473572e+01    4.6205398560e+01
    7.1099372864e+01    4.6283901215e+01
    7.1199447632e+01    4.6363399506e+01
    7.1299461365e+01    4.6443599701e+01
    7.1399375916e+01    4.6524600983e+01
    7.1499412537e+01    4.6606502533e+01
    7.1599441528e+01    4.6689300537e+01
    7.1699432373e+01    4.6772899628e+01
    7.1799438477e+01    4.6857398987e+01
    7.1899368286e+01    4.6942798615e+01
    7.1999427795e+01    4.7029098511e+01
    7.2099456787e+01    4.7116298676e+01
    7.2199386597e+01    4.7204399109e+01
    7.2299385071e+01    4.7293498993e+01
    7.2399444580e+01    4.7383598328e+01
    7.2499404907e+01    4.7474601746e+01
    7.2599411011e+01    4.7566600800e+01
    7.2699378967e+01    4.7659599304e+01
    7.2799346924e+01    4.7753601074e+01
    7.2899360657e+01    4.7848697662e+01
    7.2999343872e+01    4.7944797516e+01
    7.3099449158e+01    4.8042098999e+01
    7.3199356079e+01    4.8140197754e+01
    7.3299407959e+01    4.8239700317e+01
    7.3399383545e+01    4.8340103149e+01
    7.3499427795e+01    4.8441799164e+01
    7.3599395752e+01    4.8544399261e+01
    7.3699356079e+01    4.8648200989e+01
    7.3799331665e+01    4.8753200531e+01
    7.3899337769e+01    4.8859397888e+01
    7.3999389648e+01    4.8966800690e+01
    7.4099388123e+01    4.9075401306e+01
    7.4199432373e+01    4.9185203552e+01
    7.4299369812e+01    4.9296100616e+01
    7.4399383545e+01    4.9408401489e+01
    7.4499412537e+01    4.9521900177e+01
    7.4599342346e+01    4.9636600494e+01
    7.4699371338e+01    4.9752563477e+01
    7.4799331665e+01    4.9869880676e+01
    7.4899368286e+01    4.9988517761e+01
    7.4999320984e+01    5.0108291626e+01
    7.5099372864e+01    5.0229591370e+01
    7.5199348450e+01    5.0352027893e+01
    7.5299369812e+01    5.0475982666e+01
    7.5399337769e+01    5.0601173401e+01
    7.5499359131e+01    5.0727779388e+01
    7.5599411011e+01    5.0855808258e+01
    7.5699386597e+01    5.0985183716e+01
    7.5799369812e+01    5.1115959167e+01
    7.5899406433e+01    5.1248168945e+01
    7.5999343872e+01    5.1381797791e+01
    7.6099304199e+01    5.1516860962e+01
    7.6199348450e+01    5.1653530121e+01
    7.6299392700e+01    5.1791618347e+01
    7.6399353027e+01    5.1931129456e+01
    7.6499298096e+01    5.2072059631e+01
    7.6599357605e+01    5.2214691162e+01
    7.6699348450e+01    5.2358749390e+01
    7.6799316406e+01    5.2504329681e+01
    7.6899284363e+01    5.2651409149e+01
    7.6999320984e+01    5.2800209045e+01
    7.7099304199e+01    5.2950523376e+01
    7.7199348450e+01    5.3102432251e+01
    7.7299339294e+01    5.3255859375e+01
    7.7399299622e+01    5.3410888672e+01
    7.7499382019e+01    5.3567722321e+01
    7.7599365234e+01    5.3726066589e+01
    7.7699279785e+01    5.3885917664e+01
    7.7799316406e+01    5.4047668457e+01
    7.7899291992e+01    5.4210922241e+01
    7.7999267578e+01    5.4375770569e+01
    7.8099296570e+01    5.4542510986e+01
    7.8199333191e+01    5.4710952759e+01
    7.8299278259e+01    5.4880901337e+01
    7.8399345398e+01    5.5052818298e+01
    7.8499343872e+01    5.5226337433e+01
    7.8599281311e+01    5.5401470184e+01
    7.8699272156e+01    5.5578468323e+01
    7.8799346924e+01    5.5757350922e+01
    7.8899284363e+01    5.5937728882e+01
    7.8999343872e+01    5.6120090485e+01
    7.9099288940e+01    5.6304039001e+01
    7.9199279785e+01    5.6489860535e+01
    7.9299285889e+01    5.6677459717e+01
    7.9399276733e+01    5.6866939545e+01
    7.9499313354e+01    5.7058189392e+01
    7.9599311829e+01    5.7251319885e+01
    7.9699256897e+01    5.7446128845e+01
    7.9799346924e+01    5.7643089294e+01
    7.9899322510e+01    5.7841629028e+01
    7.9999290466e+01    5.8042137146e+01
    8.0099349976e+01    5.8244602203e+01
    8.0199234009e+01    5.8448638916e+01
    8.0299331665e+01    5.8654918671e+01
    8.0399238586e+01    5.8862770081e+01
    8.0499244690e+01    5.9072769165e+01
    8.0599319458e+01    5.9284919739e+01
    8.0699302673e+01    5.9498718262e+01
    8.0799339294e+01    5.9714672089e+01
    8.0899322510e+01    5.9932369232e+01
    8.0999290466e+01    6.0152122498e+01
    8.1099296570e+01    6.0373901367e+01
    8.1199302673e+01    6.0597721100e+01
    8.1299301147e+01    6.0823577881e+01
    8.1399284363e+01    6.1051380157e+01
    8.1499298096e+01    6.1281299591e+01
    8.1599273682e+01    6.1513252258e+01
    8.1699310303e+01    6.1747318268e+01
    8.1799255371e+01    6.1983329773e+01
    8.1899276733e+01    6.2221538544e+01
    8.1999244690e+01    6.2461776733e+01
    8.2099243164e+01    6.2704227448e+01
    8.2199218750e+01    6.2948699951e+01
    8.2299201965e+01    6.3195270538e+01
    8.2399200439e+01    6.3444137573e+01
    8.2499282837e+01    6.3695301056e+01
    8.2599243164e+01    6.3948379517e+01
    8.2699272156e+01    6.4203750610e+01
    8.2799278259e+01    6.4461296082e+01
    8.2899192810e+01    6.4720771790e+01
    8.2999221802e+01    6.4982803345e+01
    8.3099197388e+01    6.5246818542e+01
    8.3199203491e+01    6.5513206482e+01
    8.3299293518e+01    6.5782066345e+01
    8.3399276733e+01    6.6052909851e+01
    8.3499198914e+01    6.6325737000e+01
    8.3599243164e+01    6.6601211548e+01
    8.3699264526e+01    6.6878936768e+01
    8.3799285889e+01    6.7158828735e+01
    8.3899230957e+01    6.7440879822e+01
    8.3999275208e+01    6.7725372314e+01
    8.4099182129e+01    6.8011917114e+01
    8.4199172974e+01    6.8300910950e+01
    8.4299232483e+01    6.8592414856e+01
    8.4399246216e+01    6.8886161804e+01
    8.4499176025e+01    6.9181953430e+01
    8.4599182129e+01    6.9480262756e+01
    8.4699218750e+01    6.9781166077e+01
    8.4799194336e+01    7.0084121704e+01
    8.4899208069e+01    7.0389671326e+01
    8.4999206543e+01    7.0697631836e+01
    8.5099212646e+01    7.1007888794e+01
    8.5199211121e+01    7.1320648193e+01
    8.5299263000e+01    7.1635986328e+01
    8.5399154663e+01    7.1953163147e+01
    8.5499183655e+01    7.2273284912e+01
    8.5599220276e+01    7.2595870972e+01
    8.5699218750e+01    7.2920753479e+01
    8.5799217224e+01    7.3248001099e+01
    8.5899253845e+01    7.3577896118e+01
    8.5999221802e+01    7.3909973145e+01
    8.6099227905e+01    7.4244689941e+01
    8.6199249268e+01    7.4581848145e+01
    8.6299247742e+01    7.4921257019e+01
    8.6399177551e+01    7.5263015747e+01
    8.6499160767e+01    7.5607398987e+01
    8.6599166870e+01    7.5954200745e+01
    8.6699157715e+01    7.6303421021e+01
    8.6799186707e+01    7.6655235291e+01
    8.6899230957e+01    7.7009475708e+01
    8.6999206543e+01    7.7365921021e+01
    8.7099227905e+01    7.7724952698e+01
    8.7199157715e+01    7.8086090088e+01
    8.7299179077e+01    7.8449989319e+01
    8.7399185181e+01    7.8816162109e+01
    8.7499191284e+01    7.9184722900e+01
    8.7599197388e+01    7.9555725098e+01
    8.7699203491e+01    7.9929107666e+01
    8.7799148560e+01    8.0304641724e+01
    8.7899154663e+01    8.0682708740e+01
    8.7999122620e+01    8.1062919617e+01
    8.8099174500e+01    8.1445930481e+01
    8.8199180603e+01    8.1830986023e+01
    8.8299186707e+01    8.2218452454e+01
    8.8399139404e+01    8.2607940674e+01
    8.8499145508e+01    8.3000015259e+01
    8.8599143982e+01    8.3394393921e+01
    8.8699142456e+01    8.3790840149e+01
    8.8799148560e+01    8.4189781189e+01
    8.8899093628e+01    8.4590499878e+01
    8.8999099731e+01    8.4993858337e+01
    8.9099105835e+01    8.5399375916e+01
    8.9199195862e+01    8.5807510376e+01
    8.9299087524e+01    8.6216865540e+01
    8.9399093628e+01    8.6628997803e+01
    8.9499107361e+01    8.7043151855e+01
    8.9599121094e+01    8.7459510803e+01
    8.9699127197e+01    8.7877891541e+01
    8.9799140930e+01    8.8298347473e+01
    8.9899154663e+01    8.8720802307e+01
    8.9999168396e+01    8.9145332336e+01
    9.0099174500e+01    8.9571830750e+01
    9.0199188232e+01    9.0000297546e+01
    9.0299156189e+01    9.0430534363e+01
    9.0399169922e+01    9.0862777710e+01
    9.0499183655e+01    9.1296966553e+01
    9.0599128723e+01    9.1732711792e+01
    9.0699127197e+01    9.2170440674e+01
    9.0799118042e+01    9.2609947205e+01
    9.0899147034e+01    9.3051399231e+01
    9.0999084473e+01    9.3494026184e+01
    9.1099082947e+01    9.3938529968e+01
    9.1199096680e+01    9.4384704590e+01
    9.1299125671e+01    9.4832489014e+01
    9.1399085999e+01    9.5281318665e+01
    9.1499061584e+01    9.5731704712e+01
    9.1599105835e+01    9.6183578491e+01
    9.1699165344e+01    9.6636940002e+01
    9.1799148560e+01    9.7091102600e+01
    9.1899093628e+01    9.7546142578e+01
    9.1999084473e+01    9.8002670288e+01
    9.2099075317e+01    9.8460098267e+01
    9.2199058533e+01    9.8918617249e+01
    9.2299118042e+01    9.9378372192e+01
    9.2399078369e+01    9.9838638306e+01
    9.2499076843e+01    1.0029993439e+02
    9.2599143982e+01    1.0076235962e+02
    9.2699073792e+01    1.0122502899e+02
    9.2799064636e+01    1.0168874359e+02
    9.2899139404e+01    1.0215357971e+02
    9.2999130249e+01    1.0261888885e+02
    9.3099090576e+01    1.0308475494e+02
    9.3199096680e+01    1.0355162811e+02
    9.3299072266e+01    1.0401895905e+02
    9.3399085999e+01    1.0448712158e+02
    9.3499076843e+01    1.0495582581e+02
    9.3599067688e+01    1.0542520142e+02
    9.3699028015e+01    1.0589524841e+02
    9.3799034119e+01    1.0636522675e+02
    9.3899093628e+01    1.0683714294e+02
    9.3999114990e+01    1.0730802917e+02
    9.4099060059e+01    1.0777995300e+02
    9.4199096680e+01    1.0825275421e+02
    9.4299095154e+01    1.0872453308e+02
    9.4399070740e+01    1.0919729614e+02
    9.4499038696e+01    1.0967102051e+02
    9.4599075317e+01    1.1014463043e+02
    9.4699028015e+01    1.1061724091e+02
    9.4799026489e+01    1.1109072876e+02
    9.4899093628e+01    1.1156505585e+02
    9.4999114990e+01    1.1203829956e+02
    9.5099067688e+01    1.1251146698e+02
    9.5199096680e+01    1.1298542786e+02
    9.5299003601e+01    1.1345732117e+02
    9.5399017334e+01    1.1392993164e+02
    9.5499038696e+01    1.1440229797e+02
    9.5599006653e+01    1.1487448883e+02
    9.5699104309e+01    1.1534628296e+02
    9.5799079895e+01    1.1581694031e+02
    9.5899024963e+01    1.1628733826e+02
    9.5998992920e+01    1.1675743103e+02
    9.6099098206e+01    1.1722705078e+02
    9.6199050903e+01    1.1769550323e+02
    9.6299041748e+01    1.1816355896e+02
    9.6399078369e+01    1.1863120270e+02
    9.6499008179e+01    1.1909658051e+02
    9.6599060059e+01    1.1956246185e+02
    9.6699028015e+01    1.2002805328e+02
    9.6798995972e+01    1.2049125671e+02
    9.6899078369e+01    1.2095492554e+02
    9.6999046326e+01    1.2141735840e+02
    9.7099029541e+01    1.2187835693e+02
    9.7199020386e+01    1.2233895874e+02
    9.7299079895e+01    1.2279908752e+02
    9.7399078369e+01    1.2325791931e+02
    9.7498992920e+01    1.2371549988e+02
    9.7599029541e+01    1.2417256165e+02
    9.7698989868e+01    1.2462837982e+02
    9.7798995972e+01    1.2508379364e+02
    9.7898971558e+01    1.2553791046e+02
    9.7998977661e+01    1.2599163818e+02
    9.8098968506e+01    1.2644404602e+02
    9.8199058533e+01    1.2689598846e+02
    9.8299064636e+01    1.2734670258e+02
    9.8399009705e+01    1.2779615021e+02
    9.8499038696e+01    1.2824514771e+02
    9.8598960876e+01    1.2869288635e+02
    9.8698982239e+01    1.2914009094e+02
    9.8799018860e+01    1.2958583069e+02
    9.8898994446e+01    1.3003024292e+02
    9.8999038696e+01    1.3047407532e+02
    9.9098983765e+01    1.3091656494e+02
    9.9198959351e+01    1.3135845947e+02
    9.9299049377e+01    1.3179965210e+02
    9.9398971558e+01    1.3223847961e+02
    9.9499008179e+01    1.3267654419e+02
    9.9598976135e+01    1.3311405945e+02
    9.9699012756e+01    1.3354981995e+02
    9.9798942566e+01    1.3398408508e+02
    9.9898963928e+01    1.3441848755e+02
    9.9998931885e+01    1.3485025024e+02
    1.0009902191e+02    1.3528201294e+02
    1.0019902039e+02    1.3571113586e+02
    1.0029895020e+02    1.3613954163e+02
    1.0039894867e+02    1.3656701660e+02
    1.0049893188e+02    1.3699269104e+02
    1.0059896851e+02    1.3741740417e+02
    1.0069892883e+02    1.3784037781e+02
    1.0079892731e+02    1.3826336670e+02
    1.0089897156e+02    1.3868438721e+02
    1.0099896240e+02    1.3910353088e+02
    1.0109892273e+02    1.3952185059e+02
    1.0119895172e+02    1.3993908691e+02
    1.0129898071e+02    1.4035543823e+02
    1.0139897919e+02    1.4077090454e+02
    1.0149893951e+02    1.4118453979e+02
    1.0159893799e+02    1.4159715271e+02
    1.0169898224e+02    1.4200878906e+02
    1.0179895782e+02    1.4241960144e+02
    1.0189897156e+02    1.4282948303e+02
    1.0199893951e+02    1.4323854065e+02
    1.0209896088e+02    1.4364657593e+02
    1.0219898224e+02    1.4405366516e+02
    1.0229898834e+02    1.4445988464e+02
    1.0239893341e+02    1.4486531067e+02
    1.0249899292e+02    1.4527055359e+02
    1.0259889984e+02    1.4567417908e+02
    1.0269895935e+02    1.4607655334e+02
    1.0279894257e+02    1.4647914124e+02
    1.0289898682e+02    1.4688160706e+02
    1.0299893188e+02    1.4728132629e+02
    1.0309896851e+02    1.4768183899e+02
    1.0319895172e+02    1.4808151245e+02
    1.0329897308e+02    1.4848110962e+02
    1.0339891815e+02    1.4887890625e+02
    1.0349890900e+02    1.4927659607e+02
    1.0359889221e+02    1.4967337036e+02
    1.0369888306e+02    1.5007011414e+02
    1.0379891205e+02    1.5046578979e+02
    1.0389888763e+02    1.5086151123e+02
    1.0399894714e+02    1.5125709534e+02
    1.0409890747e+02    1.5165089417e+02
    1.0419889832e+02    1.5204570007e+02
    1.0429892731e+02    1.5243940735e+02
    1.0439897156e+02    1.5283210754e+02
    1.0449887085e+02    1.5322509766e+02
    1.0459890747e+02    1.5361779785e+02
    1.0469886017e+02    1.5400979614e+02
    1.0479885101e+02    1.5440170288e+02
    1.0489888763e+02    1.5479249573e+02
    1.0499887848e+02    1.5518350220e+02
    1.0509889984e+02    1.5557539368e+02
    1.0519888306e+02    1.5596539307e+02
    1.0529888916e+02    1.5635549927e+02
    1.0539888763e+02    1.5674560547e+02
    1.0549890900e+02    1.5713569641e+02
    1.0559889984e+02    1.5752490234e+02
    1.0569892120e+02    1.5791409302e+02
    1.0579888916e+02    1.5830239868e+02
    1.0589890289e+02    1.5869171143e+02
    1.0599886322e+02    1.5908009338e+02
    1.0609893799e+02    1.5946820068e+02
    1.0619886780e+02    1.5985580444e+02
    1.0629885101e+02    1.6024319458e+02
    1.0639891052e+02    1.6063040161e+02
    1.0649884796e+02    1.6101789856e+02
    1.0659892273e+02    1.6140411377e+02
    1.0669886780e+02    1.6179051208e+02
    1.0679888153e+02    1.6217671204e+02
    1.0689891052e+02    1.6256269836e+02
    1.0699881744e+02    1.6294709778e+02
    1.0709884644e+02    1.6333200073e+02
    1.0719891357e+02    1.6371669006e+02
    1.0729889679e+02    1.6410050964e+02
    1.0739884186e+02    1.6448429871e+02
    1.0749884796e+02    1.6486769104e+02
    1.0759886932e+02    1.6524989319e+02
    1.0769889069e+02    1.6563198853e+02
    1.0779881287e+02    1.6601409912e+02
    1.0789891052e+02    1.6639559937e+02
    1.0799891663e+02    1.6677609253e+02
    1.0809887695e+02    1.6715550232e+02
    1.0819891357e+02    1.6753550720e+02
    1.0829885101e+02    1.6791360474e+02
    1.0839885712e+02    1.6829220581e+02
    1.0849886322e+02    1.6866949463e+02
    1.0859887695e+02    1.6904660034e+02
    1.0869882202e+02    1.6942269897e+02
    1.0879878998e+02    1.6979829407e+02
    1.0889884186e+02    1.7017349243e+02
    1.0899878693e+02    1.7054769897e+02
    1.0909882355e+02    1.7092129517e+02
    1.0919882965e+02    1.7129479980e+02
    1.0929885864e+02    1.7166679382e+02
    1.0939884186e+02    1.7203759766e+02
    1.0949880981e+02    1.7240820312e+02
    1.0959882355e+02    1.7277828979e+02
    1.0969879150e+02    1.7314709473e+02
    1.0979888153e+02    1.7351510620e+02
    1.0989887238e+02    1.7388209534e+02
    1.0999884796e+02    1.7424780273e+02
    1.1009877777e+02    1.7461329651e+02
    1.1019885254e+02    1.7497770691e+02
    1.1029885864e+02    1.7534100342e+02
    1.1039884949e+02    1.7570289612e+02
    1.1049883270e+02    1.7606439209e+02
    1.1059886932e+02    1.7642419434e+02
    1.1069880676e+02    1.7678300476e+02
    1.1079875946e+02    1.7714019775e+02
    1.1089884186e+02    1.7749749756e+02
    1.1099884796e+02    1.7785348511e+02
    1.1109882355e+02    1.7820819092e+02
    1.1119876099e+02    1.7856059265e+02
    1.1129876709e+02    1.7891310120e+02
    1.1139875793e+02    1.7926429749e+02
    1.1149884033e+02    1.7961459351e+02
    1.1159874725e+02    1.7996200562e+02
    1.1169877625e+02    1.8030950928e+02
    1.1179884338e+02    1.8065629578e+02
    1.1189878082e+02    1.8100109863e+02
    1.1199874115e+02    1.8134419250e+02
    1.1209879303e+02    1.8168649292e+02
    1.1219885254e+02    1.8202720642e+02
    1.1229876709e+02    1.8236680603e+02
    1.1239877319e+02    1.8270460510e+02
    1.1249883270e+02    1.8304150391e+02
    1.1259879303e+02    1.8337730408e+02
    1.1269873047e+02    1.8371159363e+02
    1.1279878235e+02    1.8404391479e+02
    1.1289884186e+02    1.8437550354e+02
    1.1299877930e+02    1.8470510864e+02
    1.1309877014e+02    1.8503388977e+02
    1.1319882965e+02    1.8536079407e+02
    1.1329881287e+02    1.8568650818e+02
    1.1339878845e+02    1.8601071167e+02
    1.1349878693e+02    1.8633329773e+02
    1.1359877014e+02    1.8665440369e+02
    1.1369877625e+02    1.8697489929e+02
    1.1379879761e+02    1.8729380798e+02
    1.1389881134e+02    1.8761120605e+02
    1.1399877930e+02    1.8792630005e+02
    1.1409873199e+02    1.8824099731e+02
    1.1419870758e+02    1.8855410767e+02
    1.1429872894e+02    1.8886549377e+02
    1.1439875031e+02    1.8917550659e+02
    1.1449875641e+02    1.8948390198e+02
    1.1459873199e+02    1.8979209900e+02
    1.1469879150e+02    1.9009739685e+02
    1.1479875183e+02    1.9040170288e+02
    1.1489872742e+02    1.9070539856e+02
    1.1499878693e+02    1.9100720215e+02
    1.1509873962e+02    1.9130709839e+02
    1.1519880676e+02    1.9160589600e+02
    1.1529872131e+02    1.9190299988e+02
    1.1539878845e+02    1.9219880676e+02
    1.1549877930e+02    1.9249349976e+02
    1.1559877014e+02    1.9278671265e+02
    1.1569872284e+02    1.9307760620e+02
    1.1579868317e+02    1.9336788940e+02
    1.1589869690e+02    1.9365539551e+02
    1.1599871063e+02    1.9394239807e+02
    1.1609873962e+02    1.9422781372e+02
    1.1619877625e+02    1.9451249695e+02
    1.1629871368e+02    1.9479429626e+02
    1.1639878082e+02    1.9507479858e+02
    1.1649873352e+02    1.9535430908e+02
    1.1659877777e+02    1.9563180542e+02
    1.1669869232e+02    1.9590739441e+02
    1.1679878235e+02    1.9618249512e+02
    1.1689878082e+02    1.9645549011e+02
    1.1699871826e+02    1.9672621155e+02
    1.1709874725e+02    1.9699580383e+02
    1.1719875336e+02    1.9726388550e+02
    1.1729872131e+02    1.9753050232e+02
    1.1739875031e+02    1.9779519653e+02
    1.1749877167e+02    1.9805819702e+02
    1.1759870148e+02    1.9831909180e+02
    1.1769867706e+02    1.9857891846e+02
    1.1779872894e+02    1.9883670044e+02
    1.1789875031e+02    1.9909390259e+02
    1.1799870300e+02    1.9934790039e+02
    1.1809867859e+02    1.9960089111e+02
    1.1819867706e+02    1.9985211182e+02
    1.1829875183e+02    2.0010101318e+02
    1.1839866638e+02    2.0034921265e+02
    1.1849874115e+02    2.0059469604e+02
    1.1859870911e+02    2.0083900452e+02
    1.1869876099e+02    2.0108108521e+02
    1.1879866028e+02    2.0132138062e+02
    1.1889869690e+02    2.0156091309e+02
    1.1899874115e+02    2.0179779053e+02
    1.1909864044e+02    2.0203271484e+02
    1.1919866943e+02    2.0226701355e+02
    1.1929871368e+02    2.0249847412e+02
    1.1939868927e+02    2.0272850037e+02
    1.1949873352e+02    2.0295639038e+02
    1.1959864807e+02    2.0318220520e+02
    1.1969869995e+02    2.0340737915e+02
    1.1979869080e+02    2.0363009644e+02
    1.1989865875e+02    2.0385121155e+02
    1.1999868774e+02    2.0406991577e+02
    1.2009864044e+02    2.0428741455e+02
    1.2019866943e+02    2.0450248718e+02
    1.2029862976e+02    2.0471609497e+02
    1.2039862823e+02    2.0492759705e+02
    1.2049867249e+02    2.0513699341e+02
    1.2059870911e+02    2.0534439087e+02
    1.2069864655e+02    2.0555061340e+02
    1.2079862213e+02    2.0575379944e+02
    1.2089862823e+02    2.0595559692e+02
    1.2099871063e+02    2.0615620422e+02
    1.2109870911e+02    2.0635340881e+02
    1.2119864655e+02    2.0654998779e+02
    1.2129859924e+02    2.0674362183e+02
    1.2139865875e+02    2.0693557739e+02
    1.2149867249e+02    2.0712599182e+02
    1.2159864044e+02    2.0731370544e+02
    1.2169860840e+02    2.0750048828e+02
    1.2179866028e+02    2.0768489075e+02
    1.2189864349e+02    2.0786689758e+02
    1.2199861145e+02    2.0804710388e+02
    1.2209867859e+02    2.0822659302e+02
    1.2219863892e+02    2.0840309143e+02
    1.2229865265e+02    2.0857739258e+02
    1.2239868927e+02    2.0875070190e+02
    1.2249864197e+02    2.0892170715e+02
    1.2259866333e+02    2.0909140015e+02
    1.2269863129e+02    2.0925860596e+02
    1.2279868317e+02    2.0942449951e+02
    1.2289859772e+02    2.0958837891e+02
    1.2299864197e+02    2.0975080872e+02
    1.2309866333e+02    2.0991040039e+02
    1.2319866943e+02    2.1006930542e+02
    1.2329859924e+02    2.1022598267e+02
    1.2339861298e+02    2.1038000488e+02
    1.2349858093e+02    2.1053399658e+02
    1.2359863281e+02    2.1068499756e+02
    1.2369864655e+02    2.1083500671e+02
    1.2379857635e+02    2.1098199463e+02
    1.2389859772e+02    2.1112898254e+02
    1.2399862671e+02    2.1127297974e+02
    1.2409866333e+02    2.1141499329e+02
    1.2419857788e+02    2.1155599976e+02
    1.2429866028e+02    2.1169599915e+02
    1.2439861298e+02    2.1183299255e+02
    1.2449858093e+02    2.1196798706e+02
    1.2459864807e+02    2.1210101318e+02
    1.2469856262e+02    2.1223300171e+02
    1.2479865265e+02    2.1236399841e+02
    1.2489859009e+02    2.1249299622e+02
    1.2499859619e+02    2.1262098694e+02
    1.2509863281e+02    2.1274600220e+02
    1.2519863129e+02    2.1286900330e+02
    1.2529857635e+02    2.1299099731e+02
    1.2539855957e+02    2.1311099243e+02
    1.2549854279e+02    2.1323101807e+02
    1.2559861755e+02    2.1334701538e+02
    1.2569862366e+02    2.1346200562e+02
    1.2579857635e+02    2.1357598877e+02
    1.2589858246e+02    2.1368798828e+02
    1.2599861145e+02    2.1379699707e+02
    1.2609861755e+02    2.1390499878e+02
    1.2619853973e+02    2.1401200867e+02
    1.2629860687e+02    2.1411700439e+02
    1.2639852905e+02    2.1422000122e+02
    1.2649857330e+02    2.1432200623e+02
    1.2659854126e+02    2.1442199707e+02
    1.2669860840e+02    2.1451898193e+02
    1.2679853821e+02    2.1461599731e+02
    1.2689859009e+02    2.1471000671e+02
    1.2699859619e+02    2.1480400085e+02
    1.2709855652e+02    2.1489399719e+02
    1.2719859314e+02    2.1498399353e+02
    1.2729852295e+02    2.1507200623e+02
    1.2739859772e+02    2.1515800476e+02
    1.2749858856e+02    2.1524301147e+02
    1.2759857178e+02    2.1532498169e+02
    1.2769853210e+02    2.1540699768e+02
    1.2779852295e+02    2.1548599243e+02
    1.2789859772e+02    2.1556498718e+02
    1.2799855042e+02    2.1564099121e+02
    1.2809860229e+02    2.1571598816e+02
    1.2819854736e+02    2.1578900146e+02
    1.2829855347e+02    2.1586100769e+02
    1.2839859009e+02    2.1592999268e+02
    1.2849862671e+02    2.1599800110e+02
    1.2859861755e+02    2.1606500244e+02
    1.2869854736e+02    2.1612998962e+02
    1.2879855347e+02    2.1619300842e+02
    1.2889862061e+02    2.1625599670e+02
    1.2899859619e+02    2.1631501770e+02
    1.2909863281e+02    2.1637400818e+02
    1.2919866943e+02    2.1643098450e+02
    1.2929858398e+02    2.1648599243e+02
    1.2939859009e+02    2.1653999329e+02
    1.2949861145e+02    2.1659199524e+02
    1.2959869385e+02    2.1664300537e+02
    1.2969859314e+02    2.1669200134e+02
    1.2979861450e+02    2.1673899841e+02
    1.2989866638e+02    2.1678599548e+02
    1.2999871826e+02    2.1683001709e+02
    1.3009866333e+02    2.1687301636e+02
    1.3019869995e+02    2.1691400146e+02
    1.3029873657e+02    2.1695500183e+02
    1.3039869690e+02    2.1699299622e+02
    1.3049865723e+02    2.1703001404e+02
    1.3059867859e+02    2.1706399536e+02
    1.3069871521e+02    2.1709901428e+02
    1.3079876709e+02    2.1713099670e+02
    1.3089869690e+02    2.1716201782e+02
    1.3099867249e+02    2.1719198608e+02
    1.3109878540e+02    2.1722001648e+02
    1.3119879150e+02    2.1724700928e+02
    1.3129873657e+02    2.1727297974e+02
    1.3139872742e+02    2.1729699707e+02
    1.3149871826e+02    2.1732000732e+02
    1.3159872437e+02    2.1734201050e+02
    1.3169873047e+02    2.1736300659e+02
    1.3179881287e+02    2.1738198853e+02
    1.3189874268e+02    2.1739999390e+02
    1.3199874878e+02    2.1741699219e+02
    1.3209883118e+02    2.1743299866e+02
    1.3219880676e+02    2.1744699097e+02
    1.3229881287e+02    2.1746098328e+02
    1.3239883423e+02    2.1747300720e+02
    1.3249882507e+02    2.1748399353e+02
    1.3259887695e+02    2.1749400330e+02
    1.3269877625e+02    2.1750300598e+02
    1.3279881287e+02    2.1751100159e+02
    1.3289889526e+02    2.1751800537e+02
    1.3299890137e+02    2.1752398682e+02
    1.3309887695e+02    2.1752899170e+02
    1.3319888306e+02    2.1753300476e+02
    1.3329882812e+02    2.1753599548e+02
    1.3339892578e+02    2.1753800964e+02
    1.3349882507e+02    2.1753900146e+02
    1.3359893799e+02    2.1753901672e+02
    1.3369885254e+02    2.1753799438e+02
    1.3379890442e+02    2.1753599548e+02
    1.3389884949e+02    2.1753298950e+02
    1.3399891663e+02    2.1752899170e+02
    1.3409893799e+02    2.1752299500e+02
    1.3419888306e+02    2.1751800537e+02
    1.3429887390e+02    2.1751100159e+02
    1.3439888000e+02    2.1750201416e+02
    1.3449893188e+02    2.1749401855e+02
    1.3459895325e+02    2.1748301697e+02
    1.3469889832e+02    2.1747198486e+02
    1.3479896545e+02    2.1745899963e+02
    1.3489889526e+02    2.1744599915e+02
    1.3499894714e+02    2.1743200684e+02
    1.3509895325e+02    2.1741600037e+02
    1.3519900513e+02    2.1739999390e+02
    1.3529904175e+02    2.1738198853e+02
    1.3539901733e+02    2.1736300659e+02
    1.3549900818e+02    2.1734298706e+02
    1.3559896851e+02    2.1732299805e+02
    1.3569897461e+02    2.1730101013e+02
    1.3579904175e+02    2.1727700806e+02
    1.3589898682e+02    2.1725399780e+02
    1.3599905396e+02    2.1722898865e+02
    1.3609898376e+02    2.1720298767e+02
    1.3619900513e+02    2.1717500305e+02
    1.3629902649e+02    2.1714701843e+02
    1.3639906311e+02    2.1711698914e+02
    1.3649911499e+02    2.1708598328e+02
    1.3659907532e+02    2.1705398560e+02
    1.3669908142e+02    2.1702101135e+02
    1.3679905701e+02    2.1698800659e+02
    1.3689907837e+02    2.1695201111e+02
    1.3699911499e+02    2.1691601562e+02
    1.3709909058e+02    2.1687898254e+02
    1.3719914246e+02    2.1684100342e+02
    1.3729914856e+02    2.1680099487e+02
    1.3739907837e+02    2.1676000977e+02
    1.3749917603e+02    2.1671800232e+02
    1.3759916687e+02    2.1667601013e+02
    1.3769917297e+02    2.1663099670e+02
    1.3779910278e+02    2.1658598328e+02
    1.3789910889e+02    2.1653900146e+02
    1.3799914551e+02    2.1649200439e+02
    1.3809913635e+02    2.1644200134e+02
    1.3819918823e+02    2.1639299011e+02
    1.3829914856e+02    2.1634101868e+02
    1.3839921570e+02    2.1628900146e+02
    1.3849920654e+02    2.1623501587e+02
    1.3859916687e+02    2.1618098450e+02
    1.3869914246e+02    2.1612500000e+02
    1.3879919434e+02    2.1606799316e+02
    1.3889916992e+02    2.1601000977e+02
    1.3899926758e+02    2.1595100403e+02
    1.3909927368e+02    2.1588999939e+02
    1.3919917297e+02    2.1582897949e+02
    1.3929922485e+02    2.1576701355e+02
    1.3939923096e+02    2.1570399475e+02
    1.3949922180e+02    2.1563998413e+02
    1.3959924316e+02    2.1557398987e+02
    1.3969923401e+02    2.1550701904e+02
    1.3979924011e+02    2.1544000244e+02
    1.3989930725e+02    2.1537097168e+02
    1.3999932861e+02    2.1530200195e+02
    1.4009925842e+02    2.1523001099e+02
    1.4019932556e+02    2.1515899658e+02
    1.4029927063e+02    2.1508599854e+02
    1.4039932251e+02    2.1501199341e+02
    1.4049931335e+02    2.1493701172e+02
    1.4059927368e+02    2.1486102295e+02
    1.4069937134e+02    2.1478500366e+02
    1.4079930115e+02    2.1470800781e+02
    1.4089936829e+02    2.1462799072e+02
    1.4099929810e+02    2.1454898071e+02
    1.4109928894e+02    2.1446899414e+02
    1.4119938660e+02    2.1438800049e+02
    1.4129934692e+02    2.1430499268e+02
    1.4139930725e+02    2.1422201538e+02
    1.4149942017e+02    2.1413900757e+02
    1.4159936523e+02    2.1405398560e+02
    1.4169941711e+02    2.1396899414e+02
    1.4179936218e+02    2.1388201904e+02
    1.4189941406e+02    2.1379598999e+02
    1.4199937439e+02    2.1370800781e+02
    1.4209945679e+02    2.1362002563e+02
    1.4219937134e+02    2.1353097534e+02
    1.4229943848e+02    2.1344097900e+02
    1.4239944458e+02    2.1335098267e+02
    1.4249945068e+02    2.1325900269e+02
    1.4259942627e+02    2.1316799927e+02
    1.4269943237e+02    2.1307598877e+02
    1.4279945374e+02    2.1298300171e+02
    1.4289941406e+02    2.1288998413e+02
    1.4299940491e+02    2.1279501343e+02
    1.4309945679e+02    2.1270098877e+02
    1.4319944763e+02    2.1260498047e+02
    1.4329949951e+02    2.1251000977e+02
    1.4339944458e+02    2.1241299438e+02
    1.4349954224e+02    2.1231701660e+02
    1.4359948730e+02    2.1221899414e+02
    1.4369952393e+02    2.1212197876e+02
    1.4379954529e+02    2.1202398682e+02
    1.4389953613e+02    2.1192501831e+02
    1.4399952698e+02    2.1182498169e+02
    1.4409953308e+02    2.1172598267e+02
    1.4419958496e+02    2.1162600708e+02
    1.4429948425e+02    2.1152502441e+02
    1.4439956665e+02    2.1142401123e+02
    1.4449952698e+02    2.1132199097e+02
    1.4459953308e+02    2.1122097778e+02
    1.4469961548e+02    2.1111798096e+02
    1.4479962158e+02    2.1101599121e+02
    1.4489950562e+02    2.1091302490e+02
    1.4499960327e+02    2.1080999756e+02
    1.4509962463e+02    2.1070599365e+02
    1.4519963074e+02    2.1060198975e+02
    1.4529957581e+02    2.1049798584e+02
    1.4539956665e+02    2.1039300537e+02
    1.4549957275e+02    2.1028799438e+02
    1.4559959412e+02    2.1018298340e+02
    1.4569961548e+02    2.1007800293e+02
    1.4579959106e+02    2.0997302246e+02
    1.4589967346e+02    2.0986700439e+02
    1.4599958801e+02    2.0976101685e+02
    1.4609965515e+02    2.0965399170e+02
    1.4619967651e+02    2.0954800415e+02
    1.4629960632e+02    2.0944201660e+02
    1.4639965820e+02    2.0933502197e+02
    1.4649971008e+02    2.0922796631e+02
    1.4659968567e+02    2.0911999512e+02
    1.4669973755e+02    2.0901303101e+02
    1.4679966736e+02    2.0890600586e+02
    1.4689964294e+02    2.0879797363e+02
    1.4699975586e+02    2.0869003296e+02
    1.4709971619e+02    2.0858203125e+02
    1.4719967651e+02    2.0847402954e+02
    1.4729972839e+02    2.0836499023e+02
    1.4739967346e+02    2.0825799561e+02
    1.4749972534e+02    2.0814901733e+02
    1.4759968567e+02    2.0804098511e+02
    1.4769969177e+02    2.0793298340e+02
    1.4779977417e+02    2.0782397461e+02
    1.4789970398e+02    2.0771502686e+02
    1.4799981689e+02    2.0760702515e+02
    1.4809979248e+02    2.0749801636e+02
    1.4819979858e+02    2.0738998413e+02
    1.4829980469e+02    2.0728100586e+02
    1.4839976501e+02    2.0717300415e+02
    1.4849981689e+02    2.0706399536e+02
    1.4859974670e+02    2.0695599365e+02
    1.4869981384e+02    2.0684802246e+02
    1.4879981995e+02    2.0673999023e+02
    1.4889978027e+02    2.0663098145e+02
    1.4899981689e+02    2.0652398682e+02
    1.4909979248e+02    2.0641598511e+02
    1.4919987488e+02    2.0630801392e+02
    1.4929983521e+02    2.0620098877e+02
    1.4939981079e+02    2.0609298706e+02
    1.4949981689e+02    2.0598602295e+02
    1.4959988403e+02    2.0587902832e+02
    1.4969987488e+02    2.0577200317e+02
    1.4979985046e+02    2.0566598511e+02
    1.4989990234e+02    2.0556103516e+02
    1.4999989319e+02    2.0545401001e+02
    1.5009986877e+02    2.0534997559e+02
    1.5019984436e+02    2.0524499512e+02
    1.5029989624e+02    2.0514099121e+02
    1.5039985657e+02    2.0503701782e+02
    1.5049995422e+02    2.0493402100e+02
    1.5059988403e+02    2.0483099365e+02
    1.5069996643e+02    2.0472897339e+02
    1.5079994202e+02    2.0462701416e+02
    1.5089991760e+02    2.0452600098e+02
    1.5099996948e+02    2.0442599487e+02
    1.5110000610e+02    2.0432598877e+02
    1.5119998169e+02    2.0422698975e+02
    1.5129997253e+02    2.0412899780e+02
    1.5140002441e+02    2.0403097534e+02
    1.5149996948e+02    2.0393298340e+02
    1.5159991455e+02    2.0383697510e+02
    1.5170002747e+02    2.0374102783e+02
    1.5180003357e+02    2.0364596558e+02
    1.5190003967e+02    2.0355200195e+02
    1.5200004578e+02    2.0345800781e+02
    1.5210005188e+02    2.0336599731e+02
    1.5220007324e+02    2.0327401733e+02
    1.5230006409e+02    2.0318301392e+02
    1.5240002441e+02    2.0309298706e+02
    1.5249998474e+02    2.0300500488e+02
    1.5259997559e+02    2.0291598511e+02
    1.5270002747e+02    2.0282803345e+02
    1.5280004883e+02    2.0274200439e+02
    1.5290002441e+02    2.0265698242e+02
    1.5300007629e+02    2.0257202148e+02
    1.5310009766e+02    2.0248901367e+02
    1.5320008850e+02    2.0240603638e+02
    1.5330006409e+02    2.0232400513e+02
    1.5340011597e+02    2.0224395752e+02
    1.5350015259e+02    2.0216403198e+02
    1.5360008240e+02    2.0208502197e+02
    1.5370016479e+02    2.0200698853e+02
    1.5380015564e+02    2.0193103027e+02
    1.5390014648e+02    2.0185400391e+02
    1.5400007629e+02    2.0177999878e+02
    1.5410011292e+02    2.0170599365e+02
    1.5420008850e+02    2.0163302612e+02
    1.5430012512e+02    2.0156097412e+02
    1.5440011597e+02    2.0149102783e+02
    1.5450019836e+02    2.0142098999e+02
    1.5460021973e+02    2.0135198975e+02
    1.5470013428e+02    2.0128497314e+02
    1.5480014038e+02    2.0121801758e+02
    1.5490022278e+02    2.0115298462e+02
    1.5500024414e+02    2.0108801270e+02
    1.5510023499e+02    2.0102499390e+02
    1.5520025635e+02    2.0096298218e+02
    1.5530024719e+02    2.0090197754e+02
    1.5540020752e+02    2.0084201050e+02
    1.5550024414e+02    2.0078298950e+02
    1.5560020447e+02    2.0072598267e+02
    1.5570028687e+02    2.0066799927e+02
    1.5580027771e+02    2.0061297607e+02
    1.5590028381e+02    2.0055902100e+02
    1.5600027466e+02    2.0050601196e+02
    1.5610032654e+02    2.0045397949e+02
    1.5620025635e+02    2.0040298462e+02
    1.5630029297e+02    2.0035302734e+02
    1.5640032959e+02    2.0030401611e+02
    1.5650027466e+02    2.0025598145e+02
    1.5660029602e+02    2.0020901489e+02
    1.5670030212e+02    2.0016302490e+02
    1.5680035400e+02    2.0011798096e+02
    1.5690028381e+02    2.0007299805e+02
    1.5700036621e+02    2.0003097534e+02
    1.5710037231e+02    1.9998800659e+02
    1.5720037842e+02    1.9994699097e+02
    1.5730030823e+02    1.9990704346e+02
    1.5740031433e+02    1.9986798096e+02
    1.5750033569e+02    1.9983102417e+02
    1.5760032654e+02    1.9979403687e+02
    1.5770039368e+02    1.9975802612e+02
    1.5780041504e+02    1.9972299194e+02
    1.5790034485e+02    1.9968896484e+02
    1.5800038147e+02    1.9965597534e+02
    1.5810035706e+02    1.9962402344e+02
    1.5820039368e+02    1.9959301758e+02
    1.5830044556e+02    1.9956201172e+02
    1.5840039062e+02    1.9953399658e+02
    1.5850035095e+02    1.9950500488e+02
    1.5860037231e+02    1.9947796631e+02
    1.5870046997e+02    1.9945098877e+02
    1.5880047607e+02    1.9942498779e+02
    1.5890043640e+02    1.9940203857e+02
    1.5900050354e+02    1.9937799072e+02
    1.5910040283e+02    1.9935601807e+02
    1.5920043945e+02    1.9933398438e+02
    1.5930043030e+02    1.9931396484e+02
    1.5940051270e+02    1.9929394531e+02
    1.5950042725e+02    1.9927600098e+02
    1.5960047913e+02    1.9925903320e+02
    1.5970053101e+02    1.9924298096e+02
    1.5980047607e+02    1.9922698975e+02
    1.5990048218e+02    1.9921301270e+02
    1.6000044250e+02    1.9920001221e+02
    1.6010055542e+02    1.9918798828e+02
    1.6020053101e+02    1.9917700195e+02
    1.6030047607e+02    1.9916699219e+02
    1.6040049744e+02    1.9915802002e+02
    1.6050048828e+02    1.9915002441e+02
    1.6060049438e+02    1.9914300537e+02
    1.6070051575e+02    1.9913702393e+02
    1.6080058289e+02    1.9913195801e+02
    1.6090052795e+02    1.9912799072e+02
    1.6100054932e+02    1.9912500000e+02
    1.6110061646e+02    1.9912194824e+02
    1.6120051575e+02    1.9912103271e+02
    1.6130056763e+02    1.9912097168e+02
    1.6140058899e+02    1.9912097168e+02
    1.6150057983e+02    1.9912298584e+02
    1.6160060120e+02    1.9912402344e+02
    1.6170054626e+02    1.9912701416e+02
    1.6180064392e+02    1.9913104248e+02
    1.6190055847e+02    1.9913500977e+02
    1.6200067139e+02    1.9914099121e+02
    1.6210064697e+02    1.9914599609e+02
    1.6220062256e+02    1.9915301514e+02
    1.6230062866e+02    1.9916101074e+02
    1.6240068054e+02    1.9916900635e+02
    1.6250065613e+02    1.9917797852e+02
    1.6260064697e+02    1.9918701172e+02
    1.6270060730e+02    1.9919799805e+02
    1.6280068970e+02    1.9920904541e+02
    1.6290068054e+02    1.9922003174e+02
    1.6300062561e+02    1.9923199463e+02
    1.6310067749e+02    1.9924395752e+02
    1.6320071411e+02    1.9925701904e+02
    1.6330064392e+02    1.9927099609e+02
    1.6340069580e+02    1.9928601074e+02
    1.6350071716e+02    1.9929998779e+02
    1.6360067749e+02    1.9931500244e+02
    1.6370065308e+02    1.9932995605e+02
    1.6380070496e+02    1.9934600830e+02
    1.6390072632e+02    1.9936199951e+02
    1.6400079346e+02    1.9937896729e+02
    1.6410069275e+02    1.9939599609e+02
    1.6420079041e+02    1.9941198730e+02
    1.6430070496e+02    1.9942895508e+02
    1.6440080261e+02    1.9944598389e+02
    1.6450073242e+02    1.9946502686e+02
    1.6460075378e+02    1.9948199463e+02
    1.6470080566e+02    1.9950000000e+02
    1.6480076599e+02    1.9951800537e+02
    1.6490078735e+02    1.9953601074e+02
    1.6500079346e+02    1.9955395508e+02
    1.6510086060e+02    1.9957202148e+02
    1.6520085144e+02    1.9959002686e+02
    1.6530085754e+02    1.9960900879e+02
    1.6540083313e+02    1.9962695312e+02
    1.6550088501e+02    1.9964404297e+02
    1.6560081482e+02    1.9966198730e+02
    1.6570086670e+02    1.9967999268e+02
    1.6580085754e+02    1.9969799805e+02
    1.6590080261e+02    1.9971502686e+02
    1.6600088501e+02    1.9973199463e+02
    1.6610087585e+02    1.9974896240e+02
    1.6620082092e+02    1.9976599121e+02
    1.6630093384e+02    1.9978302002e+02
    1.6640092468e+02    1.9979901123e+02
    1.6650085449e+02    1.9981500244e+02
    1.6660087585e+02    1.9983099365e+02
    1.6670089722e+02    1.9984600830e+02
    1.6680091858e+02    1.9986096191e+02
    1.6690086365e+02    1.9987597656e+02
    1.6700094604e+02    1.9988903809e+02
    1.6710096741e+02    1.9990399170e+02
    1.6720088196e+02    1.9991699219e+02
    1.6730093384e+02    1.9993103027e+02
    1.6740089417e+02    1.9994299316e+02
    1.6750099182e+02    1.9995501709e+02
    1.6760096741e+02    1.9996600342e+02
    1.6770097351e+02    1.9997698975e+02
    1.6780096436e+02    1.9998797607e+02
    1.6790092468e+02    1.9999700928e+02
    1.6800094604e+02    2.0000701904e+02
    1.6810104370e+02    2.0001599121e+02
    1.6820098877e+02    2.0002404785e+02
    1.6830094910e+02    2.0003204346e+02
    1.6840106201e+02    2.0003802490e+02
    1.6850102234e+02    2.0004498291e+02
    1.6860098267e+02    2.0004998779e+02
    1.6870103455e+02    2.0005596924e+02
    1.6880105591e+02    2.0005895996e+02
    1.6890107727e+02    2.0006396484e+02
    1.6900105286e+02    2.0006604004e+02
    1.6910101318e+02    2.0006896973e+02
    1.6920111084e+02    2.0007000732e+02
    1.6930101013e+02    2.0007098389e+02
    1.6940107727e+02    2.0007098389e+02
    1.6950103760e+02    2.0007000732e+02
    1.6960112000e+02    2.0006896973e+02
    1.6970106506e+02    2.0006701660e+02
    1.6980108643e+02    2.0006298828e+02
    1.6990107727e+02    2.0005999756e+02
    1.7000111389e+02    2.0005596924e+02
    1.7010116577e+02    2.0004998779e+02
    1.7020106506e+02    2.0004400635e+02
    1.7030116272e+02    2.0003698730e+02
    1.7040118408e+02    2.0002899170e+02
    1.7050108337e+02    2.0002001953e+02
    1.7060116577e+02    2.0001098633e+02
    1.7070115662e+02    2.0000000000e+02
    1.7080117798e+02    1.9998901367e+02
    1.7090116882e+02    1.9997698975e+02
    1.7100119019e+02    1.9996398926e+02
    1.7110119629e+02    1.9994903564e+02
    1.7120120239e+02    1.9993499756e+02
    1.7130119324e+02    1.9991796875e+02
    1.7140113831e+02    1.9990197754e+02
    1.7150120544e+02    1.9988403320e+02
    1.7160121155e+02    1.9986596680e+02
    1.7170126343e+02    1.9984698486e+02
    1.7180125427e+02    1.9982598877e+02
    1.7190121460e+02    1.9980499268e+02
    1.7200120544e+02    1.9978302002e+02
    1.7210125732e+02    1.9976000977e+02
    1.7220123291e+02    1.9973602295e+02
    1.7230128479e+02    1.9971197510e+02
    1.7240130615e+02    1.9968603516e+02
    1.7250131226e+02    1.9965899658e+02
    1.7260125732e+02    1.9963201904e+02
    1.7270123291e+02    1.9960400391e+02
    1.7280122375e+02    1.9957501221e+02
    1.7290132141e+02    1.9954400635e+02
    1.7300134277e+02    1.9951300049e+02
    1.7310130310e+02    1.9948095703e+02
    1.7320132446e+02    1.9944799805e+02
    1.7330130005e+02    1.9941400146e+02
    1.7340127563e+02    1.9937902832e+02
    1.7350131226e+02    1.9934301758e+02
    1.7360127258e+02    1.9930596924e+02
    1.7370129395e+02    1.9926800537e+02
    1.7380137634e+02    1.9923004150e+02
    1.7390132141e+02    1.9919000244e+02
    1.7400137329e+02    1.9914898682e+02
    1.7410136414e+02    1.9910699463e+02
    1.7420135498e+02    1.9906500244e+02
    1.7430140686e+02    1.9902197266e+02
    1.7440135193e+02    1.9897796631e+02
    1.7450140381e+02    1.9893298340e+02
    1.7460137939e+02    1.9888696289e+02
    1.7470137024e+02    1.9883996582e+02
    1.7480143738e+02    1.9879302979e+02
    1.7490141296e+02    1.9874499512e+02
    1.7500138855e+02    1.9869598389e+02
    1.7510140991e+02    1.9864703369e+02
    1.7520140076e+02    1.9859698486e+02
    1.7530137634e+02    1.9854602051e+02
    1.7540147400e+02    1.9849395752e+02
    1.7550138855e+02    1.9844305420e+02
    1.7560144043e+02    1.9838897705e+02
    1.7570149231e+02    1.9833599854e+02
    1.7580148315e+02    1.9828198242e+02
    1.7590144348e+02    1.9822698975e+02
    1.7600144958e+02    1.9817199707e+02
    1.7610147095e+02    1.9811499023e+02
    1.7620143127e+02    1.9805902100e+02
    1.7630152893e+02    1.9800201416e+02
    1.7640151978e+02    1.9794403076e+02
    1.7650155640e+02    1.9788702393e+02
    1.7660145569e+02    1.9782800293e+02
    1.7670155334e+02    1.9777398682e+02
    1.7680151367e+02    1.9770599365e+02
    1.7690147400e+02    1.9764801025e+02
    1.7700148010e+02    1.9758898926e+02
    1.7710156250e+02    1.9752703857e+02
    1.7720150757e+02    1.9746697998e+02
    1.7730154419e+02    1.9740399170e+02
    1.7740156555e+02    1.9735101318e+02
    1.7750152588e+02    1.9728900146e+02
    1.7760151672e+02    1.9722497559e+02
    1.7770158386e+02    1.9715899658e+02
    1.7780154419e+02    1.9710498047e+02
    1.7790162659e+02    1.9703802490e+02
    1.7800158691e+02    1.9697204590e+02
    1.7810162354e+02    1.9691503906e+02
    1.7820159912e+02    1.9684796143e+02
    1.7830154419e+02    1.9679101562e+02
    1.7840164185e+02    1.9672204590e+02
    1.7850166321e+02    1.9666302490e+02
    1.7860165405e+02    1.9660394287e+02
    1.7870158386e+02    1.9653601074e+02
    1.7880163574e+02    1.9647503662e+02
    1.7890159607e+02    1.9641607666e+02
    1.7900170898e+02    1.9635394287e+02
    1.7910169983e+02    1.9629302979e+02
    1.7920161438e+02    1.9623400879e+02
    1.7930163574e+02    1.9617193604e+02
    1.7940168762e+02    1.9610998535e+02
    1.7950172424e+02    1.9604803467e+02
    1.7960165405e+02    1.9598803711e+02
    1.7970166016e+02    1.9592596436e+02
    1.7980174255e+02    1.9586297607e+02
    1.7990171814e+02    1.9581207275e+02
    1.8000169373e+02    1.9575097656e+02
    1.8010169983e+02    1.9568896484e+02
    1.8020173645e+02    1.9563702393e+02
    1.8030172729e+02    1.9557495117e+02
    1.8040170288e+02    1.9551397705e+02
    1.8050170898e+02    1.9546203613e+02
    1.8060176086e+02    1.9540008545e+02
    1.8070178223e+02    1.9534796143e+02
    1.8080181885e+02    1.9529504395e+02
    1.8090171814e+02    1.9523504639e+02
    1.8100178528e+02    1.9518298340e+02
    1.8110173035e+02    1.9513201904e+02
    1.8120175171e+02    1.9507995605e+02
    1.8130181885e+02    1.9502600098e+02
    1.8140184021e+02    1.9497503662e+02
    1.8150184631e+02    1.9492297363e+02
    1.8160177612e+02    1.9486199951e+02
    1.8170176697e+02    1.9481103516e+02
    1.8180178833e+02    1.9475897217e+02
    1.8190185547e+02    1.9471600342e+02
    1.8200183105e+02    1.9466503906e+02
    1.8210185242e+02    1.9461297607e+02
    1.8220179749e+02    1.9456304932e+02
    1.8230183411e+02    1.9452093506e+02
    1.8240185547e+02    1.9446899414e+02
    1.8250189209e+02    1.9441802979e+02
    1.8260191345e+02    1.9437597656e+02
    1.8270181274e+02    1.9432702637e+02
    1.8280186462e+02    1.9428497314e+02
    1.8290193176e+02    1.9423400879e+02
    1.8300184631e+02    1.9419403076e+02
    1.8310186768e+02    1.9415399170e+02
    1.8320196533e+02    1.9411199951e+02
    1.8330192566e+02    1.9406195068e+02
    1.8340197754e+02    1.9402099609e+02
    1.8350198364e+02    1.9398004150e+02
    1.8360188293e+02    1.9394201660e+02
    1.8370196533e+02    1.9390002441e+02
    1.8380201721e+02    1.9385998535e+02
    1.8390191650e+02    1.9382104492e+02
    1.8400196838e+02    1.9377996826e+02
    1.8410194397e+02    1.9374102783e+02
    1.8420198059e+02    1.9370996094e+02
    1.8430192566e+02    1.9367199707e+02
    1.8440196228e+02    1.9363092041e+02
    1.8450192261e+02    1.9359197998e+02
    1.8460195923e+02    1.9356207275e+02
    1.8470196533e+02    1.9352301025e+02
    1.8480206299e+02    1.9349206543e+02
    1.8490197754e+02    1.9345397949e+02
    1.8500204468e+02    1.9342407227e+02
    1.8510197449e+02    1.9339599609e+02
    1.8520202637e+02    1.9335601807e+02
    1.8530209351e+02    1.9332598877e+02
    1.8540199280e+02    1.9329907227e+02
    1.8550202942e+02    1.9327001953e+02
    1.8560203552e+02    1.9324102783e+02
    1.8570204163e+02    1.9321197510e+02
    1.8580209351e+02    1.9318304443e+02
    1.8590203857e+02    1.9315502930e+02
    1.8600201416e+02    1.9312695312e+02
    1.8610212708e+02    1.9309802246e+02
    1.8620205688e+02    1.9307092285e+02
    1.8630209351e+02    1.9304199219e+02
    1.8640208435e+02    1.9302496338e+02
    1.8650213623e+02    1.9299603271e+02
    1.8660211182e+02    1.9296899414e+02
    1.8670208740e+02    1.9295306396e+02
    1.8680209351e+02    1.9292498779e+02
    1.8690211487e+02    1.9290808105e+02
    1.8700213623e+02    1.9289099121e+02
    1.8710212708e+02    1.9286395264e+02
    1.8720213318e+02    1.9284704590e+02
    1.8730221558e+02    1.9282897949e+02
    1.8740211487e+02    1.9280401611e+02
    1.8750221252e+02    1.9278497314e+02
    1.8760214233e+02    1.9276904297e+02
    1.8770213318e+02    1.9275201416e+02
    1.8780224609e+02    1.9273297119e+02
    1.8790216064e+02    1.9271704102e+02
    1.8800224304e+02    1.9269799805e+02
    1.8810215759e+02    1.9268206787e+02
    1.8820225525e+02    1.9267004395e+02
    1.8830221558e+02    1.9265997314e+02
    1.8840223694e+02    1.9264001465e+02
    1.8850218201e+02    1.9261999512e+02
    1.8860226440e+02    1.9260998535e+02
    1.8870228577e+02    1.9259002686e+02
    1.8880227661e+02    1.9258996582e+02
    1.8890220642e+02    1.9256994629e+02
    1.8900225830e+02    1.9255999756e+02
    1.8910221863e+02    1.9253997803e+02
    1.8920225525e+02    1.9253002930e+02
    1.8930233765e+02    1.9252001953e+02
    1.8940223694e+02    1.9250994873e+02
    1.8950230408e+02    1.9250006104e+02
    1.8960227966e+02    1.9248999023e+02
    1.8970231628e+02    1.9247998047e+02
    1.8980235291e+02    1.9247009277e+02
    1.8990232849e+02    1.9246997070e+02
    1.9000230408e+02    1.9245996094e+02
    1.9010238647e+02    1.9244995117e+02
    1.9020233154e+02    1.9244006348e+02
    1.9030230713e+02    1.9242993164e+02
    1.9040234375e+02    1.9242993164e+02
    1.9050233459e+02    1.9242004395e+02
    1.9060232544e+02    1.9242004395e+02
    1.9070234680e+02    1.9241992188e+02
    1.9080232239e+02    1.9241003418e+02
    1.9090237427e+02    1.9241003418e+02
    1.9100242615e+02    1.9240002441e+02
    1.9110234070e+02    1.9239990234e+02
    1.9120236206e+02    1.9239001465e+02
    1.9130236816e+02    1.9239001465e+02
    1.9140237427e+02    1.9239001465e+02
    1.9150241089e+02    1.9238989258e+02
    1.9160240173e+02    1.9238000488e+02
    1.9170239258e+02    1.9238000488e+02
    1.9180244446e+02    1.9236999512e+02
    1.9190245056e+02    1.9236999512e+02
    1.9200248718e+02    1.9236999512e+02
    1.9210247803e+02    1.9236999512e+02
    1.9220242310e+02    1.9235998535e+02
    1.9230247498e+02    1.9236999512e+02
    1.9240249634e+02    1.9236010742e+02
    1.9250253296e+02    1.9235998535e+02
    1.9260246277e+02    1.9234997559e+02
    1.9270252991e+02    1.9235998535e+02
    1.9280247498e+02    1.9234997559e+02
    1.9290254211e+02    1.9235009766e+02
    1.9300248718e+02    1.9233996582e+02
    1.9310246277e+02    1.9233996582e+02
    1.9320254517e+02    1.9232995605e+02
    1.9330247498e+02    1.9232995605e+02
    1.9340252686e+02    1.9233007812e+02
    1.9350248718e+02    1.9231005859e+02
    1.9360255432e+02    1.9231005859e+02
    1.9370251465e+02    1.9229992676e+02
    1.9380253601e+02    1.9229992676e+02
    1.9390261841e+02    1.9228991699e+02
    1.9400253296e+02    1.9228002930e+02
    1.9410258484e+02    1.9227001953e+02
    1.9420257568e+02    1.9226000977e+02
    1.9430261230e+02    1.9223999023e+02
    1.9440254211e+02    1.9222998047e+02
    1.9450263977e+02    1.9221997070e+02
    1.9460264587e+02    1.9220996094e+02
    1.9470266724e+02    1.9219006348e+02
    1.9480262756e+02    1.9218005371e+02
    1.9490257263e+02    1.9216003418e+02
    1.9500267029e+02    1.9214001465e+02
    1.9510258484e+02    1.9213000488e+02
    1.9520259094e+02    1.9210998535e+02
    1.9530262756e+02    1.9208996582e+02
    1.9540263367e+02    1.9206994629e+02
    1.9550259399e+02    1.9205004883e+02
    1.9560270691e+02    1.9203002930e+02
    1.9570271301e+02    1.9201000977e+02
    1.9580264282e+02    1.9197998047e+02
    1.9590272522e+02    1.9195996094e+02
    1.9600265503e+02    1.9192993164e+02
    1.9610264587e+02    1.9191003418e+02
    1.9620268250e+02    1.9188000488e+02
    1.9630274963e+02    1.9185998535e+02
    1.9640272522e+02    1.9182995605e+02
    1.9650273132e+02    1.9179992676e+02
    1.9660267639e+02    1.9177001953e+02
    1.9670271301e+02    1.9175000000e+02
    1.9680278015e+02    1.9171008301e+02
    1.9690280151e+02    1.9168005371e+02
    1.9700273132e+02    1.9165002441e+02
    1.9710279846e+02    1.9161999512e+02
    1.9720274353e+02    1.9157995605e+02
    1.9730279541e+02    1.9155004883e+02
    1.9740272522e+02    1.9151000977e+02
    1.9750277710e+02    1.9147998047e+02
    1.9760281372e+02    1.9143994141e+02
    1.9770283508e+02    1.9141003418e+02
    1.9780276489e+02    1.9136999512e+02
    1.9790281677e+02    1.9131994629e+02
    1.9800279236e+02    1.9129003906e+02
    1.9810282898e+02    1.9125000000e+02
    1.9820283508e+02    1.9120996094e+02
    1.9830287170e+02    1.9117004395e+02
    1.9840286255e+02    1.9113000488e+02
    1.9850280762e+02    1.9106994629e+02
    1.9860284424e+02    1.9104003906e+02
    1.9870280457e+02    1.9098999023e+02
    1.9880291748e+02    1.9094995117e+02
    1.9890283203e+02    1.9090002441e+02
    1.9900286865e+02    1.9084997559e+02
    1.9910284424e+02    1.9079992676e+02
    1.9920283508e+02    1.9075000000e+02
    1.9930293274e+02    1.9070996094e+02
    1.9940289307e+02    1.9066003418e+02
    1.9950292969e+02    1.9060998535e+02
    1.9960296631e+02    1.9056005859e+02
    1.9970292664e+02    1.9050000000e+02
    1.9980294800e+02    1.9045007324e+02
    1.9990293884e+02    1.9040002441e+02
endcurve
