Curveplot
LS-DYNA keyword deck by LS-PrePost
Z-displ
Resultant Force
Mat/Node Ids
1 #pts=1000
* Minval=    -7.4041433632e-02 at time=        -0.0000399025
* Maxval=     6.6940936279e+02 at time=        19.9948558807
   -3.9902548451e-05   -7.4041433632e-02
   -5.0284437748e-05   -5.2400682122e-02
   -6.1164100771e-05   -2.1449720487e-02
   -7.2109462053e-05    2.0058138296e-02
   -8.2592494437e-05    7.3517285287e-02
   -9.1891561169e-05    1.4002467692e-01
   -9.9165481515e-05    2.2089383006e-01
   -1.0337020649e-04    3.1695723534e-01
   -1.0329641373e-04    4.2938709259e-01
   -9.7548450867e-05    5.5877178907e-01
   -8.4505350969e-05    7.0623016357e-01
   -6.2408085796e-05    8.7212121487e-01
   -2.9189726774e-05    1.0574653149e+00
    1.7267806470e-05    1.2624033689e+00
    7.9502897279e-05    1.4879254103e+00
    1.5997506853e-04    1.7339273691e+00
    2.6171244099e-04    2.0013492107e+00
    3.8748743827e-04    2.2897491455e+00
    5.4083601572e-04    2.5998377800e+00
    7.2480569361e-04    2.9308235645e+00
    9.4345794059e-04    3.2831640244e+00
    1.2000674615e-03    3.6555142403e+00
    1.4992408687e-03    4.0480461121e+00
    1.8444346497e-03    4.4590578079e+00
    2.2408219520e-03    4.8888192177e+00
    2.6919825468e-03    5.3358449936e+00
    3.2036781777e-03    5.8008918762e+00
    3.7795694079e-03    6.2827038765e+00
    4.4260183349e-03    6.7822189331e+00
    5.1467106678e-03    7.2981328964e+00
    5.9486450627e-03    7.8315491676e+00
    6.8354806863e-03    8.3812017441e+00
    7.8148702160e-03    8.9482641220e+00
    8.8903680444e-03    9.5313539505e+00
    1.0070335120e-02    1.0131756783e+01
    1.1358180083e-02    1.0748154640e+01
    1.2762964703e-02    1.1381752968e+01
    1.4287906699e-02    1.2031330109e+01
    1.5942798927e-02    1.2698080063e+01
    1.7730591819e-02    1.3380450249e+01
    1.9661903381e-02    1.4079813957e+01
    2.1739268675e-02    1.4794487000e+01
    2.3974169046e-02    1.5525760651e+01
    2.6368724182e-02    1.6272081375e+01
    2.8935283422e-02    1.7034921646e+01
    3.1675450504e-02    1.7812597275e+01
    3.4602500498e-02    1.8606809616e+01
    3.7717260420e-02    1.9415561676e+01
    4.1030623019e-02    2.0239843369e+01
    4.4553827494e-02    2.1080202103e+01
    4.8286952078e-02    2.1934881210e+01
    5.2245654166e-02    2.2805723190e+01
    5.6429229677e-02    2.3690856934e+01
    6.0854438692e-02    2.4592487335e+01
    6.5519697964e-02    2.5508815765e+01
    7.0442847908e-02    2.6442043304e+01
    7.5621090829e-02    2.7390535355e+01
    8.1068083644e-02    2.8355581284e+01
    8.6797729135e-02    2.9338594437e+01
    9.2806041241e-02    3.0338073730e+01
    9.9113613367e-02    3.1356817245e+01
    1.0571534187e-01    3.2393245697e+01
    1.1263322830e-01    3.3450061798e+01
    1.1986038834e-01    3.4525276184e+01
    1.2741291523e-01    3.5620326996e+01
    1.3530668616e-01    3.6736461639e+01
    1.4353370667e-01    3.7871376038e+01
    1.5211875737e-01    3.9027309418e+01
    1.6105161607e-01    4.0201351166e+01
    1.7035047710e-01    4.1394374847e+01
    1.8003259599e-01    4.2606601715e+01
    1.9008637965e-01    4.3834751129e+01
    2.0054003596e-01    4.5080497742e+01
    2.1137970686e-01    4.6340400696e+01
    2.2262513638e-01    4.7614906311e+01
    2.3429539800e-01    4.8904594421e+01
    2.4637472630e-01    5.0205604553e+01
    2.5889500976e-01    5.1519611359e+01
    2.7183786035e-01    5.2842796326e+01
    2.8522521257e-01    5.4175537109e+01
    2.9907727242e-01    5.5518035889e+01
    3.1337293983e-01    5.6866855621e+01
    3.2813528180e-01    5.8222984314e+01
    3.4338548779e-01    5.9587390900e+01
    3.5909926891e-01    6.0957534790e+01
    3.7530139089e-01    6.2335227966e+01
    3.9201349020e-01    6.3722137451e+01
    4.0920820832e-01    6.5116210938e+01
    4.2691162229e-01    6.6519676208e+01
    4.4514644146e-01    6.7934524536e+01
    4.6388193965e-01    6.9358558655e+01
    4.8314553499e-01    7.0794204712e+01
    5.0296074152e-01    7.2243431091e+01
    5.2329337597e-01    7.3703895569e+01
    5.4417264462e-01    7.5177963257e+01
    5.6562268734e-01    7.6667572021e+01
    5.8760559559e-01    7.8170280457e+01
    6.1015260220e-01    7.9688522339e+01
    6.3328784704e-01    8.1224113464e+01
    6.5697067976e-01    8.2774139404e+01
    6.8123263121e-01    8.4340736389e+01
    7.0609992743e-01    8.5925102234e+01
    7.3152631521e-01    8.7522865295e+01
    7.5754833221e-01    8.9138137817e+01
    7.8418695927e-01    9.0770301819e+01
    8.1140041351e-01    9.2415138245e+01
    8.3921784163e-01    9.4076660156e+01
    8.6767005920e-01    9.5754043579e+01
    8.9670431614e-01    9.7443786621e+01
    9.2634993792e-01    9.9145637512e+01
    9.5661920309e-01    1.0086183929e+02
    9.8753541708e-01    1.0259096527e+02
    1.0190422535e+00    1.0432807922e+02
    1.0511816740e+00    1.0607682037e+02
    1.0839774609e+00    1.0783557892e+02
    1.1173692942e+00    1.0959921265e+02
    1.1514014006e+00    1.1137162781e+02
    1.1860982180e+00    1.1315171814e+02
    1.2213970423e+00    1.1493585968e+02
    1.2573307753e+00    1.1672413635e+02
    1.2939116955e+00    1.1851947021e+02
    1.3311644793e+00    1.2032104492e+02
    1.3690220118e+00    1.2212460327e+02
    1.4075235128e+00    1.2393465424e+02
    1.4467035532e+00    1.2575009918e+02
    1.4864884615e+00    1.2756610870e+02
    1.5269153118e+00    1.2938662720e+02
    1.5679868460e+00    1.3120979309e+02
    1.6097393036e+00    1.3303614807e+02
    1.6520926952e+00    1.3486148071e+02
    1.6950908899e+00    1.3669042969e+02
    1.7387561798e+00    1.3852185059e+02
    1.7830352783e+00    1.4035641479e+02
    1.8279652596e+00    1.4219514465e+02
    1.8735353947e+00    1.4403976440e+02
    1.9196947813e+00    1.4588708496e+02
    1.9665353298e+00    1.4774293518e+02
    2.0140028000e+00    1.4960704041e+02
    2.0620620251e+00    1.5148100281e+02
    2.1107990742e+00    1.5336674500e+02
    2.1601006985e+00    1.5526087952e+02
    2.2100558281e+00    1.5716851807e+02
    2.2606022358e+00    1.5908821106e+02
    2.3117785454e+00    1.6102005005e+02
    2.3635926247e+00    1.6296427917e+02
    2.4160115719e+00    1.6492152405e+02
    2.4689772129e+00    1.6688769531e+02
    2.5225856304e+00    1.6886811829e+02
    2.5767605305e+00    1.7085667419e+02
    2.6315453053e+00    1.7285823059e+02
    2.6868798733e+00    1.7486618042e+02
    2.7428531647e+00    1.7688526917e+02
    2.7993509769e+00    1.7890859985e+02
    2.8564260006e+00    1.8094007874e+02
    2.9140803814e+00    1.8297700500e+02
    2.9723298550e+00    1.8501831055e+02
    3.0310888290e+00    1.8706304932e+02
    3.0904586315e+00    1.8911096191e+02
    3.1503112316e+00    1.9115736389e+02
    3.2106792927e+00    1.9320166016e+02
    3.2716481686e+00    1.9524568176e+02
    3.3331284523e+00    1.9728691101e+02
    3.3951275349e+00    1.9932565308e+02
    3.4576075077e+00    2.0135794067e+02
    3.5205988884e+00    2.0338914490e+02
    3.5841150284e+00    2.0541838074e+02
    3.6480801105e+00    2.0744671631e+02
    3.7125968933e+00    2.0947563171e+02
    3.7775316238e+00    2.1150183105e+02
    3.8429651260e+00    2.1353077698e+02
    3.9088647366e+00    2.1556195068e+02
    3.9752132893e+00    2.1759672546e+02
    4.0419898033e+00    2.1963197327e+02
    4.1091871262e+00    2.2167321777e+02
    4.1769051552e+00    2.2371995544e+02
    4.2449927330e+00    2.2577363586e+02
    4.3134422302e+00    2.2783090210e+02
    4.3823866844e+00    2.2989750671e+02
    4.4517488480e+00    2.3197300720e+02
    4.5214376450e+00    2.3405387878e+02
    4.5914988518e+00    2.3614538574e+02
    4.6620011330e+00    2.3824586487e+02
    4.7328662872e+00    2.4035520935e+02
    4.8040723801e+00    2.4247311401e+02
    4.8756475449e+00    2.4459960938e+02
    4.9476118088e+00    2.4673495483e+02
    5.0198516846e+00    2.4887503052e+02
    5.0924878120e+00    2.5102474976e+02
    5.1653833389e+00    2.5317770386e+02
    5.2386040688e+00    2.5533819580e+02
    5.3121824265e+00    2.5750411987e+02
    5.3860082626e+00    2.5967529297e+02
    5.4601917267e+00    2.6185189819e+02
    5.5346012115e+00    2.6403411865e+02
    5.6092820168e+00    2.6622198486e+02
    5.6842746735e+00    2.6841534424e+02
    5.7594723701e+00    2.7061392212e+02
    5.8349657059e+00    2.7281753540e+02
    5.9106912613e+00    2.7502557373e+02
    5.9866609573e+00    2.7723733521e+02
    6.0628809929e+00    2.7945199585e+02
    6.1392512321e+00    2.8166876221e+02
    6.2158832550e+00    2.8388711548e+02
    6.2927203178e+00    2.8610711670e+02
    6.3697352409e+00    2.8832858276e+02
    6.4468784332e+00    2.9054714966e+02
    6.5243115425e+00    2.9277212524e+02
    6.6018538475e+00    2.9499749756e+02
    6.6796011925e+00    2.9722601318e+02
    6.7574353218e+00    2.9945864868e+02
    6.8354654312e+00    3.0169668579e+02
    6.9136843681e+00    3.0394119263e+02
    6.9919958115e+00    3.0619317627e+02
    7.0704226494e+00    3.0845382690e+02
    7.1490077972e+00    3.1072375488e+02
    7.2276234627e+00    3.1299859619e+02
    7.3064084053e+00    3.1528271484e+02
    7.3853354454e+00    3.1757809448e+02
    7.4643454552e+00    3.1987951660e+02
    7.5434088707e+00    3.2218869019e+02
    7.6226229668e+00    3.2450540161e+02
    7.7018332481e+00    3.2682879639e+02
    7.7811689377e+00    3.2915823364e+02
    7.8606381416e+00    3.3149685669e+02
    7.9400553703e+00    3.3383901978e+02
    8.0196256638e+00    3.3619039917e+02
    8.0992689133e+00    3.3855053711e+02
    8.1789541245e+00    3.4091687012e+02
    8.2587280273e+00    3.4329202271e+02
    8.3385543823e+00    3.4567663574e+02
    8.4184083939e+00    3.4807125854e+02
    8.4983558655e+00    3.5047628784e+02
    8.5783834457e+00    3.5289245605e+02
    8.6583871841e+00    3.5532067871e+02
    8.7384185791e+00    3.5776211548e+02
    8.8185453415e+00    3.6021795654e+02
    8.8986406326e+00    3.6268914795e+02
    8.9787378311e+00    3.6517639160e+02
    9.0588922501e+00    3.6767999268e+02
    9.1389942169e+00    3.7019937134e+02
    9.2191419601e+00    3.7273406982e+02
    9.2993097305e+00    3.7528732300e+02
    9.3794393539e+00    3.7785211182e+02
    9.4595699310e+00    3.8042874146e+02
    9.5397577286e+00    3.8301928711e+02
    9.6198492050e+00    3.8561563110e+02
    9.6999816895e+00    3.8821688843e+02
    9.7801599503e+00    3.9082406616e+02
    9.8602590561e+00    3.9342825317e+02
    9.9404077530e+00    3.9602749634e+02
    1.0020515442e+01    3.9861700439e+02
    1.0100618362e+01    4.0119259644e+02
    1.0180801392e+01    4.0375442505e+02
    1.0260934830e+01    4.0629394531e+02
    1.0341053009e+01    4.0881042480e+02
    1.0421230316e+01    4.1130184937e+02
    1.0501372337e+01    4.1376672363e+02
    1.0581511497e+01    4.1620361328e+02
    1.0661609650e+01    4.1861203003e+02
    1.0741786003e+01    4.2099481201e+02
    1.0821902275e+01    4.2334750366e+02
    1.0902079582e+01    4.2567550659e+02
    1.0982213020e+01    4.2797445679e+02
    1.1062319756e+01    4.3024639893e+02
    1.1142447472e+01    4.3249169922e+02
    1.1222489357e+01    4.3471044922e+02
    1.1302536011e+01    4.3690274048e+02
    1.1382548332e+01    4.3906875610e+02
    1.1462537766e+01    4.4120886230e+02
    1.1542486191e+01    4.4332357788e+02
    1.1622354507e+01    4.4541351318e+02
    1.1702157021e+01    4.4747869873e+02
    1.1781930923e+01    4.4951995850e+02
    1.1861668587e+01    4.5154067993e+02
    1.1941326141e+01    4.5353762817e+02
    1.2020903587e+01    4.5551275635e+02
    1.2100416183e+01    4.5746612549e+02
    1.2179884911e+01    4.5939770508e+02
    1.2259238243e+01    4.6130737305e+02
    1.2338549614e+01    4.6319485474e+02
    1.2417774200e+01    4.6505923462e+02
    1.2496896744e+01    4.6689996338e+02
    1.2575977325e+01    4.6871966553e+02
    1.2654964447e+01    4.7051751709e+02
    1.2733791351e+01    4.7229171753e+02
    1.2812505722e+01    4.7404415894e+02
    1.2891153336e+01    4.7577761841e+02
    1.2969670296e+01    4.7749142456e+02
    1.3048055649e+01    4.7918576050e+02
    1.3126296043e+01    4.8086068726e+02
    1.3204431534e+01    4.8251651001e+02
    1.3282406807e+01    4.8415267944e+02
    1.3360174179e+01    4.8576696777e+02
    1.3437793732e+01    4.8736209106e+02
    1.3515275955e+01    4.8893750000e+02
    1.3592586517e+01    4.9049307251e+02
    1.3669631004e+01    4.9202716064e+02
    1.3746527672e+01    4.9354299927e+02
    1.3823217392e+01    4.9503988647e+02
    1.3899717331e+01    4.9651867676e+02
    1.3976031303e+01    4.9797976685e+02
    1.4052050591e+01    4.9942132568e+02
    1.4127842903e+01    5.0084341431e+02
    1.4203399658e+01    5.0224554443e+02
    1.4278744698e+01    5.0362826538e+02
    1.4353791237e+01    5.0498913574e+02
    1.4428613663e+01    5.0633044434e+02
    1.4503117561e+01    5.0765054321e+02
    1.4577397346e+01    5.0895217896e+02
    1.4651304245e+01    5.1023358154e+02
    1.4724971771e+01    5.1149758911e+02
    1.4798351288e+01    5.1274450684e+02
    1.4871419907e+01    5.1397503662e+02
    1.4944105148e+01    5.1518884277e+02
    1.5016515732e+01    5.1638922119e+02
    1.5088586807e+01    5.1757641602e+02
    1.5160321236e+01    5.1875195312e+02
    1.5231705666e+01    5.1991674805e+02
    1.5302688599e+01    5.2107122803e+02
    1.5373350143e+01    5.2221838379e+02
    1.5443593979e+01    5.2335766602e+02
    1.5513532639e+01    5.2449169922e+02
    1.5583039284e+01    5.2561853027e+02
    1.5652118683e+01    5.2673864746e+02
    1.5720833778e+01    5.2785260010e+02
    1.5789147377e+01    5.2895886230e+02
    1.5857050896e+01    5.3005609131e+02
    1.5924476624e+01    5.3114294434e+02
    1.5991536140e+01    5.3222088623e+02
    1.6058109283e+01    5.3328765869e+02
    1.6124223709e+01    5.3434423828e+02
    1.6189924240e+01    5.3539166260e+02
    1.6255117416e+01    5.3642840576e+02
    1.6319843292e+01    5.3745623779e+02
    1.6384113312e+01    5.3847723389e+02
    1.6447835922e+01    5.3949182129e+02
    1.6511108398e+01    5.4050366211e+02
    1.6573877335e+01    5.4151300049e+02
    1.6636129379e+01    5.4252185059e+02
    1.6697864532e+01    5.4353088379e+02
    1.6759073257e+01    5.4453979492e+02
    1.6819738388e+01    5.4554724121e+02
    1.6879850388e+01    5.4655224609e+02
    1.6939458847e+01    5.4755407715e+02
    1.6998512268e+01    5.4855053711e+02
    1.7057052612e+01    5.4954150391e+02
    1.7114982605e+01    5.5052349854e+02
    1.7172336578e+01    5.5149761963e+02
    1.7229148865e+01    5.5246313477e+02
    1.7285421371e+01    5.5342095947e+02
    1.7341073990e+01    5.5436987305e+02
    1.7396131516e+01    5.5531121826e+02
    1.7450635910e+01    5.5624627686e+02
    1.7504566193e+01    5.5717578125e+02
    1.7557851791e+01    5.5810009766e+02
    1.7610548019e+01    5.5902252197e+02
    1.7662675858e+01    5.5994305420e+02
    1.7714151382e+01    5.6086199951e+02
    1.7765033722e+01    5.6178173828e+02
    1.7815296173e+01    5.6270269775e+02
    1.7864936829e+01    5.6362585449e+02
    1.7913963318e+01    5.6455163574e+02
    1.7962364197e+01    5.6547998047e+02
    1.8010116577e+01    5.6641046143e+02
    1.8057254791e+01    5.6734271240e+02
    1.8103742599e+01    5.6827520752e+02
    1.8149581909e+01    5.6920599365e+02
    1.8194787979e+01    5.7013586426e+02
    1.8239358902e+01    5.7106365967e+02
    1.8283285141e+01    5.7198950195e+02
    1.8326559067e+01    5.7291381836e+02
    1.8369209290e+01    5.7383721924e+02
    1.8411218643e+01    5.7476068115e+02
    1.8452604294e+01    5.7568566895e+02
    1.8493364334e+01    5.7661285400e+02
    1.8533452988e+01    5.7754150391e+02
    1.8572904587e+01    5.7847241211e+02
    1.8611707687e+01    5.7940563965e+02
    1.8649868011e+01    5.8034240723e+02
    1.8687404633e+01    5.8128479004e+02
    1.8724309921e+01    5.8223205566e+02
    1.8760564804e+01    5.8318157959e+02
    1.8796180725e+01    5.8413269043e+02
    1.8831176758e+01    5.8508459473e+02
    1.8865514755e+01    5.8603588867e+02
    1.8899244308e+01    5.8698944092e+02
    1.8932346344e+01    5.8794598389e+02
    1.8964803696e+01    5.8890594482e+02
    1.8996633530e+01    5.8987072754e+02
    1.9027853012e+01    5.9083996582e+02
    1.9058425903e+01    5.9181158447e+02
    1.9088399887e+01    5.9278704834e+02
    1.9117752075e+01    5.9376617432e+02
    1.9146482468e+01    5.9474914551e+02
    1.9174594879e+01    5.9573828125e+02
    1.9202117920e+01    5.9673486328e+02
    1.9229040146e+01    5.9773730469e+02
    1.9255352020e+01    5.9874530029e+02
    1.9281064987e+01    5.9975891113e+02
    1.9306207657e+01    6.0077783203e+02
    1.9330766678e+01    6.0179992676e+02
    1.9354736328e+01    6.0282427979e+02
    1.9378126144e+01    6.0385040283e+02
    1.9400962830e+01    6.0487817383e+02
    1.9423236847e+01    6.0590496826e+02
    1.9444942474e+01    6.0692956543e+02
    1.9466091156e+01    6.0795074463e+02
    1.9486707687e+01    6.0896740723e+02
    1.9506780624e+01    6.0997741699e+02
    1.9526306152e+01    6.1098120117e+02
    1.9545301437e+01    6.1197937012e+02
    1.9563781738e+01    6.1297308350e+02
    1.9581737518e+01    6.1396319580e+02
    1.9599180222e+01    6.1495153809e+02
    1.9616128922e+01    6.1593896484e+02
    1.9632579803e+01    6.1692395020e+02
    1.9648530960e+01    6.1790643311e+02
    1.9663993835e+01    6.1888562012e+02
    1.9678989410e+01    6.1986120605e+02
    1.9693502426e+01    6.2083325195e+02
    1.9707550049e+01    6.2180230713e+02
    1.9721147537e+01    6.2276879883e+02
    1.9734298706e+01    6.2373327637e+02
    1.9747001648e+01    6.2469549561e+02
    1.9759271622e+01    6.2565515137e+02
    1.9771123886e+01    6.2661407471e+02
    1.9782558441e+01    6.2757080078e+02
    1.9793582916e+01    6.2852410889e+02
    1.9804214478e+01    6.2947497559e+02
    1.9814447403e+01    6.3042132568e+02
    1.9824295044e+01    6.3136212158e+02
    1.9833772659e+01    6.3229846191e+02
    1.9842874527e+01    6.3322863770e+02
    1.9851613998e+01    6.3415161133e+02
    1.9860004425e+01    6.3506829834e+02
    1.9868045807e+01    6.3597674561e+02
    1.9875747681e+01    6.3687615967e+02
    1.9883125305e+01    6.3776770020e+02
    1.9890176773e+01    6.3865020752e+02
    1.9896915436e+01    6.3952313232e+02
    1.9903352737e+01    6.4038781738e+02
    1.9909490585e+01    6.4124310303e+02
    1.9915338516e+01    6.4208905029e+02
    1.9920911789e+01    6.4292767334e+02
    1.9926210403e+01    6.4375872803e+02
    1.9931245804e+01    6.4458325195e+02
    1.9936027527e+01    6.4540289307e+02
    1.9940557480e+01    6.4621679688e+02
    1.9944847107e+01    6.4702575684e+02
    1.9948904037e+01    6.4782897949e+02
    1.9952733994e+01    6.4862457275e+02
    1.9956352234e+01    6.4941259766e+02
    1.9959760666e+01    6.5019079590e+02
    1.9962972641e+01    6.5095812988e+02
    1.9965997696e+01    6.5171405029e+02
    1.9968837738e+01    6.5245611572e+02
    1.9971500397e+01    6.5318408203e+02
    1.9973993301e+01    6.5389685059e+02
    1.9976324081e+01    6.5459313965e+02
    1.9978502274e+01    6.5527307129e+02
    1.9980535507e+01    6.5593560791e+02
    1.9982431412e+01    6.5658135986e+02
    1.9984199524e+01    6.5721038818e+02
    1.9985843658e+01    6.5782348633e+02
    1.9987369537e+01    6.5842108154e+02
    1.9988771439e+01    6.5900244141e+02
    1.9990053177e+01    6.5956793213e+02
    1.9991207123e+01    6.6011761475e+02
    1.9992233276e+01    6.6065148926e+02
    1.9993127823e+01    6.6116937256e+02
    1.9993888855e+01    6.6167163086e+02
    1.9994518280e+01    6.6215856934e+02
    1.9995019913e+01    6.6262957764e+02
    1.9995405197e+01    6.6308483887e+02
    1.9995685577e+01    6.6352429199e+02
    1.9995872498e+01    6.6394781494e+02
    1.9995979309e+01    6.6435522461e+02
    1.9996023178e+01    6.6474670410e+02
    1.9996015549e+01    6.6512237549e+02
    1.9995969772e+01    6.6548284912e+02
    1.9995897293e+01    6.6582891846e+02
    1.9995803833e+01    6.6616015625e+02
    1.9995700836e+01    6.6647698975e+02
    1.9995594025e+01    6.6677978516e+02
    1.9995487213e+01    6.6706829834e+02
    1.9995384216e+01    6.6734234619e+02
    1.9995288849e+01    6.6760156250e+02
    1.9995204926e+01    6.6784570312e+02
    1.9995130539e+01    6.6807446289e+02
    1.9995065689e+01    6.6828735352e+02
    1.9995014191e+01    6.6848370361e+02
    1.9994970322e+01    6.6866265869e+02
    1.9994935989e+01    6.6882379150e+02
    1.9994909286e+01    6.6896618652e+02
    1.9994890213e+01    6.6908935547e+02
    1.9994874954e+01    6.6919293213e+02
    1.9994865417e+01    6.6927655029e+02
    1.9994859695e+01    6.6933996582e+02
    1.9994857788e+01    6.6938323975e+02
    1.9994855881e+01    6.6940625000e+02
    1.9994855881e+01    6.6940936279e+02
    1.9994859695e+01    6.6939300537e+02
    1.9994865417e+01    6.6935766602e+02
    1.9994874954e+01    6.6930389404e+02
    1.9994888306e+01    6.6923236084e+02
    1.9994907379e+01    6.6914349365e+02
    1.9994930267e+01    6.6903765869e+02
    1.9994960785e+01    6.6891497803e+02
    1.9995000839e+01    6.6877532959e+02
    1.9995048523e+01    6.6861877441e+02
    1.9995107651e+01    6.6844464111e+02
    1.9995176315e+01    6.6825280762e+02
    1.9995254517e+01    6.6804278564e+02
    1.9995344162e+01    6.6781433105e+02
    1.9995441437e+01    6.6756744385e+02
    1.9995544434e+01    6.6730206299e+02
    1.9995649338e+01    6.6701824951e+02
    1.9995752335e+01    6.6671582031e+02
    1.9995845795e+01    6.6639508057e+02
    1.9995923996e+01    6.6605554199e+02
    1.9995977402e+01    6.6569714355e+02
    1.9995998383e+01    6.6532000732e+02
    1.9995973587e+01    6.6492413330e+02
    1.9995889664e+01    6.6450915527e+02
    1.9995735168e+01    6.6407611084e+02
    1.9995498657e+01    6.6362512207e+02
    1.9995162964e+01    6.6315655518e+02
    1.9994720459e+01    6.6267077637e+02
    1.9994157791e+01    6.6216809082e+02
    1.9993469238e+01    6.6164941406e+02
    1.9992654800e+01    6.6111492920e+02
    1.9991712570e+01    6.6056506348e+02
    1.9990644455e+01    6.6000030518e+02
    1.9989458084e+01    6.5942120361e+02
    1.9988153458e+01    6.5882849121e+02
    1.9986732483e+01    6.5822302246e+02
    1.9985198975e+01    6.5760467529e+02
    1.9983547211e+01    6.5697412109e+02
    1.9981775284e+01    6.5633270264e+02
    1.9979871750e+01    6.5567980957e+02
    1.9977830887e+01    6.5501599121e+02
    1.9975641251e+01    6.5434222412e+02
    1.9973293304e+01    6.5365869141e+02
    1.9970779419e+01    6.5296569824e+02
    1.9968091965e+01    6.5226336670e+02
    1.9965227127e+01    6.5155169678e+02
    1.9962175369e+01    6.5083020020e+02
    1.9958930969e+01    6.5009802246e+02
    1.9955488205e+01    6.4935375977e+02
    1.9951839447e+01    6.4859606934e+02
    1.9947969437e+01    6.4782373047e+02
    1.9943876266e+01    6.4703607178e+02
    1.9939550400e+01    6.4623278809e+02
    1.9934988022e+01    6.4541442871e+02
    1.9930179596e+01    6.4458184814e+02
    1.9925115585e+01    6.4373638916e+02
    1.9919788361e+01    6.4287915039e+02
    1.9914190292e+01    6.4201257324e+02
    1.9908315659e+01    6.4113909912e+02
    1.9902153015e+01    6.4025909424e+02
    1.9895696640e+01    6.3937353516e+02
    1.9888931274e+01    6.3848352051e+02
    1.9881853104e+01    6.3759136963e+02
    1.9874454498e+01    6.3669732666e+02
    1.9866725922e+01    6.3580212402e+02
    1.9858663559e+01    6.3490576172e+02
    1.9850254059e+01    6.3400671387e+02
    1.9841484070e+01    6.3310369873e+02
    1.9832347870e+01    6.3219622803e+02
    1.9822847366e+01    6.3128424072e+02
    1.9812969208e+01    6.3036645508e+02
    1.9802700043e+01    6.2944213867e+02
    1.9792034149e+01    6.2851080322e+02
    1.9780971527e+01    6.2757226562e+02
    1.9769502640e+01    6.2662628174e+02
    1.9757617950e+01    6.2567199707e+02
    1.9745313644e+01    6.2470935059e+02
    1.9732574463e+01    6.2373858643e+02
    1.9719398499e+01    6.2276049805e+02
    1.9705783844e+01    6.2177691650e+02
    1.9691713333e+01    6.2078833008e+02
    1.9677171707e+01    6.1979443359e+02
    1.9662160873e+01    6.1879614258e+02
    1.9646682739e+01    6.1779333496e+02
    1.9630716324e+01    6.1678564453e+02
    1.9614263535e+01    6.1577392578e+02
    1.9597301483e+01    6.1475799561e+02
    1.9579837799e+01    6.1374023438e+02
    1.9561862946e+01    6.1272253418e+02
    1.9543359756e+01    6.1170562744e+02
    1.9524326324e+01    6.1069042969e+02
    1.9504758835e+01    6.0967803955e+02
    1.9484664917e+01    6.0866955566e+02
    1.9464021683e+01    6.0766320801e+02
    1.9442831039e+01    6.0666009521e+02
    1.9421089172e+01    6.0566143799e+02
    1.9398799896e+01    6.0466796875e+02
    1.9375947952e+01    6.0367883301e+02
    1.9352514267e+01    6.0269445801e+02
    1.9328508377e+01    6.0171539307e+02
    1.9303932190e+01    6.0074182129e+02
    1.9278778076e+01    5.9977429199e+02
    1.9253034592e+01    5.9881372070e+02
    1.9226682663e+01    5.9786010742e+02
    1.9199747086e+01    5.9691326904e+02
    1.9172199249e+01    5.9597015381e+02
    1.9144027710e+01    5.9502899170e+02
    1.9115249634e+01    5.9408740234e+02
    1.9085861206e+01    5.9314385986e+02
    1.9055856705e+01    5.9219604492e+02
    1.9025224686e+01    5.9124139404e+02
    1.8993988037e+01    5.9028094482e+02
    1.8962118149e+01    5.8931408691e+02
    1.8929620743e+01    5.8834100342e+02
    1.8896492004e+01    5.8736352539e+02
    1.8862722397e+01    5.8638238525e+02
    1.8828346252e+01    5.8540026855e+02
    1.8793333054e+01    5.8441802979e+02
    1.8757675171e+01    5.8343682861e+02
    1.8721378326e+01    5.8245855713e+02
    1.8684461594e+01    5.8148645020e+02
    1.8646909714e+01    5.8052148438e+02
    1.8608726501e+01    5.7956439209e+02
    1.8569911957e+01    5.7861639404e+02
    1.8530448914e+01    5.7767779541e+02
    1.8490345001e+01    5.7674816895e+02
    1.8449613571e+01    5.7582617188e+02
    1.8408224106e+01    5.7490930176e+02
    1.8366197586e+01    5.7399676514e+02
    1.8323543549e+01    5.7308538818e+02
    1.8280233383e+01    5.7217150879e+02
    1.8236274719e+01    5.7125372314e+02
    1.8191707611e+01    5.7033062744e+02
    1.8146486282e+01    5.6939929199e+02
    1.8100608826e+01    5.6845794678e+02
    1.8054096222e+01    5.6750695801e+02
    1.8006978989e+01    5.6654687500e+02
    1.7959209442e+01    5.6557690430e+02
    1.7910793304e+01    5.6459741211e+02
    1.7861743927e+01    5.6360900879e+02
    1.7812065125e+01    5.6261407471e+02
    1.7761800766e+01    5.6161517334e+02
    1.7710901260e+01    5.6061346436e+02
    1.7659368515e+01    5.5961145020e+02
    1.7607221603e+01    5.5861383057e+02
    1.7554504395e+01    5.5762426758e+02
    1.7501171112e+01    5.5664288330e+02
    1.7447223663e+01    5.5567150879e+02
    1.7392684937e+01    5.5471057129e+02
    1.7337596893e+01    5.5375958252e+02
    1.7281913757e+01    5.5281549072e+02
    1.7225633621e+01    5.5187701416e+02
    1.7168783188e+01    5.5094146729e+02
    1.7111410141e+01    5.5000561523e+02
    1.7053459167e+01    5.4906500244e+02
    1.6994932175e+01    5.4811834717e+02
    1.6935859680e+01    5.4716522217e+02
    1.6876287460e+01    5.4620538330e+02
    1.6816150665e+01    5.4523632812e+02
    1.6755455017e+01    5.4425769043e+02
    1.6694234848e+01    5.4326879883e+02
    1.6632537842e+01    5.4226910400e+02
    1.6570306778e+01    5.4125952148e+02
    1.6507543564e+01    5.4024224854e+02
    1.6444322586e+01    5.3922045898e+02
    1.6380580902e+01    5.3819396973e+02
    1.6316328049e+01    5.3716387939e+02
    1.6251596451e+01    5.3613037109e+02
    1.6186431885e+01    5.3509307861e+02
    1.6120771408e+01    5.3405261230e+02
    1.6054624557e+01    5.3300921631e+02
    1.5988075256e+01    5.3196356201e+02
    1.5921051025e+01    5.3091339111e+02
    1.5853563309e+01    5.2985913086e+02
    1.5785641670e+01    5.2879907227e+02
    1.5717350006e+01    5.2773297119e+02
    1.5648614883e+01    5.2665753174e+02
    1.5579442978e+01    5.2556903076e+02
    1.5509927750e+01    5.2446710205e+02
    1.5439991951e+01    5.2334893799e+02
    1.5369641304e+01    5.2221234131e+02
    1.5298979759e+01    5.2105926514e+02
    1.5227920532e+01    5.1988848877e+02
    1.5156474113e+01    5.1869927979e+02
    1.5084732056e+01    5.1749139404e+02
    1.5012617111e+01    5.1626452637e+02
    1.4940140724e+01    5.1501824951e+02
    1.4867391586e+01    5.1375549316e+02
    1.4794293404e+01    5.1247650146e+02
    1.4720856667e+01    5.1118179321e+02
    1.4647174835e+01    5.0987582397e+02
    1.4573166847e+01    5.0855798340e+02
    1.4498845100e+01    5.0722674561e+02
    1.4424300194e+01    5.0588388062e+02
    1.4349451065e+01    5.0452706909e+02
    1.4274316788e+01    5.0315457153e+02
    1.4198989868e+01    5.0176950073e+02
    1.4123378754e+01    5.0036990356e+02
    1.4047566414e+01    4.9895819092e+02
    1.3971478462e+01    4.9753311157e+02
    1.3895136833e+01    4.9609259033e+02
    1.3818647385e+01    4.9463882446e+02
    1.3741906166e+01    4.9316940308e+02
    1.3664934158e+01    4.9168246460e+02
    1.3587840080e+01    4.9018060303e+02
    1.3510518074e+01    4.8866030884e+02
    1.3433056831e+01    4.8712286377e+02
    1.3355385780e+01    4.8556567383e+02
    1.3277526855e+01    4.8398590088e+02
    1.3199577332e+01    4.8238574219e+02
    1.3121444702e+01    4.8076101685e+02
    1.3043209076e+01    4.7911337280e+02
    1.2964802742e+01    4.7743942261e+02
    1.2886243820e+01    4.7574026489e+02
    1.2807628632e+01    4.7401748657e+02
    1.2728863716e+01    4.7226766968e+02
    1.2650024414e+01    4.7049468994e+02
    1.2571054459e+01    4.6869616699e+02
    1.2491956711e+01    4.6687435913e+02
    1.2412838936e+01    4.6503021240e+02
    1.2333587646e+01    4.6316403198e+02
    1.2254296303e+01    4.6127758789e+02
    1.2174886703e+01    4.5936770630e+02
    1.2095443726e+01    4.5743832397e+02
    1.2015887260e+01    4.5548583984e+02
    1.1936225891e+01    4.5351187134e+02
    1.1856554031e+01    4.5151556396e+02
    1.1776773453e+01    4.4949508667e+02
    1.1696958542e+01    4.4745046997e+02
    1.1617037773e+01    4.4537664795e+02
    1.1537092209e+01    4.4327697754e+02
    1.1457048416e+01    4.4114703369e+02
    1.1376935959e+01    4.3898880005e+02
    1.1296849251e+01    4.3680245972e+02
    1.1216686249e+01    4.3458731079e+02
    1.1136556625e+01    4.3234341431e+02
    1.1056373596e+01    4.3007077026e+02
    1.0976220131e+01    4.2776992798e+02
    1.0896020889e+01    4.2544177246e+02
    1.0815866470e+01    4.2308728027e+02
    1.0735672951e+01    4.2070739746e+02
    1.0655527115e+01    4.1830261230e+02
    1.0575343132e+01    4.1587365723e+02
    1.0495139122e+01    4.1341955566e+02
    1.0415009499e+01    4.1094616699e+02
    1.0334832191e+01    4.0844973755e+02
    1.0254699707e+01    4.0593673706e+02
    1.0174529076e+01    4.0340664673e+02
    1.0094397545e+01    4.0086227417e+02
    1.0014213562e+01    3.9830725098e+02
    9.9340782166e+00    3.9574487305e+02
    9.8539028168e+00    3.9317813110e+02
    9.7737617493e+00    3.9061026001e+02
    9.6935644150e+00    3.8804415894e+02
    9.6133918762e+00    3.8548211670e+02
    9.5331935883e+00    3.8292602539e+02
    9.4530134201e+00    3.8037701416e+02
    9.3727960587e+00    3.7783459473e+02
    9.2926330566e+00    3.7530484009e+02
    9.2124147415e+00    3.7278268433e+02
    9.1322488785e+00    3.7027359009e+02
    9.0520362854e+00    3.6777221680e+02
    8.9718751907e+00    3.6528359985e+02
    8.8916759491e+00    3.6280456543e+02
    8.8115396500e+00    3.6033511353e+02
    8.7313756943e+00    3.5787573242e+02
    8.6512174606e+00    3.5542398071e+02
    8.5711622238e+00    3.5298440552e+02
    8.4911003113e+00    3.5055111694e+02
    8.4111347198e+00    3.4812896729e+02
    8.3311767578e+00    3.4571316528e+02
    8.2513332367e+00    3.4330862427e+02
    8.1715002060e+00    3.4091040039e+02
    8.0917873383e+00    3.3852346802e+02
    8.0120935440e+00    3.3614260864e+02
    7.9325261116e+00    3.3377279663e+02
    7.8529863358e+00    3.3140856934e+02
    7.7735719681e+00    3.2905477905e+02
    7.6941881180e+00    3.2670635986e+02
    7.6149306297e+00    3.2436837769e+02
    7.5357084274e+00    3.2203607178e+02
    7.4566354752e+00    3.1971447754e+02
    7.3776006699e+00    3.1739871216e+02
    7.2987170219e+00    3.1509393311e+02
    7.2198858261e+00    3.1279504395e+02
    7.1412186623e+00    3.1050689697e+02
    7.0626201630e+00    3.0822369385e+02
    6.9841856956e+00    3.0594995117e+02
    6.9058380127e+00    3.0368020630e+02
    6.8276801109e+00    3.0141906738e+02
    6.7496113777e+00    2.9916116333e+02
    6.6717481613e+00    2.9691098022e+02
    6.5939936638e+00    2.9466345215e+02
    6.5164465904e+00    2.9242419434e+02
    6.4390282631e+00    2.9018899536e+02
    6.3618350029e+00    2.8796224976e+02
    6.2847857475e+00    2.8574426270e+02
    6.2079758644e+00    2.8353561401e+02
    6.1313257217e+00    2.8133721924e+02
    6.0549354553e+00    2.7914974976e+02
    5.9787120819e+00    2.7697344971e+02
    5.9027671814e+00    2.7480764771e+02
    5.8270063400e+00    2.7265115356e+02
    5.7515401840e+00    2.7050228882e+02
    5.6763381958e+00    2.6836077881e+02
    5.6013298035e+00    2.6622036743e+02
    5.5266456604e+00    2.6408282471e+02
    5.4521784782e+00    2.6194577026e+02
    5.3780431747e+00    2.5980661011e+02
    5.3041486740e+00    2.5766357422e+02
    5.2306132317e+00    2.5551533508e+02
    5.1573276520e+00    2.5335891724e+02
    5.0844106674e+00    2.5119905090e+02
    5.0118298531e+00    2.4903277588e+02
    4.9395122528e+00    2.4686228943e+02
    4.8675847054e+00    2.4469020081e+02
    4.7959537506e+00    2.4251638794e+02
    4.7247333527e+00    2.4034722900e+02
    4.6538310051e+00    2.3817814636e+02
    4.5833373070e+00    2.3601576233e+02
    4.5132346153e+00    2.3385845947e+02
    4.4434580803e+00    2.3170686340e+02
    4.3741316795e+00    2.2956793213e+02
    4.3051548004e+00    2.2743710327e+02
    4.2366371155e+00    2.2532046509e+02
    4.1685519218e+00    2.2321488953e+02
    4.1008296013e+00    2.2111915588e+02
    4.0335903168e+00    2.1903846741e+02
    3.9667432308e+00    2.1696702576e+02
    3.9003906250e+00    2.1490982056e+02
    3.8345110416e+00    2.1286282349e+02
    3.7690339088e+00    2.1082394409e+02
    3.7040805817e+00    2.0879722595e+02
    3.6396067142e+00    2.0677812195e+02
    3.5755629539e+00    2.0476582336e+02
    3.5120570660e+00    2.0276617432e+02
    3.4490056038e+00    2.0077395630e+02
    3.3865003586e+00    1.9879301453e+02
    3.3245291710e+00    1.9682409668e+02
    3.2630124092e+00    1.9486149597e+02
    3.2020738125e+00    1.9290765381e+02
    3.1416676044e+00    1.9096231079e+02
    3.0817387104e+00    1.8901977539e+02
    3.0224103928e+00    1.8708540344e+02
    2.9636399746e+00    1.8515562439e+02
    2.9053597450e+00    1.8322950745e+02
    2.8476834297e+00    1.8130973816e+02
    2.7905900478e+00    1.7939440918e+02
    2.7340106964e+00    1.7747434998e+02
    2.6780545712e+00    1.7554862976e+02
    2.6226861477e+00    1.7360676575e+02
    2.5678529739e+00    1.7164184570e+02
    2.5136470795e+00    1.6965393066e+02
    2.4599921703e+00    1.6764166260e+02
    2.4069855213e+00    1.6560742188e+02
    2.3545849323e+00    1.6355683899e+02
    2.3027923107e+00    1.6149938965e+02
    2.2515604496e+00    1.5943778992e+02
    2.2009861469e+00    1.5738331604e+02
    2.1510310173e+00    1.5534266663e+02
    2.1016459465e+00    1.5331520081e+02
    2.0529298782e+00    1.5130860901e+02
    2.0048415661e+00    1.4932553101e+02
    1.9573365450e+00    1.4736180115e+02
    1.9105011225e+00    1.4542138672e+02
    1.8643084764e+00    1.4350231934e+02
    1.8186964989e+00    1.4160272217e+02
    1.7737627029e+00    1.3971986389e+02
    1.7294743061e+00    1.3785066223e+02
    1.6857844591e+00    1.3599182129e+02
    1.6427600384e+00    1.3414093018e+02
    1.6003928185e+00    1.3229734802e+02
    1.5586248636e+00    1.3045954895e+02
    1.5175313950e+00    1.2863233948e+02
    1.4770890474e+00    1.2681134033e+02
    1.4372502565e+00    1.2499490356e+02
    1.3980879784e+00    1.2318662262e+02
    1.3595712185e+00    1.2138180542e+02
    1.3216981888e+00    1.1958228302e+02
    1.2844539881e+00    1.1779006958e+02
    1.2478214502e+00    1.1600690460e+02
    1.2118443251e+00    1.1423271942e+02
    1.1765246391e+00    1.1247250366e+02
    1.1418501139e+00    1.1072269440e+02
    1.1077922583e+00    1.0898408508e+02
    1.0743577480e+00    1.0725667572e+02
    1.0415619612e+00    1.0554035950e+02
    1.0094108582e+00    1.0383480072e+02
    9.7787016630e-01    1.0214005280e+02
    9.4694447517e-01    1.0045619202e+02
    9.1666126251e-01    9.8783287048e+01
    8.8697421551e-01    9.7121627808e+01
    8.5790854692e-01    9.5471328735e+01
    8.2943993807e-01    9.3831451416e+01
    8.0159801245e-01    9.2206321716e+01
    7.7435296774e-01    9.0590682983e+01
    7.4772816896e-01    8.8989311218e+01
    7.2166383266e-01    8.7396476746e+01
    6.9621622562e-01    8.5816184998e+01
    6.7133826017e-01    8.4242118835e+01
    6.4706832170e-01    8.2677574158e+01
    6.2334752083e-01    8.1116821289e+01
    6.0020530224e-01    7.9563323975e+01
    5.7765299082e-01    7.8018371582e+01
    5.5564445257e-01    7.6479629517e+01
    5.3417533636e-01    7.4946411133e+01
    5.1328033209e-01    7.3422004700e+01
    4.9292555451e-01    7.1902168274e+01
    4.7309798002e-01    7.0387550354e+01
    4.5380923152e-01    6.8882926941e+01
    4.3505704403e-01    6.7389572144e+01
    4.1682705283e-01    6.5911010742e+01
    3.9908996224e-01    6.4445205688e+01
    3.8187542558e-01    6.2997276306e+01
    3.6516889930e-01    6.1568649292e+01
    3.4894746542e-01    6.0157627106e+01
    3.3320671320e-01    5.8764915466e+01
    3.1795009971e-01    5.7393390656e+01
    3.0317419767e-01    5.6043739319e+01
    2.8885552287e-01    5.4713100433e+01
    2.7499282360e-01    5.3405746460e+01
    2.6159358025e-01    5.2122516632e+01
    2.4862799048e-01    5.0859497070e+01
    2.3610483110e-01    4.9620132446e+01
    2.2400061786e-01    4.8398906708e+01
    2.1232424676e-01    4.7197025299e+01
    2.0106014609e-01    4.6011817932e+01
    1.9020824134e-01    4.4840885162e+01
    1.7974898219e-01    4.3682842255e+01
    1.6967470944e-01    4.2531745911e+01
    1.5998484194e-01    4.1387535095e+01
    1.5066972375e-01    4.0247077942e+01
    1.4172171056e-01    3.9108703613e+01
    1.3313083351e-01    3.7972248077e+01
    1.2488310784e-01    3.6837577820e+01
    1.1698248982e-01    3.5708534241e+01
    1.0941790044e-01    3.4587749481e+01
    1.0217861831e-01    3.3475536346e+01
    9.5252923667e-02    3.2375209808e+01
    8.8636681437e-02    3.1288969040e+01
    8.2326494157e-02    3.0218574524e+01
    7.6299831271e-02    2.9164484024e+01
    7.0564813912e-02    2.8130779266e+01
    6.5108135343e-02    2.7115505219e+01
    5.9916749597e-02    2.6120187759e+01
    5.4987456650e-02    2.5145454407e+01
    5.0310425460e-02    2.4191802979e+01
    4.5876454562e-02    2.3259365082e+01
    4.1681814939e-02    2.2348268509e+01
    3.7714637816e-02    2.1457557678e+01
    3.3970735967e-02    2.0588535309e+01
    3.0442878604e-02    1.9740827560e+01
    2.7119295672e-02    1.8912107468e+01
    2.3993685842e-02    1.8102437973e+01
    2.1060273051e-02    1.7311048508e+01
    1.8309427425e-02    1.6536384583e+01
    1.5738630667e-02    1.5779987335e+01
    1.3334386051e-02    1.5039300919e+01
    1.1092085391e-02    1.4314138412e+01
    9.0076439083e-03    1.3606443405e+01
    7.0702708326e-03    1.2914229393e+01
    5.2739158273e-03    1.2238319397e+01
    3.6131418310e-03    1.1579020500e+01
    2.0797373727e-03    1.0936006546e+01
    6.6915969364e-04    1.0310421944e+01
   -6.2635500217e-04    9.7013816833e+00
   -1.8109368393e-03    9.1089591980e+00
   -2.8940963093e-03    8.5307445526e+00
   -3.8789538667e-03    7.9677467346e+00
   -4.7716018744e-03    7.4196944237e+00
   -5.5790795013e-03    6.8851470947e+00
   -6.3054114580e-03    6.3664202690e+00
   -6.9572571665e-03    5.8617401123e+00
   -7.5381766073e-03    5.3732571602e+00
   -8.0550592393e-03    4.8995308876e+00
   -8.5114110261e-03    4.4425024986e+00
   -8.9122587815e-03    4.0026507378e+00
   -9.2622749507e-03    3.5812199116e+00
   -9.5655405894e-03    3.1799242496e+00
   -9.8266443238e-03    2.7992827892e+00
   -1.0049692355e-02    2.4404675961e+00
   -1.0237945244e-02    2.1056923866e+00
   -1.0395520367e-02    1.7950683832e+00
   -1.0525794700e-02    1.5101099014e+00
   -1.0632041842e-02    1.2517905235e+00
   -1.0717306286e-02    1.0220030546e+00
   -1.0784576647e-02    8.2071220875e-01
   -1.0836458765e-02    6.4902186394e-01
   -1.0875501670e-02    5.0655043125e-01
   -1.0903967544e-02    3.9242428541e-01
   -1.0923944414e-02    3.0484575033e-01
   -1.0937287472e-02    2.4103924632e-01
   -1.0945610702e-02    1.9749571383e-01
   -1.0950339027e-02    1.7007693648e-01
   -1.0952644050e-02    1.5477004647e-01
   -1.0953475721e-02    1.4758892357e-01
   -1.0953560472e-02    1.4512817562e-01
   -1.0953398421e-02    1.4478969574e-01
   -1.0953266174e-02    1.4497226477e-01
   -1.0953228921e-02    1.4505763352e-01
endcurve
