Curveplot
LS-DYNA keyword deck by LS-PrePost
Abscissa
Ordinate
XY data
CHOP_EAMZ_mo-1 #pts=3000
* Minval=    -6.0353401184e+01 at time=       240.1053161621
* Maxval=     1.3503399714e-05 at time=         3.0998694897
    0.0000000000e+00    0.0000000000e+00
    9.9978484213e-02    8.6668596633e-31
    1.9996924698e-01    4.0115299971e-10
    2.9999575019e-01    9.4287500030e-10
    3.9998039603e-01    2.2815700440e-09
    4.9986803532e-01    5.3716999737e-09
    5.9991192818e-01    9.9360404349e-09
    6.9995886087e-01    1.5353000649e-08
    7.9993838072e-01    7.3356801522e-08
    8.9995062351e-01    4.8661098617e-07
    9.9992913008e-01    1.0095900507e-06
    1.0998107195e+00    1.2908000144e-06
    1.1999957561e+00    1.5216299971e-06
    1.2999640703e+00    1.8954699499e-06
    1.3998620510e+00    2.3008299195e-06
    1.4998643398e+00    2.6018799417e-06
    1.5998389721e+00    3.1112799661e-06
    1.6999863386e+00    3.6037599784e-06
    1.7999671698e+00    4.1120301830e-06
    1.8999462128e+00    4.6154800657e-06
    1.9998190403e+00    5.1208498917e-06
    2.0998318195e+00    5.6665799093e-06
    2.1999120712e+00    6.2419799178e-06
    2.2999908924e+00    6.9755601544e-06
    2.3999950886e+00    7.6497699411e-06
    2.4998490810e+00    8.3508803073e-06
    2.5998566151e+00    9.2117397799e-06
    2.6998775005e+00    1.0267600373e-05
    2.7998862267e+00    1.1421199815e-05
    2.8999786377e+00    1.2673300262e-05
    2.9999771118e+00    1.3406999642e-05
    3.0998694897e+00    1.3503399714e-05
    3.1999659538e+00    1.2647499716e-05
    3.2999231815e+00    1.0617300177e-05
    3.3999369144e+00    7.7234799392e-06
    3.4999270439e+00    4.0167001316e-06
    3.5999314785e+00   -4.6236999651e-07
    3.6998090744e+00   -5.4092101891e-06
    3.7998888493e+00   -1.0790699889e-05
    3.8999800682e+00   -1.6748199414e-05
    3.9999651909e+00   -2.2772799639e-05
    4.0998544693e+00   -2.9090200769e-05
    4.1999692917e+00   -3.5579698306e-05
    4.2999444008e+00   -4.2194300477e-05
    4.3998169899e+00   -4.9013200623e-05
    4.4998965263e+00   -5.5647098634e-05
    4.5998468399e+00   -6.2296800024e-05
    4.6999955177e+00   -6.8760200520e-05
    4.7999196053e+00   -7.5164898590e-05
    4.8998670578e+00   -8.1625097664e-05
    4.9999299049e+00   -8.8289198175e-05
    5.0999426842e+00   -9.5251598395e-05
    5.1999893188e+00   -1.0255799862e-04
    5.2999830246e+00   -1.1016499775e-04
    5.3998517990e+00   -1.1799600179e-04
    5.4999961853e+00   -1.2594899454e-04
    5.5998907089e+00   -1.3403499906e-04
    5.6999425888e+00   -1.4226899657e-04
    5.7998881340e+00   -1.5095699928e-04
    5.8998928070e+00   -1.6009199317e-04
    5.9999957085e+00   -1.6973100719e-04
    6.0998554230e+00   -1.8002900470e-04
    6.1999573708e+00   -1.9067700487e-04
    6.2999229431e+00   -2.0189299539e-04
    6.3998460770e+00   -2.1367300360e-04
    6.4999690056e+00   -2.2597999487e-04
    6.5999045372e+00   -2.3880500521e-04
    6.6998834610e+00   -2.5232299231e-04
    6.7999844551e+00   -2.6633701054e-04
    6.8999052048e+00   -2.8112399741e-04
    6.9999651909e+00   -2.9658598942e-04
    7.0999860764e+00   -3.1259498792e-04
    7.1998958588e+00   -3.2942599501e-04
    7.2998194695e+00   -3.4686000436e-04
    7.3999600410e+00   -3.6530199577e-04
    7.4999413490e+00   -3.8442498771e-04
    7.5999202728e+00   -4.0439600707e-04
    7.6998214722e+00   -4.2490201304e-04
    7.7999825478e+00   -4.4629300828e-04
    7.8999524117e+00   -4.6839599963e-04
    7.9999160767e+00   -4.9165799282e-04
    8.0999364853e+00   -5.1604199689e-04
    8.1998634338e+00   -5.4141000146e-04
    8.2999658585e+00   -5.6808098452e-04
    8.3998365402e+00   -5.9547799174e-04
    8.4998741150e+00   -6.2396097928e-04
    8.5998420715e+00   -6.5289798658e-04
    8.6999721527e+00   -6.8250898039e-04
    8.7998924255e+00   -7.1207497967e-04
    8.8998708725e+00   -7.4183702236e-04
    8.9999132156e+00   -7.7190098818e-04
    9.0998907089e+00   -8.0227100989e-04
    9.1998729706e+00   -8.3321100101e-04
    9.2999591827e+00   -8.6488598026e-04
    9.3998889923e+00   -8.9739699615e-04
    9.4999914169e+00   -9.3095202465e-04
    9.5999307632e+00   -9.6544600092e-04
    9.6998796463e+00   -1.0008399840e-03
    9.7998456955e+00   -1.0375400307e-03
    9.8998899460e+00   -1.0751399677e-03
    9.9998445511e+00   -1.1141200084e-03
    1.0099917412e+01   -1.1542099528e-03
    1.0199895859e+01   -1.1956000235e-03
    1.0299830437e+01   -1.2381899869e-03
    1.0399949074e+01   -1.2817200040e-03
    1.0499876022e+01   -1.3262600405e-03
    1.0599975586e+01   -1.3714400120e-03
    1.0699978828e+01   -1.4174199896e-03
    1.0799916267e+01   -1.4638099819e-03
    1.0899959564e+01   -1.5113400295e-03
    1.0999827385e+01   -1.5595200239e-03
    1.1099987030e+01   -1.6089499695e-03
    1.1199858665e+01   -1.6591099557e-03
    1.1299838066e+01   -1.7104999861e-03
    1.1399964333e+01   -1.7630900256e-03
    1.1499829292e+01   -1.8168999813e-03
    1.1599967957e+01   -1.8722900422e-03
    1.1699872971e+01   -1.9288200419e-03
    1.1799877167e+01   -1.9869799726e-03
    1.1899894714e+01   -2.0464400295e-03
    1.1999987602e+01   -2.1074700635e-03
    1.2099980354e+01   -2.1697001066e-03
    1.2199988365e+01   -2.2335499525e-03
    1.2299961090e+01   -2.2986899130e-03
    1.2399939537e+01   -2.3653600365e-03
    1.2499855042e+01   -2.4330599699e-03
    1.2599958420e+01   -2.5020500179e-03
    1.2699847221e+01   -2.5716898963e-03
    1.2799872398e+01   -2.6421200018e-03
    1.2899971962e+01   -2.7141401079e-03
    1.2999979019e+01   -2.7877199464e-03
    1.3099848747e+01   -2.8637698852e-03
    1.3199970245e+01   -2.9427800328e-03
    1.3299947739e+01   -3.0245499220e-03
    1.3399851799e+01   -3.1087601092e-03
    1.3500013351e+01   -3.1958499458e-03
    1.3599904060e+01   -3.2847900875e-03
    1.3699869156e+01   -3.3761300147e-03
    1.3799922943e+01   -3.4695200156e-03
    1.3899854660e+01   -3.5643600859e-03
    1.3999905586e+01   -3.6612700205e-03
    1.4099831581e+01   -3.7595499307e-03
    1.4199877739e+01   -3.8596799131e-03
    1.4299827576e+01   -3.9614001289e-03
    1.4399900436e+01   -4.0648197755e-03
    1.4499928474e+01   -4.1697099805e-03
    1.4599974632e+01   -4.2759501375e-03
    1.4699851036e+01   -4.3830000795e-03
    1.4799844742e+01   -4.4917198829e-03
    1.4899865150e+01   -4.6018701978e-03
    1.4999941826e+01   -4.7138901427e-03
    1.5099879265e+01   -4.8278397880e-03
    1.5200014114e+01   -4.9442299642e-03
    1.5299992561e+01   -5.0626201555e-03
    1.5399872780e+01   -5.1828399301e-03
    1.5499929428e+01   -5.3051901050e-03
    1.5599972725e+01   -5.4291998968e-03
    1.5699997902e+01   -5.5553801358e-03
    1.5800017357e+01   -5.6837000884e-03
    1.5900013924e+01   -5.8144200593e-03
    1.5999876976e+01   -5.9474902228e-03
    1.6099855423e+01   -6.0831201263e-03
    1.6199890137e+01   -6.2213097699e-03
    1.6299869537e+01   -6.3619599678e-03
    1.6399835587e+01   -6.5054199658e-03
    1.6499855042e+01   -6.6514699720e-03
    1.6599964142e+01   -6.8002301268e-03
    1.6699871063e+01   -6.9509600289e-03
    1.6799943924e+01   -7.1045001969e-03
    1.6899995804e+01   -7.2604301386e-03
    1.7000028610e+01   -7.4185999110e-03
    1.7099853516e+01   -7.5788898394e-03
    1.7200014114e+01   -7.7419998124e-03
    1.7299926758e+01   -7.9068299383e-03
    1.7399890900e+01   -8.0742202699e-03
    1.7499887466e+01   -8.2440199330e-03
    1.7599851608e+01   -8.4164896980e-03
    1.7699928284e+01   -8.5918102413e-03
    1.7799875259e+01   -8.7694702670e-03
    1.7899969101e+01   -8.9504700154e-03
    1.8000001907e+01   -9.1347200796e-03
    1.8099843979e+01   -9.3220900744e-03
    1.8199890137e+01   -9.5133995637e-03
    1.8299907684e+01   -9.7080999985e-03
    1.8400011063e+01   -9.9060200155e-03
    1.8499933243e+01   -1.0106399655e-02
    1.8599889755e+01   -1.0309199803e-02
    1.8699989319e+01   -1.0514399968e-02
    1.8799970627e+01   -1.0721200146e-02
    1.8899879456e+01   -1.0929600336e-02
    1.8999954224e+01   -1.1140299961e-02
    1.9099882126e+01   -1.1352900416e-02
    1.9200035095e+01   -1.1568600312e-02
    1.9299968719e+01   -1.1786799878e-02
    1.9399879456e+01   -1.2007700279e-02
    1.9500013351e+01   -1.2232299894e-02
    1.9600021362e+01   -1.2459900230e-02
    1.9700002670e+01   -1.2690500356e-02
    1.9799850464e+01   -1.2924299575e-02
    1.9900026321e+01   -1.3162299991e-02
    1.9999965668e+01   -1.3403199613e-02
    2.0100011826e+01   -1.3647800311e-02
    2.0199968338e+01   -1.3895500451e-02
    2.0299972534e+01   -1.4146399684e-02
    2.0399957657e+01   -1.4400199987e-02
    2.0499944687e+01   -1.4656599611e-02
    2.0599990845e+01   -1.4915499836e-02
    2.0699962616e+01   -1.5176599845e-02
    2.0799880981e+01   -1.5439899638e-02
    2.0899950027e+01   -1.5706099570e-02
    2.0999872208e+01   -1.5974499285e-02
    2.1099952698e+01   -1.6246199608e-02
    2.1200006485e+01   -1.6520900652e-02
    2.1299985886e+01   -1.6798600554e-02
    2.1399873734e+01   -1.7079500481e-02
    2.1500017166e+01   -1.7364600673e-02
    2.1599948883e+01   -1.7652800307e-02
    2.1699882507e+01   -1.7944600433e-02
    2.1800001144e+01   -1.8240699545e-02
    2.1900007248e+01   -1.8540199846e-02
    2.2000038147e+01   -1.8843799829e-02
    2.2100044250e+01   -1.9151100889e-02
    2.2200023651e+01   -1.9462000579e-02
    2.2299959183e+01   -1.9776599482e-02
    2.2399948120e+01   -2.0094899461e-02
    2.2499948502e+01   -2.0416600630e-02
    2.2599941254e+01   -2.0741499960e-02
    2.2699945450e+01   -2.1069400012e-02
    2.2799953461e+01   -2.1400399506e-02
    2.2899995804e+01   -2.1734800190e-02
    2.2999944687e+01   -2.2072600201e-02
    2.3099952698e+01   -2.2415099666e-02
    2.3200033188e+01   -2.2762399167e-02
    2.3299945831e+01   -2.3113999516e-02
    2.3400026321e+01   -2.3470699787e-02
    2.3499912262e+01   -2.3831199855e-02
    2.3599893570e+01   -2.4196499959e-02
    2.3699974060e+01   -2.4566499516e-02
    2.3799993515e+01   -2.4940500036e-02
    2.3900035858e+01   -2.5318499655e-02
    2.3999940872e+01   -2.5699999183e-02
    2.4100013733e+01   -2.6086399332e-02
    2.4200021744e+01   -2.6477100328e-02
    2.4299985886e+01   -2.6871800423e-02
    2.4399887085e+01   -2.7270600200e-02
    2.4500038147e+01   -2.7674099430e-02
    2.4600051880e+01   -2.8080599383e-02
    2.4699977875e+01   -2.8490100056e-02
    2.4799957275e+01   -2.8902899474e-02
    2.4899955750e+01   -2.9319299385e-02
    2.4999996185e+01   -2.9739700258e-02
    2.5099960327e+01   -3.0163900927e-02
    2.5200010300e+01   -3.0592799187e-02
    2.5299911499e+01   -3.1024999917e-02
    2.5400011063e+01   -3.1461700797e-02
    2.5500036240e+01   -3.1901501119e-02
    2.5599990845e+01   -3.2344300300e-02
    2.5700033188e+01   -3.2791301608e-02
    2.5800006866e+01   -3.3242400736e-02
    2.5899984360e+01   -3.3698201180e-02
    2.5999898911e+01   -3.4158799797e-02
    2.6100059509e+01   -3.4625500441e-02
    2.6199945450e+01   -3.5096101463e-02
    2.6299913406e+01   -3.5572201014e-02
    2.6400053024e+01   -3.6054298282e-02
    2.6500009537e+01   -3.6540400237e-02
    2.6599924088e+01   -3.7031199783e-02
    2.6700000763e+01   -3.7527401000e-02
    2.6799907684e+01   -3.8027498871e-02
    2.6899971008e+01   -3.8532998413e-02
    2.6999950409e+01   -3.9042800665e-02
    2.7099922180e+01   -3.9557300508e-02
    2.7199901581e+01   -4.0076199919e-02
    2.7299985886e+01   -4.0600001812e-02
    2.7400024414e+01   -4.1128300130e-02
    2.7499940872e+01   -4.1660800576e-02
    2.7599908829e+01   -4.2198199779e-02
    2.7699993134e+01   -4.2741101235e-02
    2.7799991608e+01   -4.3288201094e-02
    2.7899969101e+01   -4.3840698898e-02
    2.7999910355e+01   -4.4398501515e-02
    2.8100070953e+01   -4.4963300228e-02
    2.8199888229e+01   -4.5532200485e-02
    2.8300001144e+01   -4.6108499169e-02
    2.8399957657e+01   -4.6688999981e-02
    2.8500013351e+01   -4.7275200486e-02
    2.8599887848e+01   -4.7864701599e-02
    2.8700056076e+01   -4.8459999263e-02
    2.8800052643e+01   -4.9058001488e-02
    2.8899902344e+01   -4.9658801407e-02
    2.9000049591e+01   -5.0265401602e-02
    2.9100034714e+01   -5.0875298679e-02
    2.9199886322e+01   -5.1489099860e-02
    2.9299921036e+01   -5.2108701319e-02
    2.9399984360e+01   -5.2733600140e-02
    2.9499942780e+01   -5.3362801671e-02
    2.9599922180e+01   -5.3997401148e-02
    2.9700008392e+01   -5.4637800902e-02
    2.9800031662e+01   -5.5283099413e-02
    2.9900030136e+01   -5.5933598429e-02
    2.9999967575e+01   -5.6589301676e-02
    3.0099981308e+01   -5.7251200080e-02
    3.0200014114e+01   -5.7918898761e-02
    3.0299978256e+01   -5.8591701090e-02
    3.0400070190e+01   -5.9270501137e-02
    3.0499954224e+01   -5.9952899814e-02
    3.0600019455e+01   -6.0641199350e-02
    3.0699998856e+01   -6.1333600432e-02
    3.0799953461e+01   -6.2030300498e-02
    3.0899932861e+01   -6.2732197344e-02
    3.1000024796e+01   -6.3439600170e-02
    3.1099931717e+01   -6.4150601625e-02
    3.1200069427e+01   -6.4868398011e-02
    3.1299940109e+01   -6.5589502454e-02
    3.1400039673e+01   -6.6317901015e-02
    3.1500070572e+01   -6.7051202059e-02
    3.1600055695e+01   -6.7789897323e-02
    3.1699979782e+01   -6.8533897400e-02
    3.1799968719e+01   -6.9284297526e-02
    3.1900081635e+01   -7.0041902363e-02
    3.2000061035e+01   -7.0804901421e-02
    3.2100006104e+01   -7.1573801339e-02
    3.2200061798e+01   -7.2349898517e-02
    3.2300071716e+01   -7.3131799698e-02
    3.2400058746e+01   -7.3919400573e-02
    3.2499992371e+01   -7.4712097645e-02
    3.2599975586e+01   -7.5510002673e-02
    3.2700008392e+01   -7.6312802732e-02
    3.2800052643e+01   -7.7120102942e-02
    3.2899879456e+01   -7.7931098640e-02
    3.2999992371e+01   -7.8750900924e-02
    3.3099994659e+01   -7.9577602446e-02
    3.3199977875e+01   -8.0412901938e-02
    3.3300010681e+01   -8.1257402897e-02
    3.3399940491e+01   -8.2109600306e-02
    3.3499900818e+01   -8.2969896495e-02
    3.3599880219e+01   -8.3838298917e-02
    3.3700042725e+01   -8.4715999663e-02
    3.3800014496e+01   -8.5599198937e-02
    3.3899890900e+01   -8.6488500237e-02
    3.3999885559e+01   -8.7385803461e-02
    3.4099937439e+01   -8.8290497661e-02
    3.4200042725e+01   -8.9202903211e-02
    3.4299919128e+01   -9.0120196342e-02
    3.4399944305e+01   -9.1045401990e-02
    3.4499904633e+01   -9.1976203024e-02
    3.4600013733e+01   -9.2913798988e-02
    3.4699981689e+01   -9.3855001032e-02
    3.4799942017e+01   -9.4801403582e-02
    3.4900001526e+01   -9.5754198730e-02
    3.4999969482e+01   -9.6712298691e-02
    3.5099998474e+01   -9.7677797079e-02
    3.5199962616e+01   -9.8649501801e-02
    3.5299983978e+01   -9.9628500640e-02
    3.5399917603e+01   -1.0061199963e-01
    3.5499847412e+01   -1.0160200298e-01
    3.5599887848e+01   -1.0259699821e-01
    3.5699939728e+01   -1.0359899700e-01
    3.5799953461e+01   -1.0460899770e-01
    3.5899932861e+01   -1.0562600195e-01
    3.5999992371e+01   -1.0665199906e-01
    3.6099975586e+01   -1.0768599808e-01
    3.6199939728e+01   -1.0872799903e-01
    3.6299869537e+01   -1.0977900028e-01
    3.6399940491e+01   -1.1084000021e-01
    3.6499851227e+01   -1.1190800369e-01
    3.6599891663e+01   -1.1298599839e-01
    3.6700000763e+01   -1.1407200247e-01
    3.6799980164e+01   -1.1516399682e-01
    3.6899845123e+01   -1.1626300216e-01
    3.6999824524e+01   -1.1737100035e-01
    3.7099853516e+01   -1.1848799884e-01
    3.7199901581e+01   -1.1961399764e-01
    3.7299938202e+01   -1.2074600160e-01
    3.7399818420e+01   -1.2188500166e-01
    3.7499870300e+01   -1.2303300202e-01
    3.7599861145e+01   -1.2418799847e-01
    3.7699840546e+01   -1.2534999847e-01
    3.7799888611e+01   -1.2652100623e-01
    3.7899879456e+01   -1.2769900262e-01
    3.7999980927e+01   -1.2888899446e-01
    3.8099960327e+01   -1.3008700311e-01
    3.8199806213e+01   -1.3129399717e-01
    3.8299964905e+01   -1.3251399994e-01
    3.8399871826e+01   -1.3374100626e-01
    3.8499839783e+01   -1.3497599959e-01
    3.8599876404e+01   -1.3621999323e-01
    3.8699844360e+01   -1.3746899366e-01
    3.8799907684e+01   -1.3872599602e-01
    3.8899879456e+01   -1.3998800516e-01
    3.8999782562e+01   -1.4125500619e-01
    3.9099800110e+01   -1.4252999425e-01
    3.9199962616e+01   -1.4381499588e-01
    3.9299812317e+01   -1.4510299265e-01
    3.9399856567e+01   -1.4640299976e-01
    3.9499813080e+01   -1.4770999551e-01
    3.9599784851e+01   -1.4902600646e-01
    3.9699935913e+01   -1.5035399795e-01
    3.9799903870e+01   -1.5168799460e-01
    3.9899955750e+01   -1.5303300321e-01
    3.9999843597e+01   -1.5438599885e-01
    4.0099822998e+01   -1.5575000644e-01
    4.0199943542e+01   -1.5712599456e-01
    4.0299949646e+01   -1.5850999951e-01
    4.0399887085e+01   -1.5990200639e-01
    4.0499950409e+01   -1.6130399704e-01
    4.0599899292e+01   -1.6271300614e-01
    4.0699825287e+01   -1.6412900388e-01
    4.0799785614e+01   -1.6555300355e-01
    4.0899852753e+01   -1.6698700190e-01
    4.0999790192e+01   -1.6842700541e-01
    4.1099807739e+01   -1.6987699270e-01
    4.1199913025e+01   -1.7133699358e-01
    4.1299823761e+01   -1.7280200124e-01
    4.1399814606e+01   -1.7427800596e-01
    4.1499797821e+01   -1.7576299608e-01
    4.1599777222e+01   -1.7725799978e-01
    4.1699829102e+01   -1.7876300216e-01
    4.1799785614e+01   -1.8027700484e-01
    4.1899822235e+01   -1.8180300295e-01
    4.1999851227e+01   -1.8333899975e-01
    4.2099796295e+01   -1.8488499522e-01
    4.2199840546e+01   -1.8644300103e-01
    4.2299900055e+01   -1.8801100552e-01
    4.2399879456e+01   -1.8958899379e-01
    4.2499862671e+01   -1.9117699564e-01
    4.2599845886e+01   -1.9277299941e-01
    4.2699893951e+01   -1.9437800348e-01
    4.2799880981e+01   -1.9598999619e-01
    4.2899799347e+01   -1.9761100411e-01
    4.2999855042e+01   -1.9924500585e-01
    4.3099834442e+01   -2.0089100301e-01
    4.3199901581e+01   -2.0255200565e-01
    4.3299850464e+01   -2.0422500372e-01
    4.3399879456e+01   -2.0591199398e-01
    4.3499858856e+01   -2.0761099458e-01
    4.3599857330e+01   -2.0932300389e-01
    4.3699840546e+01   -2.1104800701e-01
    4.3799884796e+01   -2.1278500557e-01
    4.3899826050e+01   -2.1453100443e-01
    4.3999813080e+01   -2.1628999710e-01
    4.4099761963e+01   -2.1806000173e-01
    4.4199886322e+01   -2.1984499693e-01
    4.4299701691e+01   -2.2163699567e-01
    4.4399765015e+01   -2.2344399989e-01
    4.4499809265e+01   -2.2526200116e-01
    4.4599834442e+01   -2.2708800435e-01
    4.4699874878e+01   -2.2892500460e-01
    4.4799819946e+01   -2.3076899350e-01
    4.4899723053e+01   -2.3262299597e-01
    4.4999832153e+01   -2.3449200392e-01
    4.5099697113e+01   -2.3636800051e-01
    4.5199726105e+01   -2.3825900257e-01
    4.5299709320e+01   -2.4016100168e-01
    4.5399730682e+01   -2.4207399786e-01
    4.5499698639e+01   -2.4399699271e-01
    4.5599845886e+01   -2.4593199790e-01
    4.5699741364e+01   -2.4787299335e-01
    4.5799777985e+01   -2.4982899427e-01
    4.5899734497e+01   -2.5179699063e-01
    4.5999744415e+01   -2.5377899408e-01
    4.6099739075e+01   -2.5577399135e-01
    4.6199718475e+01   -2.5778299570e-01
    4.6299686432e+01   -2.5980600715e-01
    4.6399845123e+01   -2.6184698939e-01
    4.6499759674e+01   -2.6389598846e-01
    4.6599739075e+01   -2.6596000791e-01
    4.6699840546e+01   -2.6804000139e-01
    4.6799747467e+01   -2.7012801170e-01
    4.6899761200e+01   -2.7223199606e-01
    4.6999816895e+01   -2.7434900403e-01
    4.7099716187e+01   -2.7647599578e-01
    4.7199798584e+01   -2.7861899137e-01
    4.7299846649e+01   -2.8077399731e-01
    4.7399768829e+01   -2.8293800354e-01
    4.7499748230e+01   -2.8511500359e-01
    4.7599758148e+01   -2.8730499744e-01
    4.7699684143e+01   -2.8950500488e-01
    4.7799720764e+01   -2.9172098637e-01
    4.7899700165e+01   -2.9394900799e-01
    4.7999774933e+01   -2.9619500041e-01
    4.8099674225e+01   -2.9845398664e-01
    4.8199775696e+01   -3.0073401332e-01
    4.8299728394e+01   -3.0302700400e-01
    4.8399703979e+01   -3.0533701181e-01
    4.8499652863e+01   -3.0766001344e-01
    4.8599742889e+01   -3.1000000238e-01
    4.8699649811e+01   -3.1234699488e-01
    4.8799812317e+01   -3.1471100450e-01
    4.8899719238e+01   -3.1707900763e-01
    4.8999767303e+01   -3.1946200132e-01
    4.9099670410e+01   -3.2185301185e-01
    4.9199680328e+01   -3.2425901294e-01
    4.9299663544e+01   -3.2667800784e-01
    4.9399784088e+01   -3.2911399007e-01
    4.9499763489e+01   -3.3155998588e-01
    4.9599636078e+01   -3.3401799202e-01
    4.9699626923e+01   -3.3649298549e-01
    4.9799770355e+01   -3.3898699284e-01
    4.9899654388e+01   -3.4149000049e-01
    4.9999687195e+01   -3.4401199222e-01
    5.0099800110e+01   -3.4655100107e-01
    5.0199783325e+01   -3.4910300374e-01
    5.0299636841e+01   -3.5166600347e-01
    5.0399639130e+01   -3.5424700379e-01
    5.0499668121e+01   -3.5684099793e-01
    5.0599700928e+01   -3.5944700241e-01
    5.0699737549e+01   -3.6206600070e-01
    5.0799652100e+01   -3.6469399929e-01
    5.0899642944e+01   -3.6733698845e-01
    5.0999744415e+01   -3.6999601126e-01
    5.1099723816e+01   -3.7266498804e-01
    5.1199726105e+01   -3.7534800172e-01
    5.1299755096e+01   -3.7804698944e-01
    5.1399738312e+01   -3.8076001406e-01
    5.1499713898e+01   -3.8348799944e-01
    5.1599689484e+01   -3.8623100519e-01
    5.1699775696e+01   -3.8899299502e-01
    5.1799686432e+01   -3.9176699519e-01
    5.1899726868e+01   -3.9456099272e-01
    5.1999675751e+01   -3.9737001061e-01
    5.2099670410e+01   -4.0019699931e-01
    5.2199581146e+01   -4.0303900838e-01
    5.2299602509e+01   -4.0590101480e-01
    5.2399597168e+01   -4.0877801180e-01
    5.2499652863e+01   -4.1167199612e-01
    5.2599655151e+01   -4.1457900405e-01
    5.2699722290e+01   -4.1750198603e-01
    5.2799743652e+01   -4.2043799162e-01
    5.2899757385e+01   -4.2338898778e-01
    5.2999633789e+01   -4.2635300756e-01
    5.3099700928e+01   -4.2934298515e-01
    5.3199680328e+01   -4.3235000968e-01
    5.3299678802e+01   -4.3537798524e-01
    5.3399677277e+01   -4.3842500448e-01
    5.3499660492e+01   -4.4149100780e-01
    5.3599674225e+01   -4.4457700849e-01
    5.3699611664e+01   -4.4767999649e-01
    5.3799594879e+01   -4.5080199838e-01
    5.3899608612e+01   -4.5394399762e-01
    5.3999633789e+01   -4.5710399747e-01
    5.4099571228e+01   -4.6027898788e-01
    5.4199718475e+01   -4.6347999573e-01
    5.4299598694e+01   -4.6669200063e-01
    5.4399581909e+01   -4.6992498636e-01
    5.4499683380e+01   -4.7317901254e-01
    5.4599693298e+01   -4.7644600272e-01
    5.4699703217e+01   -4.7972700000e-01
    5.4799686432e+01   -4.8302298784e-01
    5.4899551392e+01   -4.8633000255e-01
    5.4999729156e+01   -4.8966500163e-01
    5.5099594116e+01   -4.9300798774e-01
    5.5199577332e+01   -4.9637299776e-01
    5.5299697876e+01   -4.9975898862e-01
    5.5399623871e+01   -5.0315397978e-01
    5.5499610901e+01   -5.0656598806e-01
    5.5599674225e+01   -5.0999498367e-01
    5.5699680328e+01   -5.1343697309e-01
    5.5799659729e+01   -5.1689702272e-01
    5.5899597168e+01   -5.2037501335e-01
    5.5999679565e+01   -5.2387899160e-01
    5.6099685669e+01   -5.2740097046e-01
    5.6199665070e+01   -5.3094398975e-01
    5.6299633026e+01   -5.3450798988e-01
    5.6399654388e+01   -5.3809601068e-01
    5.6499568939e+01   -5.4170101881e-01
    5.6599548340e+01   -5.4532897472e-01
    5.6699527740e+01   -5.4897701740e-01
    5.6799667358e+01   -5.5265098810e-01
    5.6899524689e+01   -5.5633598566e-01
    5.6999530792e+01   -5.6004601717e-01
    5.7099624634e+01   -5.6378000975e-01
    5.7199695587e+01   -5.6753301620e-01
    5.7299674988e+01   -5.7130199671e-01
    5.7399620056e+01   -5.7508897781e-01
    5.7499599457e+01   -5.7889699936e-01
    5.7599651337e+01   -5.8272701502e-01
    5.7699665070e+01   -5.8657401800e-01
    5.7799533844e+01   -5.9043598175e-01
    5.7899673462e+01   -5.9432899952e-01
    5.7999649048e+01   -5.9823900461e-01
    5.8099586487e+01   -6.0217100382e-01
    5.8199554443e+01   -6.0612899065e-01
    5.8299617767e+01   -6.1011397839e-01
    5.8399524689e+01   -6.1411702633e-01
    5.8499504089e+01   -6.1814302206e-01
    5.8599559784e+01   -6.2219297886e-01
    5.8699535370e+01   -6.2625700235e-01
    5.8799613953e+01   -6.3034200668e-01
    5.8899623871e+01   -6.3444197178e-01
    5.8999477386e+01   -6.3855201006e-01
    5.9099517822e+01   -6.4268797636e-01
    5.9199573517e+01   -6.4684402943e-01
    5.9299556732e+01   -6.5101802349e-01
    5.9399486542e+01   -6.5521001816e-01
    5.9499645233e+01   -6.5943199396e-01
    5.9599590302e+01   -6.6366600990e-01
    5.9699569702e+01   -6.6792297363e-01
    5.9799636841e+01   -6.7220497131e-01
    5.9899551392e+01   -6.7650300264e-01
    5.9999645233e+01   -6.8083202839e-01
    6.0099468231e+01   -6.8517202139e-01
    6.0199592590e+01   -6.8954902887e-01
    6.0299575806e+01   -6.9394201040e-01
    6.0399642944e+01   -6.9836002588e-01
    6.0499549866e+01   -7.0279097557e-01
    6.0599517822e+01   -7.0724600554e-01
    6.0699520111e+01   -7.1172100306e-01
    6.0799533844e+01   -7.1621602774e-01
    6.0899536133e+01   -7.2073101997e-01
    6.0999496460e+01   -7.2526502609e-01
    6.1099483490e+01   -7.2982102633e-01
    6.1199604034e+01   -7.3440402746e-01
    6.1299476624e+01   -7.3899900913e-01
    6.1399471283e+01   -7.4362099171e-01
    6.1499443054e+01   -7.4826401472e-01
    6.1599449158e+01   -7.5293201208e-01
    6.1699600220e+01   -7.5762999058e-01
    6.1799488068e+01   -7.6234000921e-01
    6.1899497986e+01   -7.6708000898e-01
    6.1999511719e+01   -7.7184599638e-01
    6.2099464417e+01   -7.7663600445e-01
    6.2199523926e+01   -7.8145599365e-01
    6.2299541473e+01   -7.8630000353e-01
    6.2399467468e+01   -7.9116302729e-01
    6.2499496460e+01   -7.9605501890e-01
    6.2599449158e+01   -8.0096501112e-01
    6.2699546814e+01   -8.0590397120e-01
    6.2799457550e+01   -8.1085401773e-01
    6.2899532318e+01   -8.1583601236e-01
    6.2999561310e+01   -8.2084101439e-01
    6.3099445343e+01   -8.2586699724e-01
    6.3199539185e+01   -8.3093202114e-01
    6.3299545288e+01   -8.3602297306e-01
    6.3399459839e+01   -8.4113699198e-01
    6.3499477386e+01   -8.4628498554e-01
    6.3599533081e+01   -8.5146301985e-01
    6.3699436188e+01   -8.5666102171e-01
    6.3799537659e+01   -8.6189699173e-01
    6.3899562836e+01   -8.6715698242e-01
    6.3999431610e+01   -8.7243402004e-01
    6.4099449158e+01   -8.7774699926e-01
    6.4199501038e+01   -8.8309001923e-01
    6.4299415588e+01   -8.8845402002e-01
    6.4399398804e+01   -8.9384800196e-01
    6.4499427795e+01   -8.9926999807e-01
    6.4599411011e+01   -9.0471297503e-01
    6.4699394226e+01   -9.1017901897e-01
    6.4799568176e+01   -9.1567802429e-01
    6.4899505615e+01   -9.2118799686e-01
    6.4999435425e+01   -9.2672300339e-01
    6.5099441528e+01   -9.3228900433e-01
    6.5199424744e+01   -9.3787997961e-01
    6.5299415588e+01   -9.4349700212e-01
    6.5399536133e+01   -9.4914501905e-01
    6.5499519348e+01   -9.5480698347e-01
    6.5599540710e+01   -9.6049499512e-01
    6.5699539185e+01   -9.6620500088e-01
    6.5799514771e+01   -9.7193998098e-01
    6.5899398804e+01   -9.7769999504e-01
    6.5999389648e+01   -9.8349601030e-01
    6.6099456787e+01   -9.8932701349e-01
    6.6199440002e+01   -9.9518501759e-01
    6.6299430847e+01   -1.0010800362e+00
    6.6399482727e+01   -1.0069999695e+00
    6.6499389648e+01   -1.0129499435e+00
    6.6599426270e+01   -1.0189399719e+00
    6.6699409485e+01   -1.0249500275e+00
    6.6799476624e+01   -1.0310000181e+00
    6.6899406433e+01   -1.0370700359e+00
    6.6999465942e+01   -1.0431699753e+00
    6.7099441528e+01   -1.0492999554e+00
    6.7199424744e+01   -1.0554599762e+00
    6.7299438477e+01   -1.0616500378e+00
    6.7399421692e+01   -1.0678700209e+00
    6.7499458313e+01   -1.0741200447e+00
    6.7599433899e+01   -1.0803899765e+00
    6.7699424744e+01   -1.0866899490e+00
    6.7799461365e+01   -1.0930099487e+00
    6.7899467468e+01   -1.0993700027e+00
    6.7999359131e+01   -1.1057499647e+00
    6.8099525452e+01   -1.1121900082e+00
    6.8199394226e+01   -1.1186300516e+00
    6.8299407959e+01   -1.1251300573e+00
    6.8399345398e+01   -1.1316499710e+00
    6.8499488831e+01   -1.1382100582e+00
    6.8599494934e+01   -1.1447900534e+00
    6.8699501038e+01   -1.1513999701e+00
    6.8799339294e+01   -1.1580300331e+00
    6.8899345398e+01   -1.1646900177e+00
    6.8999336243e+01   -1.1713800430e+00
    6.9099502563e+01   -1.1780999899e+00
    6.9199333191e+01   -1.1848399639e+00
    6.9299377441e+01   -1.1916099787e+00
    6.9399383545e+01   -1.1984100342e+00
    6.9499328613e+01   -1.2052400112e+00
    6.9599357605e+01   -1.2121000290e+00
    6.9699394226e+01   -1.2189899683e+00
    6.9799430847e+01   -1.2259099483e+00
    6.9899436951e+01   -1.2328699827e+00
    6.9999435425e+01   -1.2398500443e+00
    7.0099365234e+01   -1.2468600273e+00
    7.0199470520e+01   -1.2539099455e+00
    7.0299362183e+01   -1.2609800100e+00
    7.0399459839e+01   -1.2680900097e+00
    7.0499443054e+01   -1.2752300501e+00
    7.0599479675e+01   -1.2824000120e+00
    7.0699340820e+01   -1.2895799875e+00
    7.0799301147e+01   -1.2967900038e+00
    7.0899307251e+01   -1.3040399551e+00
    7.0999343872e+01   -1.3113199472e+00
    7.1099319458e+01   -1.3186299801e+00
    7.1199356079e+01   -1.3259600401e+00
    7.1299438477e+01   -1.3333300352e+00
    7.1399398804e+01   -1.3407299519e+00
    7.1499435425e+01   -1.3481500149e+00
    7.1599418640e+01   -1.3555999994e+00
    7.1699371338e+01   -1.3630800247e+00
    7.1799430847e+01   -1.3705999851e+00
    7.1899429321e+01   -1.3781499863e+00
    7.1999305725e+01   -1.3857200146e+00
    7.2099349976e+01   -1.3933299780e+00
    7.2199432373e+01   -1.4009799957e+00
    7.2299369812e+01   -1.4086500406e+00
    7.2399299622e+01   -1.4163500071e+00
    7.2499305725e+01   -1.4240800142e+00
    7.2599281311e+01   -1.4318399429e+00
    7.2699394226e+01   -1.4396400452e+00
    7.2799407959e+01   -1.4474500418e+00
    7.2899291992e+01   -1.4552799463e+00
    7.2999389648e+01   -1.4631700516e+00
    7.3099441528e+01   -1.4710799456e+00
    7.3199356079e+01   -1.4790099859e+00
    7.3299392700e+01   -1.4869899750e+00
    7.3399269104e+01   -1.4949899912e+00
    7.3499435425e+01   -1.5030499697e+00
    7.3599441528e+01   -1.5111199617e+00
    7.3699378967e+01   -1.5192300081e+00
    7.3799293518e+01   -1.5273599625e+00
    7.3899307251e+01   -1.5355399847e+00
    7.3999328613e+01   -1.5437500477e+00
    7.4099342346e+01   -1.5519900322e+00
    7.4199409485e+01   -1.5602699518e+00
    7.4299369812e+01   -1.5685800314e+00
    7.4399391174e+01   -1.5769300461e+00
    7.4499313354e+01   -1.5852999687e+00
    7.4599296570e+01   -1.5937099457e+00
    7.4699302673e+01   -1.6021499634e+00
    7.4799324036e+01   -1.6106100082e+00
    7.4899269104e+01   -1.6191099882e+00
    7.4999366760e+01   -1.6276500225e+00
    7.5099250793e+01   -1.6361999512e+00
    7.5199249268e+01   -1.6447999477e+00
    7.5299247742e+01   -1.6534199715e+00
    7.5399375916e+01   -1.6620899439e+00
    7.5499412537e+01   -1.6707799435e+00
    7.5599327087e+01   -1.6794899702e+00
    7.5699386597e+01   -1.6882400513e+00
    7.5799270630e+01   -1.6970000267e+00
    7.5899330139e+01   -1.7058099508e+00
    7.5999244690e+01   -1.7146400213e+00
    7.6099296570e+01   -1.7235200405e+00
    7.6199241638e+01   -1.7324299812e+00
    7.6299224854e+01   -1.7413699627e+00
    7.6399353027e+01   -1.7503600121e+00
    7.6499282837e+01   -1.7593599558e+00
    7.6599342346e+01   -1.7683999538e+00
    7.6699302673e+01   -1.7774599791e+00
    7.6799224854e+01   -1.7865400314e+00
    7.6899307251e+01   -1.7956700325e+00
    7.6999366760e+01   -1.8048199415e+00
    7.7099311829e+01   -1.8139799833e+00
    7.7199348450e+01   -1.8231799603e+00
    7.7299331665e+01   -1.8323999643e+00
    7.7399291992e+01   -1.8416299820e+00
    7.7499359131e+01   -1.8509000540e+00
    7.7599288940e+01   -1.8601800203e+00
    7.7699218750e+01   -1.8694800138e+00
    7.7799285889e+01   -1.8788199425e+00
    7.7899261475e+01   -1.8881700039e+00
    7.7999366760e+01   -1.8975700140e+00
    7.8099243164e+01   -1.9069700241e+00
    7.8199363708e+01   -1.9164199829e+00
    7.8299346924e+01   -1.9258999825e+00
    7.8399200439e+01   -1.9353899956e+00
    7.8499359131e+01   -1.9449399710e+00
    7.8599205017e+01   -1.9544899464e+00
    7.8699363708e+01   -1.9640899897e+00
    7.8799301147e+01   -1.9737000465e+00
    7.8899299622e+01   -1.9833400249e+00
    7.8999328613e+01   -1.9930100441e+00
    7.9099266052e+01   -2.0027000904e+00
    7.9199234009e+01   -2.0124199390e+00
    7.9299339294e+01   -2.0221800804e+00
    7.9399223328e+01   -2.0319499969e+00
    7.9499191284e+01   -2.0417599678e+00
    7.9599349976e+01   -2.0516200066e+00
    7.9699188232e+01   -2.0614800453e+00
    7.9799224854e+01   -2.0713899136e+00
    7.9899200439e+01   -2.0813300610e+00
    7.9999305725e+01   -2.0913100243e+00
    8.0099266052e+01   -2.1013200283e+00
    8.0199310303e+01   -2.1113700867e+00
    8.0299263000e+01   -2.1214399338e+00
    8.0399162292e+01   -2.1315400600e+00
    8.0499244690e+01   -2.1416800022e+00
    8.0599296570e+01   -2.1518499851e+00
    8.0699195862e+01   -2.1620299816e+00
    8.0799224854e+01   -2.1722500324e+00
    8.0899185181e+01   -2.1824800968e+00
    8.0999259949e+01   -2.1927499771e+00
    8.1099235535e+01   -2.2030398846e+00
    8.1199157715e+01   -2.2133400440e+00
    8.1299224854e+01   -2.2236800194e+00
    8.1399246216e+01   -2.2340400219e+00
    8.1499221802e+01   -2.2444100380e+00
    8.1599166870e+01   -2.2548000813e+00
    8.1699279785e+01   -2.2652199268e+00
    8.1799163818e+01   -2.2756400108e+00
    8.1899223328e+01   -2.2860999107e+00
    8.1999259949e+01   -2.2965800762e+00
    8.2099197388e+01   -2.3070700169e+00
    8.2199256897e+01   -2.3176000118e+00
    8.2299240112e+01   -2.3281300068e+00
    8.2399246216e+01   -2.3386900425e+00
    8.2499198914e+01   -2.3492600918e+00
    8.2599235535e+01   -2.3598599434e+00
    8.2699165344e+01   -2.3704700470e+00
    8.2799255371e+01   -2.3811099529e+00
    8.2899215698e+01   -2.3917698860e+00
    8.2999198914e+01   -2.4024500847e+00
    8.3099220276e+01   -2.4131600857e+00
    8.3199279785e+01   -2.4239099026e+00
    8.3299163818e+01   -2.4346699715e+00
    8.3399192810e+01   -2.4454801083e+00
    8.3499137878e+01   -2.4563100338e+00
    8.3599113464e+01   -2.4671700001e+00
    8.3699249268e+01   -2.4780800343e+00
    8.3799255371e+01   -2.4890100956e+00
    8.3899269104e+01   -2.4999699593e+00
    8.3999206543e+01   -2.5109500885e+00
    8.4099273682e+01   -2.5219800472e+00
    8.4199256897e+01   -2.5330400467e+00
    8.4299110413e+01   -2.5441100597e+00
    8.4399276733e+01   -2.5552499294e+00
    8.4499137878e+01   -2.5663800240e+00
    8.4599113464e+01   -2.5775499344e+00
    8.4699180603e+01   -2.5887598991e+00
    8.4799156189e+01   -2.5999801159e+00
    8.4899208069e+01   -2.6112399101e+00
    8.4999107361e+01   -2.6224999428e+00
    8.5099266052e+01   -2.6338300705e+00
    8.5199211121e+01   -2.6451499462e+00
    8.5299087524e+01   -2.6564900875e+00
    8.5399116516e+01   -2.6678700447e+00
    8.5499237061e+01   -2.6792700291e+00
    8.5599105835e+01   -2.6906700134e+00
    8.5699203491e+01   -2.7021000385e+00
    8.5799194336e+01   -2.7135500908e+00
    8.5899139404e+01   -2.7250199318e+00
    8.5999099731e+01   -2.7365100384e+00
    8.6099128723e+01   -2.7480399609e+00
    8.6199150085e+01   -2.7595798969e+00
    8.6299156189e+01   -2.7711501122e+00
    8.6399208069e+01   -2.7827498913e+00
    8.6499160767e+01   -2.7943599224e+00
    8.6599166870e+01   -2.8059899807e+00
    8.6699180603e+01   -2.8176400661e+00
    8.6799217224e+01   -2.8293199539e+00
    8.6899116516e+01   -2.8409900665e+00
    8.6999114990e+01   -2.8526999950e+00
    8.7099197388e+01   -2.8644399643e+00
    8.7199165344e+01   -2.8761799335e+00
    8.7299209595e+01   -2.8879499435e+00
    8.7399124146e+01   -2.8997299671e+00
    8.7499092102e+01   -2.9115200043e+00
    8.7599082947e+01   -2.9233400822e+00
    8.7699066162e+01   -2.9351799488e+00
    8.7799102783e+01   -2.9470500946e+00
    8.7899101257e+01   -2.9589300156e+00
    8.7999114990e+01   -2.9708399773e+00
    8.8099113464e+01   -2.9827799797e+00
    8.8199203491e+01   -2.9947600365e+00
    8.8299095154e+01   -3.0067400932e+00
    8.8399177551e+01   -3.0187699795e+00
    8.8499130249e+01   -3.0308101177e+00
    8.8599197388e+01   -3.0429000854e+00
    8.8699203491e+01   -3.0550000668e+00
    8.8799049377e+01   -3.0671000481e+00
    8.8899154663e+01   -3.0792601109e+00
    8.8999183655e+01   -3.0914299488e+00
    8.9099212646e+01   -3.1036300659e+00
    8.9199081421e+01   -3.1158299446e+00
    8.9299179077e+01   -3.1280899048e+00
    8.9399101257e+01   -3.1403400898e+00
    8.9499023438e+01   -3.1526200771e+00
    8.9599060059e+01   -3.1649401188e+00
    8.9699043274e+01   -3.1772799492e+00
    8.9799072266e+01   -3.1896400452e+00
    8.9899055481e+01   -3.2020099163e+00
    8.9999153137e+01   -3.2144300938e+00
    9.0099021912e+01   -3.2268400192e+00
    9.0199020386e+01   -3.2392799854e+00
    9.0299026489e+01   -3.2517399788e+00
    9.0399116516e+01   -3.2642400265e+00
    9.0499023438e+01   -3.2767300606e+00
    9.0599105835e+01   -3.2892498970e+00
    9.0699089050e+01   -3.3017799854e+00
    9.0799079895e+01   -3.3143200874e+00
    9.0899147034e+01   -3.3268899918e+00
    9.0999160767e+01   -3.3394699097e+00
    9.1099075317e+01   -3.3520400524e+00
    9.1199058533e+01   -3.3646500111e+00
    9.1299125671e+01   -3.3772699833e+00
    9.1399093628e+01   -3.3898999691e+00
    9.1499092102e+01   -3.4025499821e+00
    9.1599006653e+01   -3.4151999950e+00
    9.1699150085e+01   -3.4279000759e+00
    9.1799133301e+01   -3.4405899048e+00
    9.1899093628e+01   -3.4532899857e+00
    9.1999107361e+01   -3.4660201073e+00
    9.2099121094e+01   -3.4787600040e+00
    9.2199081421e+01   -3.4915199280e+00
    9.2299148560e+01   -3.5043199062e+00
    9.2399002075e+01   -3.5171000957e+00
    9.2499122620e+01   -3.5299398899e+00
    9.2599121094e+01   -3.5427699089e+00
    9.2699142456e+01   -3.5556199551e+00
    9.2799140930e+01   -3.5684900284e+00
    9.2899093628e+01   -3.5813701153e+00
    9.2998985291e+01   -3.5942699909e+00
    9.3099082947e+01   -3.6072199345e+00
    9.3199134827e+01   -3.6201999187e+00
    9.3299087524e+01   -3.6331899166e+00
    9.3399017334e+01   -3.6462099552e+00
    9.3499114990e+01   -3.6592800617e+00
    9.3599136353e+01   -3.6723699570e+00
    9.3699119568e+01   -3.6854801178e+00
    9.3799041748e+01   -3.6986200809e+00
    9.3899063110e+01   -3.7118000984e+00
    9.3999084473e+01   -3.7249999046e+00
    9.4099052429e+01   -3.7382400036e+00
    9.4198944092e+01   -3.7514901161e+00
    9.4299011230e+01   -3.7648000717e+00
    9.4398994446e+01   -3.7781200409e+00
    9.4498977661e+01   -3.7914700508e+00
    9.4598960876e+01   -3.8048501015e+00
    9.4699050903e+01   -3.8182599545e+00
    9.4799110413e+01   -3.8316800594e+00
    9.4899032593e+01   -3.8451099396e+00
    9.4999015808e+01   -3.8585700989e+00
    9.5099006653e+01   -3.8720600605e+00
    9.5199028015e+01   -3.8855600357e+00
    9.5298927307e+01   -3.8990700245e+00
    9.5399055481e+01   -3.9126300812e+00
    9.5499084473e+01   -3.9261898994e+00
    9.5599082947e+01   -3.9397499561e+00
    9.5699073792e+01   -3.9533200264e+00
    9.5798957825e+01   -3.9669001102e+00
    9.5898994446e+01   -3.9805099964e+00
    9.5999000549e+01   -3.9941399097e+00
    9.6099082947e+01   -4.0077900887e+00
    9.6199012756e+01   -4.0214500427e+00
    9.6298965454e+01   -4.0351300240e+00
    9.6398948669e+01   -4.0488300323e+00
    9.6498992920e+01   -4.0625700951e+00
    9.6598968506e+01   -4.0763101578e+00
    9.6699020386e+01   -4.0900797844e+00
    9.6799026489e+01   -4.1038599014e+00
    9.6898994446e+01   -4.1176600456e+00
    9.6999061584e+01   -4.1314902306e+00
    9.7099052429e+01   -4.1453299522e+00
    9.7198928833e+01   -4.1591901779e+00
    9.7298965454e+01   -4.1730799675e+00
    9.7398963928e+01   -4.1869897842e+00
    9.7498947144e+01   -4.2009201050e+00
    9.7598976135e+01   -4.2148799896e+00
    9.7698905945e+01   -4.2288498878e+00
    9.7798965454e+01   -4.2428598404e+00
    9.7899070740e+01   -4.2568998337e+00
    9.7998908997e+01   -4.2709298134e+00
    9.8098930359e+01   -4.2850198746e+00
    9.8199012756e+01   -4.2991399765e+00
    9.8298995972e+01   -4.3132901192e+00
    9.8398925781e+01   -4.3274598122e+00
    9.8498985291e+01   -4.3416800499e+00
    9.8598922729e+01   -4.3558998108e+00
    9.8699035645e+01   -4.3701801300e+00
    9.8798973083e+01   -4.3844599724e+00
    9.8898933411e+01   -4.3987598419e+00
    9.8998962402e+01   -4.4130997658e+00
    9.9098937988e+01   -4.4274601936e+00
    9.9198997498e+01   -4.4418601990e+00
    9.9299034119e+01   -4.4562802315e+00
    9.9399032593e+01   -4.4707198143e+00
    9.9499015808e+01   -4.4851899147e+00
    9.9599029541e+01   -4.4996900558e+00
    9.9698997498e+01   -4.5142102242e+00
    9.9798942566e+01   -4.5287399292e+00
    9.9899032593e+01   -4.5433301926e+00
    9.9999008179e+01   -4.5579199791e+00
    1.0009903717e+02   -4.5725398064e+00
    1.0019895172e+02   -4.5871701241e+00
    1.0029894257e+02   -4.6018199921e+00
    1.0039900208e+02   -4.6165099144e+00
    1.0049886322e+02   -4.6311798096e+00
    1.0059900665e+02   -4.6458997726e+00
    1.0069886017e+02   -4.6605901718e+00
    1.0079897308e+02   -4.6753401756e+00
    1.0089894104e+02   -4.6900701523e+00
    1.0099891663e+02   -4.7048201561e+00
    1.0109889221e+02   -4.7195901871e+00
    1.0119889832e+02   -4.7343702316e+00
    1.0129898071e+02   -4.7491698265e+00
    1.0139894104e+02   -4.7639799118e+00
    1.0149887848e+02   -4.7787899971e+00
    1.0159890747e+02   -4.7936301231e+00
    1.0169898224e+02   -4.8084998131e+00
    1.0179892731e+02   -4.8233599663e+00
    1.0189894104e+02   -4.8382501602e+00
    1.0199884033e+02   -4.8531498909e+00
    1.0209886169e+02   -4.8680901527e+00
    1.0219891357e+02   -4.8830599785e+00
    1.0229898071e+02   -4.8980598450e+00
    1.0239884186e+02   -4.9130601883e+00
    1.0249897003e+02   -4.9281201363e+00
    1.0259893799e+02   -4.9431800842e+00
    1.0269899750e+02   -4.9582800865e+00
    1.0279885101e+02   -4.9733800888e+00
    1.0289894104e+02   -4.9885501862e+00
    1.0299894714e+02   -5.0037498474e+00
    1.0309893036e+02   -5.0189800262e+00
    1.0319882965e+02   -5.0342497826e+00
    1.0329882812e+02   -5.0495901108e+00
    1.0339881897e+02   -5.0649700165e+00
    1.0349891663e+02   -5.0804200172e+00
    1.0359898376e+02   -5.0959100723e+00
    1.0369891357e+02   -5.1114301682e+00
    1.0379884338e+02   -5.1269998550e+00
    1.0389885712e+02   -5.1426200867e+00
    1.0399894714e+02   -5.1582999229e+00
    1.0409884644e+02   -5.1739997864e+00
    1.0419889069e+02   -5.1897602081e+00
    1.0429879761e+02   -5.2055401802e+00
    1.0439897156e+02   -5.2213997841e+00
    1.0449893951e+02   -5.2372598648e+00
    1.0459893799e+02   -5.2531499863e+00
    1.0469886017e+02   -5.2690501213e+00
    1.0479885101e+02   -5.2849898338e+00
    1.0489884186e+02   -5.3009400368e+00
    1.0499878693e+02   -5.3169097900e+00
    1.0509879303e+02   -5.3329100609e+00
    1.0519892883e+02   -5.3489499092e+00
    1.0529894257e+02   -5.3649802208e+00
    1.0539884186e+02   -5.3810100555e+00
    1.0549881744e+02   -5.3970699310e+00
    1.0559880829e+02   -5.4131298065e+00
    1.0569893646e+02   -5.4292302132e+00
    1.0579895020e+02   -5.4453301430e+00
    1.0589884186e+02   -5.4614300728e+00
    1.0599884796e+02   -5.4775700569e+00
    1.0609880066e+02   -5.4937300682e+00
    1.0619879913e+02   -5.5099201202e+00
    1.0629882812e+02   -5.5261402130e+00
    1.0639878082e+02   -5.5423798561e+00
    1.0649884796e+02   -5.5586700439e+00
    1.0659889984e+02   -5.5749797821e+00
    1.0669886780e+02   -5.5913200378e+00
    1.0679889679e+02   -5.6076898575e+00
    1.0689891815e+02   -5.6241002083e+00
    1.0699884796e+02   -5.6405401230e+00
    1.0709886932e+02   -5.6570301056e+00
    1.0719875336e+02   -5.6735401154e+00
    1.0729876709e+02   -5.6901102066e+00
    1.0739884186e+02   -5.7067399025e+00
    1.0749878693e+02   -5.7233901024e+00
    1.0759889221e+02   -5.7401099205e+00
    1.0769882965e+02   -5.7568497658e+00
    1.0779891205e+02   -5.7736701965e+00
    1.0789884949e+02   -5.7905001640e+00
    1.0799877930e+02   -5.8073902130e+00
    1.0809879303e+02   -5.8243398666e+00
    1.0819880676e+02   -5.8413500786e+00
    1.0829889679e+02   -5.8584299088e+00
    1.0839887238e+02   -5.8755297661e+00
    1.0849878693e+02   -5.8926701546e+00
    1.0859886932e+02   -5.9098801613e+00
    1.0869883728e+02   -5.9271202087e+00
    1.0879889679e+02   -5.9443998337e+00
    1.0889874268e+02   -5.9616899490e+00
    1.0899877167e+02   -5.9790401459e+00
    1.0909879303e+02   -5.9964199066e+00
    1.0919882965e+02   -6.0138401985e+00
    1.0929878998e+02   -6.0312800407e+00
    1.0939875793e+02   -6.0487599373e+00
    1.0949874115e+02   -6.0662698746e+00
    1.0959873199e+02   -6.0838098526e+00
    1.0969889069e+02   -6.1014099121e+00
    1.0979873657e+02   -6.1189899445e+00
    1.0989888763e+02   -6.1366400719e+00
    1.0999871826e+02   -6.1542701721e+00
    1.1009873199e+02   -6.1719598770e+00
    1.1019883728e+02   -6.1896901131e+00
    1.1029878998e+02   -6.2074198723e+00
    1.1039871979e+02   -6.2251701355e+00
    1.1049874878e+02   -6.2429499626e+00
    1.1059884644e+02   -6.2607698441e+00
    1.1069885254e+02   -6.2786002159e+00
    1.1079882050e+02   -6.2964401245e+00
    1.1089878845e+02   -6.3143100739e+00
    1.1099883270e+02   -6.3322200775e+00
    1.1109870148e+02   -6.3501300812e+00
    1.1119875336e+02   -6.3681101799e+00
    1.1129885101e+02   -6.3861298561e+00
    1.1139872742e+02   -6.4041600227e+00
    1.1149884033e+02   -6.4222598076e+00
    1.1159883881e+02   -6.4403901100e+00
    1.1169879150e+02   -6.4585499763e+00
    1.1179872131e+02   -6.4767498970e+00
    1.1189881897e+02   -6.4950299263e+00
    1.1199870300e+02   -6.5133299828e+00
    1.1209882355e+02   -6.5317201614e+00
    1.1219876099e+02   -6.5501399040e+00
    1.1229871368e+02   -6.5686202049e+00
    1.1239869690e+02   -6.5871601105e+00
    1.1249884033e+02   -6.6057801247e+00
    1.1259883118e+02   -6.6244301796e+00
    1.1269883728e+02   -6.6431398392e+00
    1.1279882812e+02   -6.6619000435e+00
    1.1289872742e+02   -6.6806998253e+00
    1.1299884033e+02   -6.6996002197e+00
    1.1309867859e+02   -6.7185201645e+00
    1.1319872284e+02   -6.7375597954e+00
    1.1329876709e+02   -6.7566800117e+00
    1.1339878082e+02   -6.7758598328e+00
    1.1349877167e+02   -6.7951102257e+00
    1.1359867859e+02   -6.8144202232e+00
    1.1369866943e+02   -6.8338098526e+00
    1.1379873657e+02   -6.8532800674e+00
    1.1389875031e+02   -6.8728098869e+00
    1.1399875641e+02   -6.8923897743e+00
    1.1409871674e+02   -6.9120202065e+00
    1.1419875336e+02   -6.9317197800e+00
    1.1429872894e+02   -6.9514598846e+00
    1.1439869690e+02   -6.9712500572e+00
    1.1449873352e+02   -6.9910798073e+00
    1.1459873962e+02   -7.0109500885e+00
    1.1469869232e+02   -7.0308299065e+00
    1.1479866791e+02   -7.0507497787e+00
    1.1489868927e+02   -7.0707101822e+00
    1.1499865723e+02   -7.0906801224e+00
    1.1509867096e+02   -7.1107001305e+00
    1.1519866180e+02   -7.1307401657e+00
    1.1529873657e+02   -7.1508297920e+00
    1.1539878082e+02   -7.1709399223e+00
    1.1549871063e+02   -7.1910600662e+00
    1.1559874725e+02   -7.2112298012e+00
    1.1569879150e+02   -7.2314400673e+00
    1.1579872131e+02   -7.2516598701e+00
    1.1589869690e+02   -7.2719402313e+00
    1.1599877930e+02   -7.2923002243e+00
    1.1609863281e+02   -7.3126702309e+00
    1.1619869232e+02   -7.3331398964e+00
    1.1629862213e+02   -7.3536400795e+00
    1.1639871979e+02   -7.3742499352e+00
    1.1649877930e+02   -7.3949098587e+00
    1.1659870911e+02   -7.4155998230e+00
    1.1669866943e+02   -7.4363698959e+00
    1.1679873657e+02   -7.4572200775e+00
    1.1689864349e+02   -7.4780998230e+00
    1.1699871063e+02   -7.4991002083e+00
    1.1709877014e+02   -7.5201601982e+00
    1.1719869995e+02   -7.5412697792e+00
    1.1729871368e+02   -7.5624699593e+00
    1.1739866638e+02   -7.5837302208e+00
    1.1749864197e+02   -7.6050601006e+00
    1.1759860992e+02   -7.6264801025e+00
    1.1769863129e+02   -7.6479701996e+00
    1.1779871368e+02   -7.6695599556e+00
    1.1789859772e+02   -7.6911802292e+00
    1.1799871063e+02   -7.7129302025e+00
    1.1809860992e+02   -7.7347102165e+00
    1.1819866180e+02   -7.7566099167e+00
    1.1829872894e+02   -7.7785902023e+00
    1.1839862823e+02   -7.8006100655e+00
    1.1849862671e+02   -7.8227200508e+00
    1.1859870911e+02   -7.8449201584e+00
    1.1869863129e+02   -7.8671398163e+00
    1.1879860687e+02   -7.8894300461e+00
    1.1889866638e+02   -7.9117898941e+00
    1.1899862671e+02   -7.9341897964e+00
    1.1909864044e+02   -7.9566497803e+00
    1.1919869995e+02   -7.9791798592e+00
    1.1929866028e+02   -8.0017404556e+00
    1.1939868927e+02   -8.0243597031e+00
    1.1949870300e+02   -8.0470399857e+00
    1.1959858704e+02   -8.0697402954e+00
    1.1969862366e+02   -8.0925102234e+00
    1.1979859924e+02   -8.1153297424e+00
    1.1989871216e+02   -8.1382198334e+00
    1.1999859619e+02   -8.1611099243e+00
    1.2009867096e+02   -8.1840896606e+00
    1.2019857788e+02   -8.2070798874e+00
    1.2029859161e+02   -8.2301397324e+00
    1.2039856720e+02   -8.2532396317e+00
    1.2049868774e+02   -8.2764101028e+00
    1.2059864044e+02   -8.2995996475e+00
    1.2069857025e+02   -8.3228197098e+00
    1.2079863739e+02   -8.3461303711e+00
    1.2089853668e+02   -8.3694601059e+00
    1.2099864960e+02   -8.3928899765e+00
    1.2109871674e+02   -8.4163799286e+00
    1.2119853973e+02   -8.4398803711e+00
    1.2129853821e+02   -8.4635000229e+00
    1.2139871216e+02   -8.4872303009e+00
    1.2149864960e+02   -8.5109901428e+00
    1.2159867096e+02   -8.5348396301e+00
    1.2169862366e+02   -8.5587701797e+00
    1.2179853058e+02   -8.5827598572e+00
    1.2189865875e+02   -8.6069002151e+00
    1.2199857330e+02   -8.6310701370e+00
    1.2209857178e+02   -8.6553602219e+00
    1.2219853973e+02   -8.6797399521e+00
    1.2229853821e+02   -8.7042198181e+00
    1.2239865875e+02   -8.7288198471e+00
    1.2249870300e+02   -8.7534904480e+00
    1.2259864044e+02   -8.7782201767e+00
    1.2269856262e+02   -8.8030300140e+00
    1.2279862213e+02   -8.8279495239e+00
    1.2289853668e+02   -8.8529195786e+00
    1.2299854279e+02   -8.8780002594e+00
    1.2309867096e+02   -8.9032096863e+00
    1.2319853210e+02   -8.9284400940e+00
    1.2329859161e+02   -8.9538402557e+00
    1.2339852905e+02   -8.9792995453e+00
    1.2349849701e+02   -9.0048704147e+00
    1.2359857941e+02   -9.0305595398e+00
    1.2369856262e+02   -9.0563297272e+00
    1.2379852295e+02   -9.0821800232e+00
    1.2389865875e+02   -9.1081695557e+00
    1.2399865723e+02   -9.1342000961e+00
    1.2409855652e+02   -9.1603002548e+00
    1.2419857025e+02   -9.1865100861e+00
    1.2429859924e+02   -9.2128000259e+00
    1.2439855957e+02   -9.2391500473e+00
    1.2449859619e+02   -9.2655801773e+00
    1.2459850311e+02   -9.2920398712e+00
    1.2469860840e+02   -9.3186197281e+00
    1.2479860687e+02   -9.3452196121e+00
    1.2489861298e+02   -9.3718900681e+00
    1.2499858093e+02   -9.3985996246e+00
    1.2509857941e+02   -9.4253797531e+00
    1.2519859314e+02   -9.4522304535e+00
    1.2529863739e+02   -9.4791498184e+00
    1.2539856720e+02   -9.5061101913e+00
    1.2549861908e+02   -9.5331602097e+00
    1.2559854889e+02   -9.5602397919e+00
    1.2569853210e+02   -9.5874004364e+00
    1.2579855347e+02   -9.6146402359e+00
    1.2589846802e+02   -9.6419401169e+00
    1.2599859619e+02   -9.6693801880e+00
    1.2609864807e+02   -9.6968803406e+00
    1.2619856262e+02   -9.7244396210e+00
    1.2629862976e+02   -9.7521400452e+00
    1.2639846039e+02   -9.7798595428e+00
    1.2649857330e+02   -9.8077497482e+00
    1.2659861755e+02   -9.8357200623e+00
    1.2669859314e+02   -9.8637599945e+00
    1.2679859924e+02   -9.8919000626e+00
    1.2689856720e+02   -9.9201297760e+00
    1.2699858093e+02   -9.9484796524e+00
    1.2709844208e+02   -9.9768800735e+00
    1.2719860840e+02   -1.0005499840e+01
    1.2729859924e+02   -1.0034099579e+01
    1.2739852905e+02   -1.0062899590e+01
    1.2749851227e+02   -1.0091699600e+01
    1.2759844208e+02   -1.0120699883e+01
    1.2769860077e+02   -1.0149800301e+01
    1.2779860687e+02   -1.0178999901e+01
    1.2789855957e+02   -1.0208299637e+01
    1.2799848175e+02   -1.0237700462e+01
    1.2809855652e+02   -1.0267200470e+01
    1.2819850159e+02   -1.0296899796e+01
    1.2829858398e+02   -1.0326600075e+01
    1.2839857483e+02   -1.0356499672e+01
    1.2849844360e+02   -1.0386400223e+01
    1.2859851074e+02   -1.0416500092e+01
    1.2869850159e+02   -1.0446599960e+01
    1.2879864502e+02   -1.0476900101e+01
    1.2889863586e+02   -1.0507200241e+01
    1.2899859619e+02   -1.0537599564e+01
    1.2909866333e+02   -1.0568099976e+01
    1.2919851685e+02   -1.0598699570e+01
    1.2929858398e+02   -1.0629300117e+01
    1.2939863586e+02   -1.0660099983e+01
    1.2949867249e+02   -1.0690899849e+01
    1.2959861755e+02   -1.0721799850e+01
    1.2969859314e+02   -1.0752799988e+01
    1.2979864502e+02   -1.0783900261e+01
    1.2989866638e+02   -1.0814999580e+01
    1.2999853516e+02   -1.0846199989e+01
    1.3009860229e+02   -1.0877499580e+01
    1.3019863892e+02   -1.0908900261e+01
    1.3029870605e+02   -1.0940400124e+01
    1.3039859009e+02   -1.0971799850e+01
    1.3049870300e+02   -1.1003499985e+01
    1.3059866333e+02   -1.1035099983e+01
    1.3069860840e+02   -1.1066800117e+01
    1.3079866028e+02   -1.1098600388e+01
    1.3089874268e+02   -1.1130499840e+01
    1.3099862671e+02   -1.1162400246e+01
    1.3109863281e+02   -1.1194399834e+01
    1.3119876099e+02   -1.1226599693e+01
    1.3129864502e+02   -1.1258799553e+01
    1.3139869690e+02   -1.1291099548e+01
    1.3149870300e+02   -1.1323499680e+01
    1.3159872437e+02   -1.1356100082e+01
    1.3169866943e+02   -1.1388699532e+01
    1.3179875183e+02   -1.1421400070e+01
    1.3189877319e+02   -1.1454299927e+01
    1.3199868774e+02   -1.1487199783e+01
    1.3209878540e+02   -1.1520400047e+01
    1.3219877625e+02   -1.1553600311e+01
    1.3229876709e+02   -1.1586899757e+01
    1.3239872742e+02   -1.1620400429e+01
    1.3249884033e+02   -1.1654000282e+01
    1.3259877014e+02   -1.1687600136e+01
    1.3269877625e+02   -1.1721400261e+01
    1.3279884338e+02   -1.1755299568e+01
    1.3289872742e+02   -1.1789299965e+01
    1.3299873352e+02   -1.1823399544e+01
    1.3309884644e+02   -1.1857700348e+01
    1.3319874573e+02   -1.1892000198e+01
    1.3329873657e+02   -1.1926500320e+01
    1.3339880371e+02   -1.1961099625e+01
    1.3349876404e+02   -1.1995800018e+01
    1.3359887695e+02   -1.2030699730e+01
    1.3369891357e+02   -1.2065799713e+01
    1.3379881287e+02   -1.2100799561e+01
    1.3389886475e+02   -1.2136099815e+01
    1.3399890137e+02   -1.2171500206e+01
    1.3409886169e+02   -1.2206899643e+01
    1.3419895935e+02   -1.2242500305e+01
    1.3429881287e+02   -1.2278200150e+01
    1.3439891052e+02   -1.2314000130e+01
    1.3449885559e+02   -1.2349900246e+01
    1.3459889221e+02   -1.2385899544e+01
    1.3469888306e+02   -1.2421899796e+01
    1.3479899597e+02   -1.2458200455e+01
    1.3489898682e+02   -1.2494400024e+01
    1.3499893188e+02   -1.2530799866e+01
    1.3509890747e+02   -1.2567199707e+01
    1.3519886780e+02   -1.2603799820e+01
    1.3529896545e+02   -1.2640500069e+01
    1.3539898682e+02   -1.2677300453e+01
    1.3549896240e+02   -1.2714099884e+01
    1.3559904480e+02   -1.2751099586e+01
    1.3569891357e+02   -1.2788200378e+01
    1.3579893494e+02   -1.2825400352e+01
    1.3589897156e+02   -1.2862700462e+01
    1.3599902344e+02   -1.2900199890e+01
    1.3609907532e+02   -1.2937800407e+01
    1.3619897461e+02   -1.2975500107e+01
    1.3629910278e+02   -1.3013400078e+01
    1.3639906311e+02   -1.3051300049e+01
    1.3649896240e+02   -1.3089400291e+01
    1.3659898376e+02   -1.3127599716e+01
    1.3669898987e+02   -1.3166000366e+01
    1.3679908752e+02   -1.3204500198e+01
    1.3689898682e+02   -1.3243000031e+01
    1.3699911499e+02   -1.3281800270e+01
    1.3709898376e+02   -1.3320599556e+01
    1.3719914246e+02   -1.3359600067e+01
    1.3729902649e+02   -1.3398599625e+01
    1.3739903259e+02   -1.3437800407e+01
    1.3749899292e+02   -1.3477100372e+01
    1.3759901428e+02   -1.3516500473e+01
    1.3769915771e+02   -1.3555999756e+01
    1.3779916382e+02   -1.3595700264e+01
    1.3789906311e+02   -1.3635299683e+01
    1.3799906921e+02   -1.3675200462e+01
    1.3809910583e+02   -1.3715200424e+01
    1.3819915771e+02   -1.3755200386e+01
    1.3829910278e+02   -1.3795399666e+01
    1.3839923096e+02   -1.3835700035e+01
    1.3849906921e+02   -1.3876099586e+01
    1.3859913635e+02   -1.3916600227e+01
    1.3869914246e+02   -1.3957200050e+01
    1.3879916382e+02   -1.3997900009e+01
    1.3889923096e+02   -1.4038700104e+01
    1.3899919128e+02   -1.4079500198e+01
    1.3909924316e+02   -1.4120499611e+01
    1.3919914246e+02   -1.4161600113e+01
    1.3929917908e+02   -1.4202699661e+01
    1.3939910889e+02   -1.4244000435e+01
    1.3949929810e+02   -1.4285400391e+01
    1.3959916687e+02   -1.4326800346e+01
    1.3969912720e+02   -1.4368399620e+01
    1.3979928589e+02   -1.4410099983e+01
    1.3989921570e+02   -1.4451899529e+01
    1.3999928284e+02   -1.4493800163e+01
    1.4009916687e+02   -1.4535699844e+01
    1.4019932556e+02   -1.4577899933e+01
    1.4029931641e+02   -1.4620100021e+01
    1.4039932251e+02   -1.4662500381e+01
    1.4049923706e+02   -1.4704899788e+01
    1.4059930420e+02   -1.4747500420e+01
    1.4069923401e+02   -1.4790100098e+01
    1.4079922485e+02   -1.4832799911e+01
    1.4089930725e+02   -1.4875699997e+01
    1.4099928284e+02   -1.4918700218e+01
    1.4109922791e+02   -1.4961799622e+01
    1.4119934082e+02   -1.5005000114e+01
    1.4129927063e+02   -1.5048299789e+01
    1.4139941406e+02   -1.5091799736e+01
    1.4149929810e+02   -1.5135299683e+01
    1.4159927368e+02   -1.5178999901e+01
    1.4169938660e+02   -1.5222800255e+01
    1.4179934692e+02   -1.5266699791e+01
    1.4189939880e+02   -1.5310799599e+01
    1.4199943542e+02   -1.5354999542e+01
    1.4209936523e+02   -1.5399299622e+01
    1.4219935608e+02   -1.5443699837e+01
    1.4229936218e+02   -1.5488200188e+01
    1.4239947510e+02   -1.5532899857e+01
    1.4249937439e+02   -1.5577699661e+01
    1.4259938049e+02   -1.5622599602e+01
    1.4269932556e+02   -1.5667599678e+01
    1.4279939270e+02   -1.5712699890e+01
    1.4289944458e+02   -1.5757900238e+01
    1.4299943542e+02   -1.5803199768e+01
    1.4309947205e+02   -1.5848699570e+01
    1.4319950867e+02   -1.5894200325e+01
    1.4329951477e+02   -1.5939800262e+01
    1.4339939880e+02   -1.5985600471e+01
    1.4349954224e+02   -1.6031499863e+01
    1.4359951782e+02   -1.6077499390e+01
    1.4369943237e+02   -1.6123600006e+01
    1.4379946899e+02   -1.6169799805e+01
    1.4389953613e+02   -1.6216199875e+01
    1.4399954224e+02   -1.6262699127e+01
    1.4409942627e+02   -1.6309200287e+01
    1.4419941711e+02   -1.6355899811e+01
    1.4429953003e+02   -1.6402799606e+01
    1.4439958191e+02   -1.6449699402e+01
    1.4449946594e+02   -1.6496599197e+01
    1.4459945679e+02   -1.6543699265e+01
    1.4469955444e+02   -1.6590900421e+01
    1.4479951477e+02   -1.6638200760e+01
    1.4489959717e+02   -1.6685600281e+01
    1.4499948120e+02   -1.6733100891e+01
    1.4509948730e+02   -1.6780700684e+01
    1.4519961548e+02   -1.6828399658e+01
    1.4529960632e+02   -1.6876199722e+01
    1.4539947510e+02   -1.6923999786e+01
    1.4549958801e+02   -1.6972099304e+01
    1.4559967041e+02   -1.7020200729e+01
    1.4569967651e+02   -1.7068399429e+01
    1.4579951477e+02   -1.7116699219e+01
    1.4589950562e+02   -1.7165100098e+01
    1.4599951172e+02   -1.7213699341e+01
    1.4609962463e+02   -1.7262399673e+01
    1.4619964600e+02   -1.7311300278e+01
    1.4629966736e+02   -1.7360300064e+01
    1.4639970398e+02   -1.7409400940e+01
    1.4649957275e+02   -1.7458499908e+01
    1.4659970093e+02   -1.7507900238e+01
    1.4669960022e+02   -1.7557300568e+01
    1.4679956055e+02   -1.7606899261e+01
    1.4689976501e+02   -1.7656600952e+01
    1.4699971008e+02   -1.7706399918e+01
    1.4709971619e+02   -1.7756299973e+01
    1.4719976807e+02   -1.7806299210e+01
    1.4729966736e+02   -1.7856399536e+01
    1.4739967346e+02   -1.7906600952e+01
    1.4749963379e+02   -1.7956899643e+01
    1.4759962463e+02   -1.8007299423e+01
    1.4769976807e+02   -1.8057899475e+01
    1.4779972839e+02   -1.8108499527e+01
    1.4789967346e+02   -1.8159200668e+01
    1.4799966431e+02   -1.8210100174e+01
    1.4809974670e+02   -1.8260999680e+01
    1.4819973755e+02   -1.8312099457e+01
    1.4829975891e+02   -1.8363199234e+01
    1.4839979553e+02   -1.8414499283e+01
    1.4849983215e+02   -1.8465799332e+01
    1.4859973145e+02   -1.8517200470e+01
    1.4869981384e+02   -1.8568799973e+01
    1.4879986572e+02   -1.8620399475e+01
    1.4889976501e+02   -1.8672100067e+01
    1.4899986267e+02   -1.8723899841e+01
    1.4909982300e+02   -1.8775800705e+01
    1.4919972229e+02   -1.8827699661e+01
    1.4929977417e+02   -1.8879800797e+01
    1.4939985657e+02   -1.8931999207e+01
    1.4949975586e+02   -1.8984199524e+01
    1.4959986877e+02   -1.9036600113e+01
    1.4969989014e+02   -1.9089000702e+01
    1.4979974365e+02   -1.9141500473e+01
    1.4989988708e+02   -1.9194200516e+01
    1.4999984741e+02   -1.9246900558e+01
    1.5009983826e+02   -1.9299699783e+01
    1.5019993591e+02   -1.9352699280e+01
    1.5029992676e+02   -1.9405700684e+01
    1.5039979553e+02   -1.9458700180e+01
    1.5049995422e+02   -1.9511999130e+01
    1.5059991455e+02   -1.9565299988e+01
    1.5069987488e+02   -1.9618700027e+01
    1.5079997253e+02   -1.9672199249e+01
    1.5089994812e+02   -1.9725700378e+01
    1.5099981689e+02   -1.9779300690e+01
    1.5109988403e+02   -1.9833099365e+01
    1.5119990540e+02   -1.9886999130e+01
    1.5129985046e+02   -1.9940900803e+01
    1.5139987183e+02   -1.9995000839e+01
    1.5149989319e+02   -2.0049200058e+01
    1.5159997559e+02   -2.0103399277e+01
    1.5169999695e+02   -2.0157800674e+01
    1.5180000305e+02   -2.0212200165e+01
    1.5190000916e+02   -2.0266799927e+01
    1.5199993896e+02   -2.0321399689e+01
    1.5209997559e+02   -2.0376100540e+01
    1.5219996643e+02   -2.0430999756e+01
    1.5230000305e+02   -2.0485900879e+01
    1.5240008545e+02   -2.0541000366e+01
    1.5250009155e+02   -2.0596099854e+01
    1.5259992981e+02   -2.0651300430e+01
    1.5269995117e+02   -2.0706600189e+01
    1.5280007935e+02   -2.0761999130e+01
    1.5290000916e+02   -2.0817499161e+01
    1.5299998474e+02   -2.0872999191e+01
    1.5310009766e+02   -2.0928699493e+01
    1.5320013428e+02   -2.0984500885e+01
    1.5330001831e+02   -2.1040300369e+01
    1.5339996338e+02   -2.1096200943e+01
    1.5350003052e+02   -2.1152299881e+01
    1.5360008240e+02   -2.1208499908e+01
    1.5370010376e+02   -2.1264799118e+01
    1.5380017090e+02   -2.1321199417e+01
    1.5390011597e+02   -2.1377599716e+01
    1.5400000000e+02   -2.1434200287e+01
    1.5410006714e+02   -2.1490900040e+01
    1.5420001221e+02   -2.1547700882e+01
    1.5430003357e+02   -2.1604600906e+01
    1.5440019226e+02   -2.1661600113e+01
    1.5450010681e+02   -2.1718700409e+01
    1.5460008240e+02   -2.1775899887e+01
    1.5470011902e+02   -2.1833200455e+01
    1.5480006409e+02   -2.1890499115e+01
    1.5490020752e+02   -2.1947999954e+01
    1.5500018311e+02   -2.2005599976e+01
    1.5510017395e+02   -2.2063299179e+01
    1.5520021057e+02   -2.2121000290e+01
    1.5530023193e+02   -2.2178899765e+01
    1.5540017700e+02   -2.2236799240e+01
    1.5550010681e+02   -2.2294700623e+01
    1.5560012817e+02   -2.2352899551e+01
    1.5570013428e+02   -2.2411100388e+01
    1.5580021667e+02   -2.2469400406e+01
    1.5590013123e+02   -2.2527799606e+01
    1.5600028992e+02   -2.2586399078e+01
    1.5610023499e+02   -2.2644899368e+01
    1.5620022583e+02   -2.2703699112e+01
    1.5630032349e+02   -2.2762500763e+01
    1.5640032959e+02   -2.2821500778e+01
    1.5650030518e+02   -2.2880500793e+01
    1.5660018921e+02   -2.2939599991e+01
    1.5670028687e+02   -2.2998899460e+01
    1.5680027771e+02   -2.3058200836e+01
    1.5690025330e+02   -2.3117599487e+01
    1.5700018311e+02   -2.3177000046e+01
    1.5710035706e+02   -2.3236700058e+01
    1.5720022583e+02   -2.3296300888e+01
    1.5730032349e+02   -2.3356100082e+01
    1.5740034485e+02   -2.3416000366e+01
    1.5750035095e+02   -2.3475999832e+01
    1.5760029602e+02   -2.3535999298e+01
    1.5770039368e+02   -2.3596099854e+01
    1.5780029297e+02   -2.3656299591e+01
    1.5790037537e+02   -2.3716600418e+01
    1.5800028992e+02   -2.3776899338e+01
    1.5810040283e+02   -2.3837499619e+01
    1.5820040894e+02   -2.3898000717e+01
    1.5830035400e+02   -2.3958700180e+01
    1.5840026855e+02   -2.4019300461e+01
    1.5850044250e+02   -2.4080299377e+01
    1.5860035706e+02   -2.4141099930e+01
    1.5870039368e+02   -2.4202199936e+01
    1.5880047607e+02   -2.4263299942e+01
    1.5890048218e+02   -2.4324399948e+01
    1.5900038147e+02   -2.4385599136e+01
    1.5910037231e+02   -2.4446899414e+01
    1.5920039368e+02   -2.4508300781e+01
    1.5930041504e+02   -2.4569799423e+01
    1.5940051270e+02   -2.4631399155e+01
    1.5950039673e+02   -2.4693000793e+01
    1.5960035706e+02   -2.4754600525e+01
    1.5970048523e+02   -2.4816499710e+01
    1.5980053711e+02   -2.4878400803e+01
    1.5990045166e+02   -2.4940299988e+01
    1.6000039673e+02   -2.5002300262e+01
    1.6010055542e+02   -2.5064500809e+01
    1.6020050049e+02   -2.5126699448e+01
    1.6030047607e+02   -2.5188999176e+01
    1.6040049744e+02   -2.5251399994e+01
    1.6050048828e+02   -2.5313800812e+01
    1.6060046387e+02   -2.5376300812e+01
    1.6070054626e+02   -2.5438899994e+01
    1.6080053711e+02   -2.5501600266e+01
    1.6090055847e+02   -2.5564300537e+01
    1.6100048828e+02   -2.5627000809e+01
    1.6110047913e+02   -2.5689899445e+01
    1.6120051575e+02   -2.5752899170e+01
    1.6130053711e+02   -2.5815900803e+01
    1.6140057373e+02   -2.5878999710e+01
    1.6150062561e+02   -2.5942199707e+01
    1.6160061646e+02   -2.6005399704e+01
    1.6170065308e+02   -2.6068700790e+01
    1.6180050659e+02   -2.6131999969e+01
    1.6190048218e+02   -2.6195400238e+01
    1.6200056458e+02   -2.6259000778e+01
    1.6210064697e+02   -2.6322700500e+01
    1.6220063782e+02   -2.6386299133e+01
    1.6230058289e+02   -2.6450000763e+01
    1.6240055847e+02   -2.6513799667e+01
    1.6250053406e+02   -2.6577699661e+01
    1.6260058594e+02   -2.6641700745e+01
    1.6270062256e+02   -2.6705799103e+01
    1.6280072021e+02   -2.6770000458e+01
    1.6290066528e+02   -2.6834100723e+01
    1.6300056458e+02   -2.6898300171e+01
    1.6310064697e+02   -2.6962699890e+01
    1.6320060730e+02   -2.7027000427e+01
    1.6330064392e+02   -2.7091499329e+01
    1.6340069580e+02   -2.7156099319e+01
    1.6350062561e+02   -2.7220800400e+01
    1.6360073853e+02   -2.7285600662e+01
    1.6370074463e+02   -2.7350500107e+01
    1.6380076599e+02   -2.7415399551e+01
    1.6390075684e+02   -2.7480499268e+01
    1.6400076294e+02   -2.7545600891e+01
    1.6410072327e+02   -2.7610700607e+01
    1.6420077515e+02   -2.7676000595e+01
    1.6430073547e+02   -2.7741399765e+01
    1.6440069580e+02   -2.7806800842e+01
    1.6450071716e+02   -2.7872299194e+01
    1.6460066223e+02   -2.7937799454e+01
    1.6470080566e+02   -2.8003499985e+01
    1.6480075073e+02   -2.8069099426e+01
    1.6490075684e+02   -2.8134899139e+01
    1.6500068665e+02   -2.8200700760e+01
    1.6510075378e+02   -2.8266599655e+01
    1.6520083618e+02   -2.8332599640e+01
    1.6530079651e+02   -2.8398500443e+01
    1.6540083313e+02   -2.8464599609e+01
    1.6550083923e+02   -2.8530700684e+01
    1.6560070801e+02   -2.8596799850e+01
    1.6570082092e+02   -2.8663099289e+01
    1.6580078125e+02   -2.8729299545e+01
    1.6590083313e+02   -2.8795700073e+01
    1.6600079346e+02   -2.8862100601e+01
    1.6610089111e+02   -2.8928600311e+01
    1.6620085144e+02   -2.8995100021e+01
    1.6630084229e+02   -2.9061700821e+01
    1.6640078735e+02   -2.9128400803e+01
    1.6650082397e+02   -2.9195199966e+01
    1.6660090637e+02   -2.9261999130e+01
    1.6670094299e+02   -2.9328899384e+01
    1.6680096436e+02   -2.9395900726e+01
    1.6690083313e+02   -2.9462799072e+01
    1.6700085449e+02   -2.9529899597e+01
    1.6710084534e+02   -2.9597000122e+01
    1.6720083618e+02   -2.9664199829e+01
    1.6730091858e+02   -2.9731399536e+01
    1.6740084839e+02   -2.9798700333e+01
    1.6750097656e+02   -2.9866100311e+01
    1.6760093689e+02   -2.9933500290e+01
    1.6770088196e+02   -3.0000999451e+01
    1.6780093384e+02   -3.0068500519e+01
    1.6790087891e+02   -3.0136100769e+01
    1.6800100708e+02   -3.0203800201e+01
    1.6810096741e+02   -3.0271499634e+01
    1.6820100403e+02   -3.0339300156e+01
    1.6830099487e+02   -3.0407199860e+01
    1.6840089417e+02   -3.0475000381e+01
    1.6850094604e+02   -3.0542999268e+01
    1.6860105896e+02   -3.0611099243e+01
    1.6870100403e+02   -3.0679199219e+01
    1.6880101013e+02   -3.0747400284e+01
    1.6890104675e+02   -3.0815599442e+01
    1.6900097656e+02   -3.0883800507e+01
    1.6910092163e+02   -3.0952100754e+01
    1.6920098877e+02   -3.1020599365e+01
    1.6930104065e+02   -3.1089000702e+01
    1.6940110779e+02   -3.1157600403e+01
    1.6950097656e+02   -3.1225999832e+01
    1.6960104370e+02   -3.1294700623e+01
    1.6970109558e+02   -3.1363399506e+01
    1.6980105591e+02   -3.1432100296e+01
    1.6990098572e+02   -3.1500799179e+01
    1.7000099182e+02   -3.1569700241e+01
    1.7010104370e+02   -3.1638599396e+01
    1.7020103455e+02   -3.1707500458e+01
    1.7030110168e+02   -3.1776599884e+01
    1.7040104675e+02   -3.1845600128e+01
    1.7050105286e+02   -3.1914600372e+01
    1.7060104370e+02   -3.1983699799e+01
    1.7070106506e+02   -3.2052898407e+01
    1.7080110168e+02   -3.2122100830e+01
    1.7090121460e+02   -3.2191398621e+01
    1.7100105286e+02   -3.2260501862e+01
    1.7110107422e+02   -3.2329799652e+01
    1.7120112610e+02   -3.2399200439e+01
    1.7130111694e+02   -3.2468601227e+01
    1.7140112305e+02   -3.2537998199e+01
    1.7150108337e+02   -3.2607498169e+01
    1.7160116577e+02   -3.2676998138e+01
    1.7170112610e+02   -3.2746601105e+01
    1.7180116272e+02   -3.2816200256e+01
    1.7190113831e+02   -3.2885799408e+01
    1.7200117493e+02   -3.2955501556e+01
    1.7210115051e+02   -3.3025299072e+01
    1.7220118713e+02   -3.3095100403e+01
    1.7230113220e+02   -3.3164901733e+01
    1.7240115356e+02   -3.3234901428e+01
    1.7250114441e+02   -3.3304798126e+01
    1.7260127258e+02   -3.3374900818e+01
    1.7270118713e+02   -3.3444900513e+01
    1.7280125427e+02   -3.3515098572e+01
    1.7290121460e+02   -3.3585201263e+01
    1.7300129700e+02   -3.3655498505e+01
    1.7310130310e+02   -3.3725700378e+01
    1.7320117188e+02   -3.3795898438e+01
    1.7330120850e+02   -3.3866298676e+01
    1.7340119934e+02   -3.3936798096e+01
    1.7350131226e+02   -3.4007301331e+01
    1.7360130310e+02   -3.4077899933e+01
    1.7370137024e+02   -3.4148601532e+01
    1.7380134583e+02   -3.4219299316e+01
    1.7390129089e+02   -3.4290000916e+01
    1.7400140381e+02   -3.4360900879e+01
    1.7410122681e+02   -3.4431701660e+01
    1.7420137024e+02   -3.4502700806e+01
    1.7430137634e+02   -3.4573699951e+01
    1.7440141296e+02   -3.4644798279e+01
    1.7450129700e+02   -3.4715801239e+01
    1.7460142517e+02   -3.4786899567e+01
    1.7470132446e+02   -3.4858001709e+01
    1.7480145264e+02   -3.4929298401e+01
    1.7490142822e+02   -3.5000499725e+01
    1.7500134277e+02   -3.5071701050e+01
    1.7510139465e+02   -3.5143001556e+01
    1.7520143127e+02   -3.5214298248e+01
    1.7530134583e+02   -3.5285598755e+01
    1.7540139771e+02   -3.5357101440e+01
    1.7550149536e+02   -3.5428600311e+01
    1.7560150146e+02   -3.5500000000e+01
    1.7570146179e+02   -3.5571498871e+01
    1.7580136108e+02   -3.5642898560e+01
    1.7590148926e+02   -3.5714500427e+01
    1.7600137329e+02   -3.5785999298e+01
    1.7610142517e+02   -3.5857700348e+01
    1.7620149231e+02   -3.5929401398e+01
    1.7630143738e+02   -3.6001098633e+01
    1.7640147400e+02   -3.6072898865e+01
    1.7650149536e+02   -3.6144699097e+01
    1.7660144043e+02   -3.6216499329e+01
    1.7670155334e+02   -3.6288501740e+01
    1.7680149841e+02   -3.6360298157e+01
    1.7690147400e+02   -3.6432300568e+01
    1.7700143433e+02   -3.6504199982e+01
    1.7710157776e+02   -3.6576301575e+01
    1.7720150757e+02   -3.6648300171e+01
    1.7730143738e+02   -3.6720401764e+01
    1.7740151978e+02   -3.6792598724e+01
    1.7750155640e+02   -3.6864799500e+01
    1.7760159302e+02   -3.6937099457e+01
    1.7770161438e+02   -3.7009399414e+01
    1.7780149841e+02   -3.7081600189e+01
    1.7790159607e+02   -3.7154098511e+01
    1.7800163269e+02   -3.7226501465e+01
    1.7810150146e+02   -3.7298900604e+01
    1.7820158386e+02   -3.7371498108e+01
    1.7830158997e+02   -3.7444099426e+01
    1.7840165710e+02   -3.7516700745e+01
    1.7850164795e+02   -3.7589401245e+01
    1.7860163879e+02   -3.7662101746e+01
    1.7870150757e+02   -3.7734699249e+01
    1.7880163574e+02   -3.7807598114e+01
    1.7890159607e+02   -3.7880298615e+01
    1.7900155640e+02   -3.7953098297e+01
    1.7910154724e+02   -3.8026000977e+01
    1.7920155334e+02   -3.8098899841e+01
    1.7930163574e+02   -3.8171798706e+01
    1.7940170288e+02   -3.8244800568e+01
    1.7950161743e+02   -3.8317699432e+01
    1.7960159302e+02   -3.8390701294e+01
    1.7970159912e+02   -3.8463699341e+01
    1.7980166626e+02   -3.8536800385e+01
    1.7990168762e+02   -3.8609901428e+01
    1.8000175476e+02   -3.8682998657e+01
    1.8010165405e+02   -3.8756000519e+01
    1.8020169067e+02   -3.8829200745e+01
    1.8030169678e+02   -3.8902301788e+01
    1.8040171814e+02   -3.8975498199e+01
    1.8050172424e+02   -3.9048698425e+01
    1.8060173035e+02   -3.9121799469e+01
    1.8070164490e+02   -3.9194900513e+01
    1.8080165100e+02   -3.9268100739e+01
    1.8090168762e+02   -3.9341300964e+01
    1.8100169373e+02   -3.9414398193e+01
    1.8110180664e+02   -3.9487701416e+01
    1.8120176697e+02   -3.9560901642e+01
    1.8130180359e+02   -3.9634101868e+01
    1.8140168762e+02   -3.9707298279e+01
    1.8150169373e+02   -3.9780498505e+01
    1.8160171509e+02   -3.9853801727e+01
    1.8170170593e+02   -3.9926998138e+01
    1.8180172729e+02   -4.0000301361e+01
    1.8190182495e+02   -4.0073699951e+01
    1.8200181580e+02   -4.0146999359e+01
    1.8210180664e+02   -4.0220401764e+01
    1.8220184326e+02   -4.0293800354e+01
    1.8230186462e+02   -4.0367198944e+01
    1.8240188599e+02   -4.0440700531e+01
    1.8250190735e+02   -4.0514198303e+01
    1.8260192871e+02   -4.0587699890e+01
    1.8270190430e+02   -4.0661201477e+01
    1.8280189514e+02   -4.0734699249e+01
    1.8290177917e+02   -4.0808200836e+01
    1.8300187683e+02   -4.0881801605e+01
    1.8310191345e+02   -4.0955299377e+01
    1.8320193481e+02   -4.1028900146e+01
    1.8330186462e+02   -4.1102500916e+01
    1.8340182495e+02   -4.1176101685e+01
    1.8350189209e+02   -4.1249801636e+01
    1.8360191345e+02   -4.1323501587e+01
    1.8370181274e+02   -4.1397201538e+01
    1.8380183411e+02   -4.1471000671e+01
    1.8390191650e+02   -4.1544898987e+01
    1.8400187683e+02   -4.1618698120e+01
    1.8410185242e+02   -4.1692501068e+01
    1.8420202637e+02   -4.1766498566e+01
    1.8430195618e+02   -4.1840400696e+01
    1.8440200806e+02   -4.1914299011e+01
    1.8450195312e+02   -4.1988201141e+01
    1.8460202026e+02   -4.2062099457e+01
    1.8470188904e+02   -4.2135898590e+01
    1.8480187988e+02   -4.2209800720e+01
    1.8490205383e+02   -4.2283798218e+01
    1.8500190735e+02   -4.2357601166e+01
    1.8510198975e+02   -4.2431598663e+01
    1.8520193481e+02   -4.2505401611e+01
    1.8530204773e+02   -4.2579399109e+01
    1.8540197754e+02   -4.2653198242e+01
    1.8550204468e+02   -4.2727100372e+01
    1.8560200500e+02   -4.2800899506e+01
    1.8570208740e+02   -4.2874801636e+01
    1.8580198669e+02   -4.2948600769e+01
    1.8590209961e+02   -4.3022499084e+01
    1.8600204468e+02   -4.3096298218e+01
    1.8610211182e+02   -4.3170200348e+01
    1.8620205688e+02   -4.3243999481e+01
    1.8630209351e+02   -4.3317901611e+01
    1.8640208435e+02   -4.3391700745e+01
    1.8650198364e+02   -4.3465499878e+01
    1.8660209656e+02   -4.3539398193e+01
    1.8670217896e+02   -4.3613399506e+01
    1.8680212402e+02   -4.3687198639e+01
    1.8690205383e+02   -4.3761001587e+01
    1.8700210571e+02   -4.3834899902e+01
    1.8710211182e+02   -4.3908798218e+01
    1.8720210266e+02   -4.3982700348e+01
    1.8730209351e+02   -4.4056499481e+01
    1.8740209961e+02   -4.4130401611e+01
    1.8750207520e+02   -4.4204299927e+01
    1.8760223389e+02   -4.4278301239e+01
    1.8770223999e+02   -4.4352298737e+01
    1.8780212402e+02   -4.4426101685e+01
    1.8790220642e+02   -4.4500099182e+01
    1.8800212097e+02   -4.4574001312e+01
    1.8810214233e+02   -4.4647899628e+01
    1.8820223999e+02   -4.4722000122e+01
    1.8830227661e+02   -4.4796001434e+01
    1.8840223694e+02   -4.4869899750e+01
    1.8850218201e+02   -4.4943801880e+01
    1.8860212708e+02   -4.5017700195e+01
    1.8870223999e+02   -4.5091800690e+01
    1.8880221558e+02   -4.5165699005e+01
    1.8890213013e+02   -4.5239601135e+01
    1.8900213623e+02   -4.5313499451e+01
    1.8910226440e+02   -4.5387500763e+01
    1.8920225525e+02   -4.5461299896e+01
    1.8930232239e+02   -4.5535198212e+01
    1.8940217590e+02   -4.5608898163e+01
    1.8950234985e+02   -4.5682800293e+01
    1.8960226440e+02   -4.5756500244e+01
    1.8970217896e+02   -4.5830200195e+01
    1.8980221558e+02   -4.5903999329e+01
    1.8990225220e+02   -4.5977699280e+01
    1.9000230408e+02   -4.6051399231e+01
    1.9010237122e+02   -4.6125099182e+01
    1.9020225525e+02   -4.6198600769e+01
    1.9030233765e+02   -4.6272201538e+01
    1.9040237427e+02   -4.6345798492e+01
    1.9050224304e+02   -4.6419101715e+01
    1.9060231018e+02   -4.6492599487e+01
    1.9070236206e+02   -4.6566001892e+01
    1.9080232239e+02   -4.6639198303e+01
    1.9090226746e+02   -4.6712398529e+01
    1.9100236511e+02   -4.6785701752e+01
    1.9110238647e+02   -4.6858798981e+01
    1.9120242310e+02   -4.6931900024e+01
    1.9130230713e+02   -4.7004901886e+01
    1.9140231323e+02   -4.7077899933e+01
    1.9150238037e+02   -4.7150901794e+01
    1.9160243225e+02   -4.7223899841e+01
    1.9170237732e+02   -4.7296699524e+01
    1.9180235291e+02   -4.7369499207e+01
    1.9190248108e+02   -4.7442401886e+01
    1.9200234985e+02   -4.7514999390e+01
    1.9210240173e+02   -4.7587699890e+01
    1.9220245361e+02   -4.7660499573e+01
    1.9230238342e+02   -4.7733100891e+01
    1.9240248108e+02   -4.7805801392e+01
    1.9250250244e+02   -4.7878398895e+01
    1.9260246277e+02   -4.7950901031e+01
    1.9270249939e+02   -4.8023399353e+01
    1.9280249023e+02   -4.8095798492e+01
    1.9290255737e+02   -4.8168300629e+01
    1.9300251770e+02   -4.8240501404e+01
    1.9310240173e+02   -4.8312698364e+01
    1.9320251465e+02   -4.8384998322e+01
    1.9330256653e+02   -4.8457298279e+01
    1.9340242004e+02   -4.8529300690e+01
    1.9350248718e+02   -4.8601398468e+01
    1.9360249329e+02   -4.8673500061e+01
    1.9370249939e+02   -4.8745498657e+01
    1.9380259705e+02   -4.8817401886e+01
    1.9390249634e+02   -4.8889198303e+01
    1.9400251770e+02   -4.8961101532e+01
    1.9410263062e+02   -4.9032901764e+01
    1.9420257568e+02   -4.9104499817e+01
    1.9430250549e+02   -4.9175998688e+01
    1.9440255737e+02   -4.9247501373e+01
[...]
    2.5130598450e+02   -5.9152900696e+01
    2.5140594482e+02   -5.9127300262e+01
    2.5150602722e+02   -5.9101200104e+01
    2.5160612488e+02   -5.9074798584e+01
    2.5170614624e+02   -5.9048099518e+01
    2.5180616760e+02   -5.9020900726e+01
    2.5190605164e+02   -5.8993499756e+01
    2.5200608826e+02   -5.8965599060e+01
    2.5210601807e+02   -5.8937400818e+01
    2.5220606995e+02   -5.8908699036e+01
    2.5230610657e+02   -5.8879798889e+01
    2.5240602112e+02   -5.8850399017e+01
    2.5250602722e+02   -5.8820800781e+01
    2.5260609436e+02   -5.8790699005e+01
    2.5270617676e+02   -5.8760200500e+01
    2.5280610657e+02   -5.8729499817e+01
    2.5290609741e+02   -5.8698299408e+01
    2.5300604248e+02   -5.8666801453e+01
    2.5310612488e+02   -5.8634899139e+01
    2.5320617676e+02   -5.8602699280e+01
    2.5330616760e+02   -5.8570098877e+01
    2.5340625000e+02   -5.8537200928e+01
    2.5350610352e+02   -5.8503898621e+01
    2.5360621643e+02   -5.8470298767e+01
    2.5370622253e+02   -5.8436298370e+01
    2.5380618286e+02   -5.8402000427e+01
    2.5390611267e+02   -5.8367401123e+01
    2.5400625610e+02   -5.8332401276e+01
    2.5410627747e+02   -5.8297100067e+01
    2.5420616150e+02   -5.8261501312e+01
    2.5430618286e+02   -5.8225498199e+01
    2.5440623474e+02   -5.8189300537e+01
    2.5450630188e+02   -5.8152698517e+01
    2.5460627747e+02   -5.8115898132e+01
    2.5470631409e+02   -5.8078701019e+01
    2.5480621338e+02   -5.8041301727e+01
    2.5490621948e+02   -5.8003601074e+01
    2.5500628662e+02   -5.7965499878e+01
    2.5510630798e+02   -5.7927200317e+01
    2.5520626831e+02   -5.7888599396e+01
    2.5530625916e+02   -5.7849700928e+01
    2.5540629578e+02   -5.7810398102e+01
    2.5550631714e+02   -5.7770900726e+01
    2.5560629272e+02   -5.7731098175e+01
    2.5570635986e+02   -5.7691001892e+01
    2.5580638123e+02   -5.7650600433e+01
    2.5590623474e+02   -5.7610000610e+01
    2.5600622559e+02   -5.7569000244e+01
    2.5610635376e+02   -5.7527698517e+01
    2.5620626831e+02   -5.7486198425e+01
    2.5630627441e+02   -5.7444301605e+01
    2.5640631104e+02   -5.7402099609e+01
    2.5650631714e+02   -5.7359699249e+01
    2.5660638428e+02   -5.7317001343e+01
    2.5670632935e+02   -5.7273998260e+01
    2.5680639648e+02   -5.7230701447e+01
    2.5690634155e+02   -5.7187099457e+01
    2.5700643921e+02   -5.7143199921e+01
    2.5710638428e+02   -5.7099098206e+01
    2.5720642090e+02   -5.7054599762e+01
    2.5730630493e+02   -5.7009998322e+01
    2.5740646362e+02   -5.6964900970e+01
    2.5750631714e+02   -5.6919700623e+01
    2.5760638428e+02   -5.6874099731e+01
    2.5770642090e+02   -5.6828300476e+01
    2.5780645752e+02   -5.6782199860e+01
    2.5790634155e+02   -5.6736000061e+01
    2.5800650024e+02   -5.6689300537e+01
    2.5810641479e+02   -5.6642601013e+01
    2.5820651245e+02   -5.6595500946e+01
    2.5830648804e+02   -5.6548198700e+01
    2.5840640259e+02   -5.6500801086e+01
    2.5850653076e+02   -5.6452999115e+01
    2.5860656738e+02   -5.6405101776e+01
    2.5870645142e+02   -5.6357101440e+01
    2.5880642700e+02   -5.6308799744e+01
    2.5890655518e+02   -5.6260299683e+01
    2.5900653076e+02   -5.6211601257e+01
    2.5910641479e+02   -5.6162799835e+01
    2.5920645142e+02   -5.6113800049e+01
    2.5930642700e+02   -5.6064601898e+01
    2.5940655518e+02   -5.6015098572e+01
    2.5950659180e+02   -5.5965599060e+01
    2.5960653687e+02   -5.5915901184e+01
    2.5970654297e+02   -5.5865898132e+01
    2.5980664062e+02   -5.5815799713e+01
    2.5990664673e+02   -5.5765598297e+01
    2.6000646973e+02   -5.5715301514e+01
    2.6010647583e+02   -5.5664699554e+01
    2.6020666504e+02   -5.5613899231e+01
    2.6030651855e+02   -5.5563098907e+01
    2.6040664673e+02   -5.5511901855e+01
    2.6050665283e+02   -5.5460700989e+01
    2.6060653687e+02   -5.5409400940e+01
    2.6070663452e+02   -5.5357898712e+01
    2.6080661011e+02   -5.5306198120e+01
    2.6090664673e+02   -5.5254398346e+01
    2.6100671387e+02   -5.5202400208e+01
    2.6110653687e+02   -5.5150398254e+01
    2.6120660400e+02   -5.5098201752e+01
    2.6130664062e+02   -5.5045799255e+01
    2.6140667725e+02   -5.4993301392e+01
    2.6150659180e+02   -5.4940700531e+01
    2.6160671997e+02   -5.4887901306e+01
    2.6170663452e+02   -5.4834999084e+01
    2.6180670166e+02   -5.4782001495e+01
    2.6190673828e+02   -5.4728801727e+01
    2.6200674438e+02   -5.4675498962e+01
    2.6210659790e+02   -5.4622100830e+01
    2.6220669556e+02   -5.4568599701e+01
    2.6230676270e+02   -5.4514801025e+01
    2.6240676880e+02   -5.4460998535e+01
    2.6250662231e+02   -5.4407199860e+01
    2.6260671997e+02   -5.4353099823e+01
    2.6270666504e+02   -5.4298999786e+01
    2.6280679321e+02   -5.4244701385e+01
    2.6290679932e+02   -5.4190299988e+01
    2.6300668335e+02   -5.4135898590e+01
    2.6310678101e+02   -5.4081298828e+01
    2.6320675659e+02   -5.4026699066e+01
    2.6330682373e+02   -5.3971900940e+01
    2.6340670776e+02   -5.3917098999e+01
    2.6350677490e+02   -5.3862201691e+01
    2.6360684204e+02   -5.3807201385e+01
    2.6370684814e+02   -5.3752101898e+01
    2.6380679321e+02   -5.3697101593e+01
    2.6390682983e+02   -5.3641899109e+01
    2.6400680542e+02   -5.3586700439e+01
    2.6410671997e+02   -5.3531501770e+01
    2.6420681763e+02   -5.3476100922e+01
    2.6430679321e+02   -5.3420799255e+01
    2.6440676880e+02   -5.3365398407e+01
    2.6450674438e+02   -5.3310001373e+01
    2.6460687256e+02   -5.3254398346e+01
    2.6470684814e+02   -5.3199001312e+01
    2.6480682373e+02   -5.3143501282e+01
    2.6490689087e+02   -5.3087898254e+01
    2.6500683594e+02   -5.3032398224e+01
    2.6510696411e+02   -5.2976799011e+01
    2.6520684814e+02   -5.2921199799e+01
    2.6530688477e+02   -5.2865600586e+01
    2.6540686035e+02   -5.2809898376e+01
    2.6550683594e+02   -5.2754199982e+01
    2.6560681152e+02   -5.2698398590e+01
    2.6570697021e+02   -5.2642501831e+01
    2.6580682373e+02   -5.2586799622e+01
    2.6590689087e+02   -5.2530899048e+01
    2.6600692749e+02   -5.2474899292e+01
    2.6610687256e+02   -5.2418899536e+01
    2.6620684814e+02   -5.2362899780e+01
    2.6630685425e+02   -5.2306701660e+01
    2.6640692139e+02   -5.2250499725e+01
    2.6650701904e+02   -5.2194198608e+01
    2.6660690308e+02   -5.2137901306e+01
    2.6670700073e+02   -5.2081501007e+01
    2.6680691528e+02   -5.2025100708e+01
    2.6690698242e+02   -5.1968601227e+01
    2.6700701904e+02   -5.1911998749e+01
    2.6710696411e+02   -5.1855400085e+01
    2.6720690918e+02   -5.1798801422e+01
    2.6730697632e+02   -5.1742000580e+01
    2.6740707397e+02   -5.1685199738e+01
    2.6750704956e+02   -5.1628398895e+01
    2.6760711670e+02   -5.1571498871e+01
    2.6770700073e+02   -5.1514701843e+01
    2.6780700684e+02   -5.1457698822e+01
    2.6790698242e+02   -5.1400699615e+01
    2.6800698853e+02   -5.1343601227e+01
    2.6810702515e+02   -5.1286399841e+01
    2.6820700073e+02   -5.1229301453e+01
    2.6830703735e+02   -5.1172000885e+01
    2.6840701294e+02   -5.1114799500e+01
    2.6850704956e+02   -5.1057399750e+01
    2.6860699463e+02   -5.1000099182e+01
    2.6870703125e+02   -5.0942600250e+01
    2.6880709839e+02   -5.0885200500e+01
    2.6890716553e+02   -5.0827598572e+01
    2.6900714111e+02   -5.0770099640e+01
    2.6910705566e+02   -5.0712600708e+01
    2.6920721436e+02   -5.0654899597e+01
    2.6930718994e+02   -5.0597198486e+01
    2.6940710449e+02   -5.0539600372e+01
    2.6950720215e+02   -5.0481800079e+01
    2.6960714722e+02   -5.0423999786e+01
    2.6970721436e+02   -5.0366199493e+01
    2.6980709839e+02   -5.0308399200e+01
    2.6990710449e+02   -5.0250499725e+01
    2.7000723267e+02   -5.0192401886e+01
    2.7010720825e+02   -5.0134399414e+01
    2.7020718384e+02   -5.0076400757e+01
    2.7030722046e+02   -5.0018299103e+01
    2.7040713501e+02   -4.9960098267e+01
    2.7050711060e+02   -4.9901901245e+01
    2.7060726929e+02   -4.9843498230e+01
    2.7070718384e+02   -4.9785198212e+01
    2.7080731201e+02   -4.9726699829e+01
    2.7090713501e+02   -4.9668300629e+01
    2.7100717163e+02   -4.9609699249e+01
    2.7110720825e+02   -4.9551101685e+01
    2.7120727539e+02   -4.9492298126e+01
    2.7130725098e+02   -4.9433498383e+01
    2.7140722656e+02   -4.9374599457e+01
    2.7150720215e+02   -4.9315700531e+01
    2.7160726929e+02   -4.9256599426e+01
    2.7170724487e+02   -4.9197399139e+01
    2.7180728149e+02   -4.9138099670e+01
    2.7190719604e+02   -4.9078800201e+01
    2.7200732422e+02   -4.9019298553e+01
    2.7210726929e+02   -4.8959701538e+01
    2.7220727539e+02   -4.8900001526e+01
    2.7230734253e+02   -4.8840198517e+01
    2.7240737915e+02   -4.8780200958e+01
    2.7250726318e+02   -4.8720298767e+01
    2.7260739136e+02   -4.8660099030e+01
    2.7270733643e+02   -4.8599899292e+01
    2.7280734253e+02   -4.8539600372e+01
    2.7290722656e+02   -4.8479301453e+01
    2.7300741577e+02   -4.8418701172e+01
    2.7310733032e+02   -4.8358100891e+01
    2.7320733643e+02   -4.8297401428e+01
    2.7330731201e+02   -4.8236698151e+01
    2.7340734863e+02   -4.8175800323e+01
    2.7350729370e+02   -4.8114898682e+01
    2.7360745239e+02   -4.8053798676e+01
    2.7370739746e+02   -4.7992698669e+01
    2.7380737305e+02   -4.7931499481e+01
    2.7390737915e+02   -4.7870300293e+01
    2.7400732422e+02   -4.7808898926e+01
    2.7410736084e+02   -4.7747398376e+01
    2.7420739746e+02   -4.7685901642e+01
    2.7430734253e+02   -4.7624298096e+01
    2.7440737915e+02   -4.7562500000e+01
    2.7450750732e+02   -4.7500598907e+01
    2.7460742188e+02   -4.7438701630e+01
    2.7470748901e+02   -4.7376701355e+01
    2.7480740356e+02   -4.7314601898e+01
    2.7490744019e+02   -4.7252300262e+01
    2.7500756836e+02   -4.7189899445e+01
    2.7510751343e+02   -4.7127498627e+01
    2.7520739746e+02   -4.7064998627e+01
    2.7530743408e+02   -4.7002300262e+01
    2.7540740967e+02   -4.6939498901e+01
    2.7550744629e+02   -4.6876499176e+01
    2.7560742188e+02   -4.6813499451e+01
    2.7570748901e+02   -4.6750198364e+01
    2.7580746460e+02   -4.6686901093e+01
    2.7590756226e+02   -4.6623401642e+01
    2.7600756836e+02   -4.6559799194e+01
    2.7610754395e+02   -4.6496101379e+01
    2.7620761108e+02   -4.6432201385e+01
    2.7630755615e+02   -4.6368301392e+01
    2.7640759277e+02   -4.6304100037e+01
    2.7650762939e+02   -4.6239799500e+01
    2.7660751343e+02   -4.6175399780e+01
    2.7670764160e+02   -4.6110698700e+01
    2.7680758667e+02   -4.6046100616e+01
    2.7690750122e+02   -4.5981201172e+01
    2.7700762939e+02   -4.5916099548e+01
    2.7710757446e+02   -4.5851001740e+01
    2.7720767212e+02   -4.5785598755e+01
    2.7730755615e+02   -4.5720298767e+01
    2.7740762329e+02   -4.5654701233e+01
    2.7750765991e+02   -4.5588901520e+01
    2.7760757446e+02   -4.5523101807e+01
    2.7770761108e+02   -4.5457099915e+01
    2.7780770874e+02   -4.5390899658e+01
    2.7790768433e+02   -4.5324600220e+01
    2.7800759888e+02   -4.5258300781e+01
    2.7810772705e+02   -4.5191600800e+01
    2.7820770264e+02   -4.5125000000e+01
    2.7830761719e+02   -4.5058300018e+01
    2.7840759277e+02   -4.4991298676e+01
    2.7850769043e+02   -4.4924198151e+01
    2.7860772705e+02   -4.4856998444e+01
    2.7870773315e+02   -4.4789699554e+01
    2.7880770874e+02   -4.4722301483e+01
    2.7890777588e+02   -4.4654701233e+01
    2.7900762939e+02   -4.4587100983e+01
    2.7910778809e+02   -4.4519199371e+01
    2.7920773315e+02   -4.4451301575e+01
    2.7930770874e+02   -4.4383201599e+01
    2.7940774536e+02   -4.4314998627e+01
    2.7950772095e+02   -4.4246700287e+01
    2.7960781860e+02   -4.4178100586e+01
    2.7970773315e+02   -4.4109600067e+01
    2.7980776978e+02   -4.4040798187e+01
    2.7990783691e+02   -4.3971900940e+01
    2.8000772095e+02   -4.3902900696e+01
    2.8010784912e+02   -4.3833599091e+01
    2.8020782471e+02   -4.3764198303e+01
    2.8030783081e+02   -4.3694698334e+01
    2.8040774536e+02   -4.3625099182e+01
    2.8050775146e+02   -4.3555198669e+01
    2.8060775757e+02   -4.3485099792e+01
    2.8070782471e+02   -4.3414798737e+01
    2.8080776978e+02   -4.3344398499e+01
    2.8090774536e+02   -4.3273799896e+01
    2.8100784302e+02   -4.3202999115e+01
    2.8110775757e+02   -4.3132099152e+01
    2.8120782471e+02   -4.3060901642e+01
    2.8130789185e+02   -4.2989498138e+01
    2.8140777588e+02   -4.2917999268e+01
    2.8150793457e+02   -4.2846199036e+01
    2.8160787964e+02   -4.2774299622e+01
    2.8170782471e+02   -4.2702201843e+01
    2.8180783081e+02   -4.2630001068e+01
    2.8190780640e+02   -4.2557598114e+01
    2.8200784302e+02   -4.2485000610e+01
    2.8210800171e+02   -4.2412101746e+01
    2.8220782471e+02   -4.2339298248e+01
    2.8230783081e+02   -4.2266300201e+01
    2.8240789795e+02   -4.2193099976e+01
    2.8250796509e+02   -4.2119701385e+01
    2.8260787964e+02   -4.2046398163e+01
    2.8270788574e+02   -4.1972801208e+01
    2.8280795288e+02   -4.1899101257e+01
    2.8290792847e+02   -4.1825298309e+01
    2.8300802612e+02   -4.1751399994e+01
    2.8310803223e+02   -4.1677299500e+01
    2.8320800781e+02   -4.1603199005e+01
    2.8330792236e+02   -4.1529098511e+01
    2.8340786743e+02   -4.1454799652e+01
    2.8350805664e+02   -4.1380199432e+01
    2.8360791016e+02   -4.1305698395e+01
    2.8370794678e+02   -4.1230998993e+01
    2.8380801392e+02   -4.1156101227e+01
    2.8390798950e+02   -4.1081100464e+01
    2.8400799561e+02   -4.1006000519e+01
    2.8410794067e+02   -4.0930900574e+01
    2.8420800781e+02   -4.0855400085e+01
    2.8430801392e+02   -4.0779998779e+01
    2.8440798950e+02   -4.0704299927e+01
    2.8450808716e+02   -4.0628398895e+01
    2.8460800171e+02   -4.0552501678e+01
    2.8470816040e+02   -4.0476299286e+01
    2.8480813599e+02   -4.0400001526e+01
    2.8490808105e+02   -4.0323501587e+01
    2.8500811768e+02   -4.0246799469e+01
    2.8510809326e+02   -4.0169998169e+01
    2.8520803833e+02   -4.0093101501e+01
    2.8530810547e+02   -4.0015800476e+01
    2.8540814209e+02   -3.9938499451e+01
    2.8550817871e+02   -3.9860900879e+01
    2.8560818481e+02   -3.9783100128e+01
    2.8570812988e+02   -3.9705200195e+01
    2.8580816650e+02   -3.9627101898e+01
    2.8590820312e+02   -3.9548801422e+01
    2.8600808716e+02   -3.9470298767e+01
    2.8610812378e+02   -3.9391601562e+01
    2.8620819092e+02   -3.9312698364e+01
    2.8630807495e+02   -3.9233798981e+01
    2.8640814209e+02   -3.9154598236e+01
    2.8650811768e+02   -3.9075199127e+01
    2.8660821533e+02   -3.8995601654e+01
    2.8670816040e+02   -3.8916000366e+01
    2.8680810547e+02   -3.8836200714e+01
    2.8690811157e+02   -3.8756198883e+01
    2.8700823975e+02   -3.8675998688e+01
    2.8710812378e+02   -3.8595798492e+01
    2.8720831299e+02   -3.8515201569e+01
    2.8730813599e+02   -3.8434799194e+01
    2.8740826416e+02   -3.8354000092e+01
    2.8750827026e+02   -3.8273200989e+01
    2.8760830688e+02   -3.8192199707e+01
    2.8770831299e+02   -3.8111198425e+01
    2.8780819702e+02   -3.8030101776e+01
    2.8790817261e+02   -3.7948799133e+01
    2.8800817871e+02   -3.7867401123e+01
    2.8810827637e+02   -3.7785800934e+01
    2.8820828247e+02   -3.7704200745e+01
    2.8830838013e+02   -3.7622398376e+01
    2.8840823364e+02   -3.7540599823e+01
    2.8850827026e+02   -3.7458599091e+01
    2.8860827637e+02   -3.7376598358e+01
    2.8870831299e+02   -3.7294300079e+01
    2.8880825806e+02   -3.7212100983e+01
    2.8890832520e+02   -3.7129600525e+01
    2.8900827026e+02   -3.7047100067e+01
    2.8910833740e+02   -3.6964500427e+01
    2.8920825195e+02   -3.6881801605e+01
    2.8930825806e+02   -3.6798900604e+01
    2.8940841675e+02   -3.6715801239e+01
    2.8950833130e+02   -3.6632801056e+01
    2.8960839844e+02   -3.6549499512e+01
    2.8970828247e+02   -3.6466300964e+01
    2.8980831909e+02   -3.6382801056e+01
    2.8990841675e+02   -3.6299098969e+01
    2.9000833130e+02   -3.6215499878e+01
    2.9010845947e+02   -3.6131500244e+01
    2.9020843506e+02   -3.6047599792e+01
    2.9030847168e+02   -3.5963500977e+01
    2.9040838623e+02   -3.5879398346e+01
    2.9050848389e+02   -3.5794998169e+01
    2.9060845947e+02   -3.5710601807e+01
    2.9070843506e+02   -3.5625999451e+01
    2.9080838013e+02   -3.5541301727e+01
    2.9090835571e+02   -3.5456401825e+01
    2.9100851440e+02   -3.5371299744e+01
    2.9110842896e+02   -3.5286201477e+01
    2.9120840454e+02   -3.5200901031e+01
    2.9130838013e+02   -3.5115501404e+01
    2.9140838623e+02   -3.5029998779e+01
    2.9150845337e+02   -3.4944198608e+01
    2.9160852051e+02   -3.4858398438e+01
    2.9170846558e+02   -3.4772499084e+01
    2.9180841064e+02   -3.4686500549e+01
    2.9190859985e+02   -3.4600200653e+01
    2.9200854492e+02   -3.4513900757e+01
    2.9210852051e+02   -3.4427600861e+01
    2.9220852661e+02   -3.4341098785e+01
    2.9230856323e+02   -3.4254600525e+01
    2.9240853882e+02   -3.4167999268e+01
    2.9250845337e+02   -3.4081401825e+01
    2.9260861206e+02   -3.3994499207e+01
    2.9270852661e+02   -3.3907798767e+01
    2.9280850220e+02   -3.3820899963e+01
    2.9290863037e+02   -3.3733898163e+01
    2.9300863647e+02   -3.3646900177e+01
    2.9310848999e+02   -3.3560001373e+01
    2.9320867920e+02   -3.3472801208e+01
    2.9330856323e+02   -3.3385700226e+01
    2.9340866089e+02   -3.3298400879e+01
    2.9350866699e+02   -3.3211101532e+01
    2.9360870361e+02   -3.3123798370e+01
    2.9370852661e+02   -3.3036499023e+01
    2.9380868530e+02   -3.2948898315e+01
    2.9390859985e+02   -3.2861499786e+01
    2.9400869751e+02   -3.2773799896e+01
    2.9410864258e+02   -3.2686199188e+01
    2.9420855713e+02   -3.2598598480e+01
    2.9430871582e+02   -3.2510700226e+01
    2.9440866089e+02   -3.2422901154e+01
    2.9450857544e+02   -3.2335098267e+01
    2.9460870361e+02   -3.2247100830e+01
    2.9470864868e+02   -3.2159000397e+01
    2.9480862427e+02   -3.2070999146e+01
    2.9490875244e+02   -3.1982700348e+01
    2.9500869751e+02   -3.1894500732e+01
    2.9510861206e+02   -3.1806200027e+01
    2.9520874023e+02   -3.1717699051e+01
    2.9530871582e+02   -3.1629299164e+01
    2.9540863037e+02   -3.1540800095e+01
    2.9550878906e+02   -3.1452100754e+01
    2.9560879517e+02   -3.1363399506e+01
    2.9570867920e+02   -3.1274799347e+01
    2.9580868530e+02   -3.1186000824e+01
    2.9590869141e+02   -3.1097099304e+01
    2.9600875854e+02   -3.1008100510e+01
    2.9610876465e+02   -3.0919099808e+01
    2.9620880127e+02   -3.0829999924e+01
    2.9630871582e+02   -3.0740999222e+01
    2.9640875244e+02   -3.0651800156e+01
    2.9650878906e+02   -3.0562599182e+01
    2.9660876465e+02   -3.0473400116e+01
    2.9670877075e+02   -3.0384099960e+01
    2.9680871582e+02   -3.0294900894e+01
    2.9690887451e+02   -3.0205400467e+01
    2.9700878906e+02   -3.0116100311e+01
    2.9710885620e+02   -3.0026699066e+01
    2.9720889282e+02   -2.9937200546e+01
    2.9730880737e+02   -2.9847900391e+01
    2.9740875244e+02   -2.9758499146e+01
    2.9750881958e+02   -2.9669000626e+01
    2.9760879517e+02   -2.9579599380e+01
    2.9770889282e+02   -2.9489999771e+01
    2.9780877686e+02   -2.9400699615e+01
    2.9790890503e+02   -2.9311100006e+01
    2.9800891113e+02   -2.9221700668e+01
    2.9810891724e+02   -2.9132299423e+01
    2.9820892334e+02   -2.9042900085e+01
    2.9830892944e+02   -2.8953500748e+01
    2.9840884399e+02   -2.8864200592e+01
    2.9850885010e+02   -2.8774799347e+01
    2.9860888672e+02   -2.8685499191e+01
    2.9870883179e+02   -2.8596200943e+01
    2.9880895996e+02   -2.8506799698e+01
    2.9890896606e+02   -2.8417499542e+01
    2.9900885010e+02   -2.8328399658e+01
    2.9910894775e+02   -2.8239099503e+01
    2.9920889282e+02   -2.8149900436e+01
    2.9930886841e+02   -2.8060699463e+01
    2.9940902710e+02   -2.7971399307e+01
    2.9950897217e+02   -2.7882299423e+01
    2.9960900879e+02   -2.7793100357e+01
    2.9970898438e+02   -2.7703899384e+01
    2.9980889893e+02   -2.7614799500e+01
    2.9990905762e+02   -2.7525600433e+01
endcurve
