Curveplot
LS-DYNA keyword deck by LS-PrePost
Abscissa
Ordinate
XY data
CHOP_EAMX_mo-1 #pts=3000
* Minval=     0.0000000000e+00 at time=         0.0000000000
* Maxval=     8.7930984497e+01 at time=       232.5048370361
    0.0000000000e+00    0.0000000000e+00
    9.9978484213e-02    1.5629599802e-03
    1.9996924698e-01    3.1261199620e-03
    2.9999575019e-01    4.6898298897e-03
    3.9998039603e-01    6.2528895214e-03
    4.9986803532e-01    7.8144390136e-03
    5.9991192818e-01    9.3784201890e-03
    6.9995886087e-01    1.0942501016e-02
    7.9993838072e-01    1.2505403720e-02
    8.9995062351e-01    1.4068913646e-02
    9.9992913008e-01    1.5631914139e-02
    1.0998107195e+00    1.7193295062e-02
    1.1999957561e+00    1.8759494647e-02
    1.2999640703e+00    2.0322281867e-02
    1.3998620510e+00    2.1884020418e-02
    1.4998643398e+00    2.3447439075e-02
    1.5998389721e+00    2.5010393932e-02
    1.6999863386e+00    2.6576003060e-02
    1.7999671698e+00    2.8138956055e-02
    1.8999462128e+00    2.9701942578e-02
    1.9998190403e+00    3.1263258308e-02
    2.0998318195e+00    3.2827038318e-02
    2.1999120712e+00    3.4391991794e-02
    2.2999908924e+00    3.5957321525e-02
    2.3999950886e+00    3.7521176040e-02
    2.4998490810e+00    3.9082393050e-02
    2.5998566151e+00    4.0645442903e-02
    2.6998775005e+00    4.2208001018e-02
    2.7998862267e+00    4.3769896030e-02
    2.8999786377e+00    4.5333050191e-02
    2.9999771118e+00    4.6894814819e-02
    3.0998694897e+00    4.8455543816e-02
    3.1999659538e+00    5.0020314753e-02
    3.2999231815e+00    5.1583897322e-02
    3.3999369144e+00    5.3149897605e-02
    3.4999270439e+00    5.4716996849e-02
    3.5999314785e+00    5.6285869330e-02
    3.6998090744e+00    5.7854119688e-02
    3.7998888493e+00    5.9426929802e-02
    3.8999800682e+00    6.1000678688e-02
    3.9999651909e+00    6.2573507428e-02
    4.0998544693e+00    6.4145296812e-02
    4.1999692917e+00    6.5720751882e-02
    4.2999444008e+00    6.7293874919e-02
    4.3998169899e+00    6.8864844739e-02
    4.4998965263e+00    7.0438720286e-02
    4.5998468399e+00    7.2009623051e-02
    4.6999955177e+00    7.3582924902e-02
    4.7999196053e+00    7.5151436031e-02
    4.8998670578e+00    7.6719254255e-02
    4.9999299049e+00    7.8287355602e-02
    5.0999426842e+00    7.9853430390e-02
    5.1999893188e+00    8.1418558955e-02
    5.2999830246e+00    8.2981534302e-02
    5.3998517990e+00    8.4541141987e-02
    5.4999961853e+00    8.6103655398e-02
    5.5998907089e+00    8.7661184371e-02
    5.6999425888e+00    8.9219741523e-02
    5.7998881340e+00    9.0775482357e-02
    5.8998928070e+00    9.2330954969e-02
    5.9999957085e+00    9.3887165189e-02
    6.0998554230e+00    9.5438390970e-02
    6.1999573708e+00    9.6992768347e-02
    6.2999229431e+00    9.8543889821e-02
    6.3998460770e+00    1.0009390116e-01
    6.4999690056e+00    1.0164569318e-01
    6.5999045372e+00    1.0319399834e-01
    6.6998834610e+00    1.0474266857e-01
    6.7999844551e+00    1.0629298538e-01
    6.8999052048e+00    1.0784005374e-01
    6.9999651909e+00    1.0938869417e-01
    7.0999860764e+00    1.1093728244e-01
    7.1998958588e+00    1.1248336732e-01
    7.2998194695e+00    1.1402960122e-01
    7.3999600410e+00    1.1557945609e-01
    7.4999413490e+00    1.1712664366e-01
    7.5999202728e+00    1.1867361516e-01
    7.6998214722e+00    1.2021888047e-01
    7.7999825478e+00    1.2176906317e-01
    7.8999524117e+00    1.2331648916e-01
    7.9999160767e+00    1.2486419082e-01
    8.0999364853e+00    1.2641192973e-01
    8.1998634338e+00    1.2795904279e-01
    8.2999658585e+00    1.2950876355e-01
    8.3998365402e+00    1.3105565310e-01
    8.4998741150e+00    1.3260374963e-01
    8.5998420715e+00    1.3414967060e-01
    8.6999721527e+00    1.3569870591e-01
    8.7998924255e+00    1.3724346459e-01
    8.8998708725e+00    1.3878850639e-01
    8.9999132156e+00    1.4033420384e-01
    9.0998907089e+00    1.4187887311e-01
    9.1998729706e+00    1.4342366159e-01
    9.2999591827e+00    1.4496998489e-01
    9.3998889923e+00    1.4651443064e-01
    9.4999914169e+00    1.4806242287e-01
    9.5999307632e+00    1.4960823953e-01
    9.6998796463e+00    1.5115344524e-01
    9.7998456955e+00    1.5269920230e-01
    9.8998899460e+00    1.5424603224e-01
    9.9998445511e+00    1.5579116344e-01
    1.0099917412e+01    1.5982383490e-01
    1.0199895859e+01    1.6385571659e-01
    1.0299830437e+01    1.6788573563e-01
    1.0399949074e+01    1.7192170024e-01
    1.0499876022e+01    1.7594826221e-01
    1.0599975586e+01    1.7998166382e-01
    1.0699978828e+01    1.8400841951e-01
    1.0799916267e+01    1.8803195655e-01
    1.0899959564e+01    1.9205747545e-01
    1.0999827385e+01    1.9607461989e-01
    1.1099987030e+01    2.0010176301e-01
    1.1199858665e+01    2.0411564410e-01
    1.1299838066e+01    2.0813198388e-01
    1.1399964333e+01    2.1215400100e-01
    1.1499829292e+01    2.1616387367e-01
    1.1599967957e+01    2.2018241882e-01
    1.1699872971e+01    2.2419223189e-01
    1.1799877167e+01    2.2820393741e-01
    1.1899894714e+01    2.3221637309e-01
    1.1999987602e+01    2.3623131216e-01
    1.2099980354e+01    2.4024260044e-01
    1.2199988365e+01    2.4425473809e-01
    1.2299961090e+01    2.4826508760e-01
    1.2399939537e+01    2.5227576494e-01
    1.2499855042e+01    2.5628250837e-01
    1.2599958420e+01    2.6029473543e-01
    1.2699847221e+01    2.6429748535e-01
    1.2799872398e+01    2.6830413938e-01
    1.2899971962e+01    2.7231368423e-01
    1.2999979019e+01    2.7631801367e-01
    1.3099848747e+01    2.8031700850e-01
    1.3199970245e+01    2.8432637453e-01
    1.3299947739e+01    2.8833091259e-01
    1.3399851799e+01    2.9233238101e-01
    1.3500013351e+01    2.9634547234e-01
    1.3599904060e+01    3.0034869909e-01
    1.3699869156e+01    3.0435571074e-01
    1.3799922943e+01    3.0836611986e-01
    1.3899854660e+01    3.1237280369e-01
    1.3999905586e+01    3.1638285518e-01
    1.4099831581e+01    3.2038730383e-01
    1.4199877739e+01    3.2439592481e-01
    1.4299827576e+01    3.2839763165e-01
    1.4399900436e+01    3.3240130544e-01
    1.4499928474e+01    3.3640104532e-01
    1.4599974632e+01    3.4039708972e-01
    1.4699851036e+01    3.4438261390e-01
    1.4799844742e+01    3.4836891294e-01
    1.4899865150e+01    3.5235208273e-01
    1.4999941826e+01    3.5633400083e-01
    1.5099879265e+01    3.6030489206e-01
    1.5200014114e+01    3.6428090930e-01
    1.5299992561e+01    3.6824744940e-01
    1.5399872780e+01    3.7220615149e-01
    1.5499929428e+01    3.7616956234e-01
    1.5599972725e+01    3.8012948632e-01
    1.5699997902e+01    3.8408559561e-01
    1.5800017357e+01    3.8803943992e-01
    1.5900013924e+01    3.9198991656e-01
    1.5999876976e+01    3.9593386650e-01
    1.6099855423e+01    3.9987975359e-01
    1.6199890137e+01    4.0382674336e-01
    1.6299869537e+01    4.0776988864e-01
    1.6399835587e+01    4.1170921922e-01
    1.6499855042e+01    4.1565084457e-01
    1.6599964142e+01    4.1959267855e-01
    1.6699871063e+01    4.2352622747e-01
    1.6799943924e+01    4.2746403813e-01
    1.6899995804e+01    4.3140056729e-01
    1.7000028610e+01    4.3533363938e-01
    1.7099853516e+01    4.3925774097e-01
    1.7200014114e+01    4.4319385290e-01
    1.7299926758e+01    4.4711914659e-01
    1.7399890900e+01    4.5104515553e-01
    1.7499887466e+01    4.5497131348e-01
    1.7599851608e+01    4.5889583230e-01
    1.7699928284e+01    4.6282374859e-01
    1.7799875259e+01    4.6674659848e-01
    1.7899969101e+01    4.7067505121e-01
    1.8000001907e+01    4.7460156679e-01
    1.8099843979e+01    4.7852021456e-01
    1.8199890137e+01    4.8244646192e-01
    1.8299907684e+01    4.8637109995e-01
    1.8400011063e+01    4.9029880762e-01
    1.8499933243e+01    4.9421721697e-01
    1.8599889755e+01    4.9813491106e-01
    1.8699989319e+01    5.0205701590e-01
    1.8799970627e+01    5.0597101450e-01
    1.8899879456e+01    5.0988060236e-01
    1.8999954224e+01    5.1379364729e-01
    1.9099882126e+01    5.1769953966e-01
    1.9200035095e+01    5.2161109447e-01
    1.9299968719e+01    5.2551299334e-01
    1.9399879456e+01    5.2941066027e-01
    1.9500013351e+01    5.3331577778e-01
    1.9600021362e+01    5.3721356392e-01
    1.9700002670e+01    5.4110717773e-01
    1.9799850464e+01    5.4499334097e-01
    1.9900026321e+01    5.4889059067e-01
    1.9999965668e+01    5.5277556181e-01
    2.0100011826e+01    5.5935359001e-01
    2.0199968338e+01    5.6592255831e-01
    2.0299972534e+01    5.7249200344e-01
    2.0399957657e+01    5.7905673981e-01
    2.0499944687e+01    5.8561754227e-01
    2.0599990845e+01    5.9217840433e-01
    2.0699962616e+01    5.9873008728e-01
    2.0799880981e+01    6.0527402163e-01
    2.0899950027e+01    6.1182415485e-01
    2.0999872208e+01    6.1835980415e-01
    2.1099952698e+01    6.2490302324e-01
    2.1200006485e+01    6.3143980503e-01
    2.1299985886e+01    6.3796859980e-01
    2.1399873734e+01    6.4448976517e-01
    2.1500017166e+01    6.5102410316e-01
    2.1599948883e+01    6.5754240751e-01
    2.1699882507e+01    6.6405981779e-01
    2.1800001144e+01    6.7058569193e-01
    2.1900007248e+01    6.7710435390e-01
    2.2000038147e+01    6.8362182379e-01
    2.2100044250e+01    6.9013857841e-01
    2.2200023651e+01    6.9665127993e-01
    2.2299959183e+01    7.0316112041e-01
    2.2399948120e+01    7.0967185497e-01
    2.2499948502e+01    7.1618020535e-01
    2.2599941254e+01    7.2268652916e-01
    2.2699945450e+01    7.2918957472e-01
    2.2799953461e+01    7.3568940163e-01
    2.2899995804e+01    7.4218904972e-01
    2.2999944687e+01    7.4867910147e-01
    2.3099952698e+01    7.5517022610e-01
    2.3200033188e+01    7.6166468859e-01
    2.3299945831e+01    7.6814514399e-01
    2.3400026321e+01    7.7463388443e-01
    2.3499912262e+01    7.8110826015e-01
    2.3599893570e+01    7.8758788109e-01
    2.3699974060e+01    7.9407155514e-01
    2.3799993515e+01    8.0054938793e-01
    2.3900035858e+01    8.0702710152e-01
    2.3999940872e+01    8.1349259615e-01
    2.4100013733e+01    8.1996679306e-01
    2.4200021744e+01    8.2643270493e-01
    2.4299985886e+01    8.3289188147e-01
    2.4399887085e+01    8.3934372663e-01
    2.4500038147e+01    8.4580588341e-01
    2.4600051880e+01    8.5225272179e-01
    2.4699977875e+01    8.5868889093e-01
    2.4799957275e+01    8.6512124538e-01
    2.4899955750e+01    8.7154877186e-01
    2.4999996185e+01    8.7797242403e-01
    2.5099960327e+01    8.8438332081e-01
    2.5200010300e+01    8.9079368114e-01
    2.5299911499e+01    8.9718842506e-01
    2.5400011063e+01    9.0359121561e-01
    2.5500036240e+01    9.0998286009e-01
    2.5599990845e+01    9.1636633873e-01
    2.5700033188e+01    9.2275077105e-01
    2.5800006866e+01    9.2912656069e-01
    2.5899984360e+01    9.3549877405e-01
    2.5999898911e+01    9.4186395407e-01
    2.6100059509e+01    9.4824206829e-01
    2.6199945450e+01    9.5459920168e-01
    2.6299913406e+01    9.6095782518e-01
    2.6400053024e+01    9.6732527018e-01
    2.6500009537e+01    9.7367614508e-01
    2.6599924088e+01    9.8002648354e-01
    2.6700000763e+01    9.8637002707e-01
    2.6799907684e+01    9.9271082878e-01
    2.6899971008e+01    9.9905753136e-01
    2.6999950409e+01    1.0053908825e+00
    2.7099922180e+01    1.0117207766e+00
    2.7199901581e+01    1.0180567503e+00
    2.7299985886e+01    1.0243887901e+00
    2.7400024414e+01    1.0307077169e+00
    2.7499940872e+01    1.0370240211e+00
    2.7599908829e+01    1.0433372259e+00
    2.7699993134e+01    1.0496568680e+00
    2.7799991608e+01    1.0559741259e+00
    2.7899969101e+01    1.0622787476e+00
    2.7999910355e+01    1.0685808659e+00
    2.8100070953e+01    1.0748890638e+00
    2.8199888229e+01    1.0811758041e+00
    2.8300001144e+01    1.0874876976e+00
    2.8399957657e+01    1.0937761068e+00
    2.8500013351e+01    1.1000595093e+00
    2.8599887848e+01    1.1063381433e+00
    2.8700056076e+01    1.1126197577e+00
    2.8800052643e+01    1.1188960075e+00
    2.8899902344e+01    1.1251467466e+00
    2.9000049591e+01    1.1314195395e+00
    2.9100034714e+01    1.1376672983e+00
    2.9199886322e+01    1.1438989639e+00
    2.9299921036e+01    1.1501438618e+00
    2.9399984360e+01    1.1563823223e+00
    2.9499942780e+01    1.1626048088e+00
    2.9599922180e+01    1.1688210964e+00
    2.9700008392e+01    1.1750404835e+00
    2.9800031662e+01    1.1812446117e+00
    2.9900030136e+01    1.1874535084e+00
    2.9999967575e+01    1.1936476231e+00
    3.0099981308e+01    1.2058264017e+00
    3.0200014114e+01    1.2180000544e+00
    3.0299978256e+01    1.2301589251e+00
    3.0400070190e+01    1.2423322201e+00
    3.0499954224e+01    1.2544708252e+00
    3.0600019455e+01    1.2666330338e+00
    3.0699998856e+01    1.2787697315e+00
    3.0799953461e+01    1.2909108400e+00
    3.0899932861e+01    1.3030353785e+00
    3.1000024796e+01    1.3151730299e+00
    3.1099931717e+01    1.3272852898e+00
    3.1200069427e+01    1.3394100666e+00
    3.1299940109e+01    1.3515009880e+00
    3.1400039673e+01    1.3636249304e+00
    3.1500070572e+01    1.3757243156e+00
    3.1600055695e+01    1.3878087997e+00
    3.1699979782e+01    1.3998888731e+00
    3.1799968719e+01    1.4119737148e+00
    3.1900081635e+01    1.4240640402e+00
    3.2000061035e+01    1.4361416101e+00
    3.2100006104e+01    1.4482067823e+00
    3.2200061798e+01    1.4602785110e+00
    3.2300071716e+01    1.4723472595e+00
    3.2400058746e+01    1.4844117165e+00
    3.2499992371e+01    1.4964598417e+00
    3.2599975586e+01    1.5085004568e+00
    3.2700008392e+01    1.5205428600e+00
    3.2800052643e+01    1.5325881243e+00
    3.2899879456e+01    1.5445880890e+00
    3.2999992371e+01    1.5566304922e+00
    3.3099994659e+01    1.5686380863e+00
    3.3199977875e+01    1.5806515217e+00
    3.3300010681e+01    1.5926604271e+00
    3.3399940491e+01    1.6046570539e+00
    3.3499900818e+01    1.6166511774e+00
    3.3599880219e+01    1.6286530495e+00
    3.3700042725e+01    1.6406713724e+00
    3.3800014496e+01    1.6526582241e+00
    3.3899890900e+01    1.6646322012e+00
    3.3999885559e+01    1.6766209602e+00
    3.4099937439e+01    1.6886140108e+00
    3.4200042725e+01    1.7006005049e+00
    3.4299919128e+01    1.7125513554e+00
    3.4399944305e+01    1.7245124578e+00
    3.4499904633e+01    1.7364549637e+00
    3.4600013733e+01    1.7484056950e+00
    3.4699981689e+01    1.7603366375e+00
    3.4799942017e+01    1.7722456455e+00
    3.4900001526e+01    1.7841613293e+00
    3.4999969482e+01    1.7960450649e+00
    3.5099998474e+01    1.8079251051e+00
    3.5199962616e+01    1.8197929859e+00
    3.5299983978e+01    1.8316477537e+00
    3.5399917603e+01    1.8434817791e+00
    3.5499847412e+01    1.8552943468e+00
    3.5599887848e+01    1.8671247959e+00
    3.5699939728e+01    1.8789346218e+00
    3.5799953461e+01    1.8907347918e+00
    3.5899932861e+01    1.9025266171e+00
    3.5999992371e+01    1.9143096209e+00
    3.6099975586e+01    1.9260859489e+00
    3.6199939728e+01    1.9378446341e+00
    3.6299869537e+01    1.9495964050e+00
    3.6399940491e+01    1.9613585472e+00
    3.6499851227e+01    1.9730849266e+00
    3.6599891663e+01    1.9848321676e+00
    3.6700000763e+01    1.9965714216e+00
    3.6799980164e+01    2.0082840919e+00
    3.6899845123e+01    2.0199906826e+00
    3.6999824524e+01    2.0316882133e+00
    3.7099853516e+01    2.0433871746e+00
    3.7199901581e+01    2.0550868511e+00
    3.7299938202e+01    2.0667684078e+00
    3.7399818420e+01    2.0784230232e+00
    3.7499870300e+01    2.0900981426e+00
    3.7599861145e+01    2.1017458439e+00
    3.7699840546e+01    2.1133971214e+00
    3.7799888611e+01    2.1250388622e+00
    3.7899879456e+01    2.1366760731e+00
    3.7999980927e+01    2.1483139992e+00
    3.8099960327e+01    2.1599271297e+00
    3.8199806213e+01    2.1715250015e+00
    3.8299964905e+01    2.1831510067e+00
    3.8399871826e+01    2.1947419643e+00
    3.8499839783e+01    2.2063231468e+00
    3.8599876404e+01    2.2179038525e+00
    3.8699844360e+01    2.2294750214e+00
    3.8799907684e+01    2.2410340309e+00
    3.8899879456e+01    2.2525830269e+00
    3.8999782562e+01    2.2641038895e+00
    3.9099800110e+01    2.2756340504e+00
    3.9199962616e+01    2.2871730328e+00
    3.9299812317e+01    2.2986669540e+00
    3.9399856567e+01    2.3101708889e+00
    3.9499813080e+01    2.3216660023e+00
    3.9599784851e+01    2.3331429958e+00
    3.9699935913e+01    2.3446381092e+00
    3.9799903870e+01    2.3560957909e+00
    3.9899955750e+01    2.3675651550e+00
    3.9999843597e+01    2.3789978027e+00
    4.0099822998e+01    2.3982100487e+00
    4.0199943542e+01    2.4174511433e+00
    4.0299949646e+01    2.4366650581e+00
    4.0399887085e+01    2.4558489323e+00
    4.0499950409e+01    2.4750499725e+00
    4.0599899292e+01    2.4942128658e+00
    4.0699825287e+01    2.5133738518e+00
    4.0799785614e+01    2.5325131416e+00
    4.0899852753e+01    2.5516669750e+00
    4.0999790192e+01    2.5707900524e+00
    4.1099807739e+01    2.5899090767e+00
    4.1199913025e+01    2.6090230942e+00
    4.1299823761e+01    2.6280980110e+00
    4.1399814606e+01    2.6471679211e+00
    4.1499797821e+01    2.6662361622e+00
    4.1599777222e+01    2.6852829456e+00
    4.1699829102e+01    2.7043371201e+00
    4.1799785614e+01    2.7233519554e+00
    4.1899822235e+01    2.7423870564e+00
    4.1999851227e+01    2.7614028454e+00
    4.2099796295e+01    2.7803938389e+00
    4.2199840546e+01    2.7994060516e+00
    4.2299900055e+01    2.8184010983e+00
    4.2399879456e+01    2.8373880386e+00
    4.2499862671e+01    2.8563530445e+00
    4.2599845886e+01    2.8753049374e+00
    4.2699893951e+01    2.8942618370e+00
    4.2799880981e+01    2.9131870270e+00
    4.2899799347e+01    2.9320900440e+00
    4.2999855042e+01    2.9510090351e+00
    4.3099834442e+01    2.9698979855e+00
    4.3199901581e+01    2.9887950420e+00
    4.3299850464e+01    3.0076529980e+00
    4.3399879456e+01    3.0265300274e+00
    4.3499858856e+01    3.0453789234e+00
    4.3599857330e+01    3.0642189980e+00
    4.3699840546e+01    3.0830521584e+00
    4.3799884796e+01    3.1018941402e+00
    4.3899826050e+01    3.1206989288e+00
    4.3999813080e+01    3.1395108700e+00
    4.4099761963e+01    3.1582930088e+00
    4.4199886322e+01    3.1770968437e+00
    4.4299701691e+01    3.1958320141e+00
    4.4399765015e+01    3.2145950794e+00
    4.4499809265e+01    3.2333409786e+00
    4.4599834442e+01    3.2520580292e+00
    4.4699874878e+01    3.2707550526e+00
    4.4799819946e+01    3.2894229889e+00
    4.4899723053e+01    3.3080492020e+00
    4.4999832153e+01    3.3267011642e+00
    4.5099697113e+01    3.3452849388e+00
    4.5199726105e+01    3.3638739586e+00
    4.5299709320e+01    3.3824348450e+00
    4.5399730682e+01    3.4009859562e+00
    4.5499698639e+01    3.4195098877e+00
    4.5599845886e+01    3.4380528927e+00
    4.5699741364e+01    3.4565231800e+00
    4.5799777985e+01    3.4750139713e+00
    4.5899734497e+01    3.4934611320e+00
    4.5999744415e+01    3.5119130611e+00
    4.6099739075e+01    3.5303509235e+00
    4.6199718475e+01    3.5487649441e+00
    4.6299686432e+01    3.5671660900e+00
    4.6399845123e+01    3.5855867863e+00
    4.6499759674e+01    3.6039400101e+00
    4.6599739075e+01    3.6223070621e+00
    4.6699840546e+01    3.6406669617e+00
    4.6799747467e+01    3.6589870453e+00
    4.6899761200e+01    3.6773109436e+00
    4.6999816895e+01    3.6956198215e+00
    4.7099716187e+01    3.7138960361e+00
    4.7199798584e+01    3.7321829796e+00
    4.7299846649e+01    3.7504551411e+00
    4.7399768829e+01    3.7686853409e+00
    4.7499748230e+01    3.7869088650e+00
    4.7599758148e+01    3.8051280975e+00
    4.7699684143e+01    3.8233158588e+00
    4.7799720764e+01    3.8415081501e+00
    4.7899700165e+01    3.8596787453e+00
    4.7999774933e+01    3.8778669834e+00
    4.8099674225e+01    3.8959972858e+00
    4.8199775696e+01    3.9141609669e+00
    4.8299728394e+01    3.9322762489e+00
    4.8399703979e+01    3.9503870010e+00
    4.8499652863e+01    3.9684851170e+00
    4.8599742889e+01    3.9865827560e+00
    4.8699649811e+01    4.0046381950e+00
    4.8799812317e+01    4.0227189064e+00
    4.8899719238e+01    4.0407390594e+00
    4.8999767303e+01    4.0587582588e+00
    4.9099670410e+01    4.0767416954e+00
    4.9199680328e+01    4.0947270393e+00
    4.9299663544e+01    4.1126847267e+00
    4.9399784088e+01    4.1306519508e+00
    4.9499763489e+01    4.1485729218e+00
    4.9599636078e+01    4.1664581299e+00
    4.9699626923e+01    4.1843509674e+00
    4.9799770355e+01    4.2022418976e+00
    4.9899654388e+01    4.2200708389e+00
    4.9999687195e+01    4.2379179001e+00
    5.0099800110e+01    4.2653341293e+00
    5.0199783325e+01    4.2927250862e+00
    5.0299636841e+01    4.3200588226e+00
    5.0399639130e+01    4.3474097252e+00
    5.0499668121e+01    4.3747591972e+00
    5.0599700928e+01    4.4020881653e+00
    5.0699737549e+01    4.4293851852e+00
    5.0799652100e+01    4.4566326141e+00
    5.0899642944e+01    4.4838862419e+00
    5.0999744415e+01    4.5111331940e+00
    5.1099723816e+01    4.5383300781e+00
    5.1199726105e+01    4.5655140877e+00
    5.1299755096e+01    4.5926856995e+00
    5.1399738312e+01    4.6198081970e+00
    5.1499713898e+01    4.6469211578e+00
    5.1599689484e+01    4.6740131378e+00
    5.1699775696e+01    4.7011117935e+00
    5.1799686432e+01    4.7281479836e+00
    5.1899726868e+01    4.7552032471e+00
    5.1999675751e+01    4.7822141647e+00
    5.2099670410e+01    4.8092279434e+00
    5.2199581146e+01    4.8362011909e+00
    5.2299602509e+01    4.8631839752e+00
    5.2399597168e+01    4.8901400566e+00
    5.2499652863e+01    4.9171037674e+00
    5.2599655151e+01    4.9440178871e+00
    5.2699722290e+01    4.9709372520e+00
    5.2799743652e+01    4.9978141785e+00
    5.2899757385e+01    5.0246710777e+00
    5.2999633789e+01    5.0514698029e+00
    5.3099700928e+01    5.0783033371e+00
    5.3199680328e+01    5.1050891876e+00
    5.3299678802e+01    5.1318550110e+00
    5.3399677277e+01    5.1586108208e+00
    5.3499660492e+01    5.1853413582e+00
    5.3599674225e+01    5.2120642662e+00
    5.3699611664e+01    5.2387418747e+00
    5.3799594879e+01    5.2654218674e+00
    5.3899608612e+01    5.2921028137e+00
    5.3999633789e+01    5.3187541962e+00
    5.4099571228e+01    5.3453688622e+00
    5.4199718475e+01    5.3720149994e+00
    5.4299598694e+01    5.3985667229e+00
    5.4399581909e+01    5.4251213074e+00
    5.4499683380e+01    5.4516739845e+00
    5.4599693298e+01    5.4781818390e+00
    5.4699703217e+01    5.5046610832e+00
    5.4799686432e+01    5.5311002731e+00
    5.4899551392e+01    5.5574798584e+00
    5.4999729156e+01    5.5839071274e+00
    5.5099594116e+01    5.6102108955e+00
    5.5199577332e+01    5.6365184784e+00
    5.5299697876e+01    5.6628379822e+00
    5.5399623871e+01    5.6890649796e+00
    5.5499610901e+01    5.7152800560e+00
    5.5599674225e+01    5.7414927483e+00
    5.5699680328e+01    5.7676491737e+00
    5.5799659729e+01    5.7937788963e+00
    5.5899597168e+01    5.8198747635e+00
    5.5999679565e+01    5.8459806442e+00
    5.6099685669e+01    5.8720469475e+00
    5.6199665070e+01    5.8980798721e+00
    5.6299633026e+01    5.9240899086e+00
    5.6399654388e+01    5.9500827789e+00
    5.6499568939e+01    5.9760260582e+00
    5.6599548340e+01    6.0019621849e+00
    5.6699527740e+01    6.0278739929e+00
    5.6799667358e+01    6.0538058281e+00
    5.6899524689e+01    6.0796346664e+00
    5.6999530792e+01    6.1054840088e+00
    5.7099624634e+01    6.1313252449e+00
    5.7199695587e+01    6.1571397781e+00
    5.7299674988e+01    6.1829037666e+00
    5.7399620056e+01    6.2086343765e+00
    5.7499599457e+01    6.2343492508e+00
    5.7599651337e+01    6.2600569725e+00
    5.7699665070e+01    6.2857327461e+00
    5.7799533844e+01    6.3113532066e+00
    5.7899673462e+01    6.3370070457e+00
    5.7999649048e+01    6.3626060486e+00
    5.8099586487e+01    6.3881740570e+00
    5.8199554443e+01    6.4137268066e+00
    5.8299617767e+01    6.4392709732e+00
    5.8399524689e+01    6.4647569656e+00
    5.8499504089e+01    6.4902319908e+00
    5.8599559784e+01    6.5156936646e+00
    5.8699535370e+01    6.5411100388e+00
    5.8799613953e+01    6.5665202141e+00
    5.8899623871e+01    6.5918817520e+00
    5.8999477386e+01    6.6171708107e+00
    5.9099517822e+01    6.6424803734e+00
    5.9199573517e+01    6.6677570343e+00
    5.9299556732e+01    6.6929869652e+00
    5.9399486542e+01    6.7181777954e+00
    5.9499645233e+01    6.7433848381e+00
    5.9599590302e+01    6.7685103416e+00
    5.9699569702e+01    6.7936110497e+00
    5.9799636841e+01    6.8187069893e+00
    5.9899551392e+01    6.8437299728e+00
    5.9999645233e+01    6.8687639236e+00
    6.0099468231e+01    6.9048719406e+00
    6.0199592590e+01    6.9411039352e+00
    6.0299575806e+01    6.9772539139e+00
    6.0399642944e+01    7.0133981705e+00
    6.0499549866e+01    7.0494499207e+00
    6.0599517822e+01    7.0854969025e+00
    6.0699520111e+01    7.1215300560e+00
    6.0799533844e+01    7.1575288773e+00
    6.0899536133e+01    7.1934838295e+00
    6.0999496460e+01    7.2293958664e+00
    6.1099483490e+01    7.2652812004e+00
    6.1199604034e+01    7.3011736870e+00
    6.1299476624e+01    7.3369460106e+00
    6.1399471283e+01    7.3727288246e+00
    6.1499443054e+01    7.4084787369e+00
    6.1599449158e+01    7.4441957474e+00
    6.1699600220e+01    7.4799408913e+00
    6.1799488068e+01    7.5155620575e+00
    6.1899497986e+01    7.5511960983e+00
    6.1999511719e+01    7.5867929459e+00
    6.2099464417e+01    7.6223573685e+00
    6.2199523926e+01    7.6579308510e+00
    6.2299541473e+01    7.6934604645e+00
    6.2399467468e+01    7.7289266586e+00
    6.2499496460e+01    7.7644052505e+00
    6.2599449158e+01    7.7998142242e+00
    6.2699546814e+01    7.8352499008e+00
    6.2799457550e+01    7.8705716133e+00
    6.2899532318e+01    7.9059314728e+00
    6.2999561310e+01    7.9412298203e+00
    6.3099445343e+01    7.9764556885e+00
    6.3199539185e+01    8.0117149353e+00
    6.3299545288e+01    8.0469188690e+00
    6.3399459839e+01    8.0820560455e+00
    6.3499477386e+01    8.1171979904e+00
    6.3599533081e+01    8.1523275375e+00
    6.3699436188e+01    8.1873655319e+00
    6.3799537659e+01    8.2224521637e+00
    6.3899562836e+01    8.2574710846e+00
    6.3999431610e+01    8.2924060822e+00
    6.4099449158e+01    8.3273582458e+00
    6.4199501038e+01    8.3622894287e+00
    6.4299415588e+01    8.3971309662e+00
    6.4399398804e+01    8.4319486618e+00
    6.4499427795e+01    8.4667491913e+00
    6.4599411011e+01    8.5014905930e+00
    6.4699394226e+01    8.5361738205e+00
    6.4799568176e+01    8.5708875656e+00
    6.4899505615e+01    8.6054697037e+00
    6.4999435425e+01    8.6399898529e+00
    6.5099441528e+01    8.6745004654e+00
    6.5199424744e+01    8.7089290619e+00
    6.5299415588e+01    8.7433300018e+00
    6.5399536133e+01    8.7777404785e+00
    6.5499519348e+01    8.8120498657e+00
    6.5599540710e+01    8.8463096619e+00
    6.5699539185e+01    8.8805303574e+00
    6.5799514771e+01    8.9146995544e+00
    6.5899398804e+01    8.9488391876e+00
    6.5999389648e+01    8.9829006195e+00
    6.6099456787e+01    9.0170106888e+00
    6.6199440002e+01    9.0509901047e+00
    6.6299430847e+01    9.0849399567e+00
    6.6399482727e+01    9.1189403534e+00
    6.6499389648e+01    9.1528100967e+00
    6.6599426270e+01    9.1867399216e+00
    6.6699409485e+01    9.2205295563e+00
    6.6799476624e+01    9.2543792725e+00
    6.6899406433e+01    9.2881002426e+00
    6.6999465942e+01    9.3218708038e+00
    6.7099441528e+01    9.3555002213e+00
    6.7199424744e+01    9.3891000748e+00
    6.7299438477e+01    9.4227495193e+00
    6.7399421692e+01    9.4562597275e+00
    6.7499458313e+01    9.4898195267e+00
    6.7599433899e+01    9.5232505798e+00
    6.7699424744e+01    9.5567407608e+00
    6.7799461365e+01    9.5900802612e+00
    6.7899467468e+01    9.6234903336e+00
    6.7999359131e+01    9.6567697525e+00
    6.8099525452e+01    9.6900901794e+00
    6.8199394226e+01    9.7232999802e+00
    6.8299407959e+01    9.7564496994e+00
    6.8399345398e+01    9.7895698547e+00
    6.8499488831e+01    9.8227300644e+00
    6.8599494934e+01    9.8558597565e+00
    6.8699501038e+01    9.8888397217e+00
    6.8799339294e+01    9.9217901230e+00
    6.8899345398e+01    9.9547796249e+00
    6.8999336243e+01    9.9876298904e+00
    6.9099502563e+01    1.0020509720e+01
    6.9199333191e+01    1.0053279877e+01
    6.9299377441e+01    1.0085989952e+01
    6.9399383545e+01    1.0118750572e+01
    6.9499328613e+01    1.0151370049e+01
    6.9599357605e+01    1.0184029579e+01
    6.9699394226e+01    1.0216549873e+01
    6.9799430847e+01    1.0249119759e+01
    6.9899436951e+01    1.0281549454e+01
    6.9999435425e+01    1.0314030647e+01
    7.0099365234e+01    1.0357370377e+01
    7.0199470520e+01    1.0400859833e+01
    7.0299362183e+01    1.0444210052e+01
    7.0399459839e+01    1.0487600327e+01
    7.0499443054e+01    1.0530859947e+01
    7.0599479675e+01    1.0574160576e+01
    7.0699340820e+01    1.0617330551e+01
    7.0799301147e+01    1.0660439491e+01
    7.0899307251e+01    1.0703590393e+01
    7.0999343872e+01    1.0746580124e+01
    7.1099319458e+01    1.0789619446e+01
    7.1199356079e+01    1.0832480431e+01
    7.1299438477e+01    1.0875360489e+01
    7.1399398804e+01    1.0918089867e+01
    7.1499435425e+01    1.0960829735e+01
    7.1599418640e+01    1.1003410339e+01
    7.1699371338e+01    1.1045999527e+01
    7.1799430847e+01    1.1088409424e+01
    7.1899429321e+01    1.1130840302e+01
    7.1999305725e+01    1.1173110008e+01
    7.2099349976e+01    1.1215279579e+01
    7.2199432373e+01    1.1257470131e+01
    7.2299369812e+01    1.1299499512e+01
    7.2399299622e+01    1.1341549873e+01
    7.2499305725e+01    1.1383410454e+01
    7.2599281311e+01    1.1425199509e+01
    7.2699394226e+01    1.1467000008e+01
    7.2799407959e+01    1.1508729935e+01
    7.2899291992e+01    1.1550310135e+01
    7.2999389648e+01    1.1591890335e+01
    7.3099441528e+01    1.1633310318e+01
    7.3199356079e+01    1.1674679756e+01
    7.3299392700e+01    1.1716070175e+01
    7.3399269104e+01    1.1757320404e+01
    7.3499435425e+01    1.1798580170e+01
    7.3599441528e+01    1.1839799881e+01
    7.3699378967e+01    1.1880879402e+01
    7.3799293518e+01    1.1921899796e+01
    7.3899307251e+01    1.1962860107e+01
    7.3999328613e+01    1.2003859520e+01
    7.4099342346e+01    1.2044810295e+01
    7.4199409485e+01    1.2085590363e+01
    7.4299369812e+01    1.2126429558e+01
    7.4399391174e+01    1.2167099953e+01
    7.4499313354e+01    1.2207719803e+01
    7.4599296570e+01    1.2248379707e+01
    7.4699302673e+01    1.2288869858e+01
    7.4799324036e+01    1.2329400063e+01
    7.4899269104e+01    1.2369779587e+01
    7.4999366760e+01    1.2410170555e+01
    7.5099250793e+01    1.2450429916e+01
    7.5199249268e+01    1.2490619659e+01
    7.5299247742e+01    1.2530840874e+01
    7.5399375916e+01    1.2570990562e+01
    7.5499412537e+01    1.2610980034e+01
    7.5599327087e+01    1.2650939941e+01
    7.5699386597e+01    1.2690910339e+01
    7.5799270630e+01    1.2730730057e+01
    7.5899330139e+01    1.2770569801e+01
    7.5999244690e+01    1.2810260773e+01
    7.6099296570e+01    1.2849960327e+01
    7.6199241638e+01    1.2889509201e+01
    7.6299224854e+01    1.2928960800e+01
    7.6399353027e+01    1.2968420029e+01
    7.6499282837e+01    1.3007719040e+01
    7.6599342346e+01    1.3047019958e+01
    7.6699302673e+01    1.3086139679e+01
    7.6799224854e+01    1.3125179291e+01
    7.6899307251e+01    1.3164199829e+01
    7.6999366760e+01    1.3203130722e+01
    7.7099311829e+01    1.3241879463e+01
    7.7199348450e+01    1.3280619621e+01
    7.7299331665e+01    1.3319169998e+01
    7.7399291992e+01    1.3357729912e+01
    7.7499359131e+01    1.3396080017e+01
    7.7599288940e+01    1.3434370041e+01
    7.7699218750e+01    1.3472660065e+01
    7.7799285889e+01    1.3510749817e+01
    7.7899261475e+01    1.3548880577e+01
    7.7999366760e+01    1.3586899757e+01
    7.8099243164e+01    1.3624790192e+01
    7.8199363708e+01    1.3662659645e+01
    7.8299346924e+01    1.3700380325e+01
    7.8399200439e+01    1.3738050461e+01
    7.8499359131e+01    1.3775710106e+01
    7.8599205017e+01    1.3813239098e+01
    7.8699363708e+01    1.3850750923e+01
    7.8799301147e+01    1.3888119698e+01
    7.8899299622e+01    1.3925518990e+01
    7.8999328613e+01    1.3962739944e+01
    7.9099266052e+01    1.3999910355e+01
    7.9199234009e+01    1.4037099838e+01
    7.9299339294e+01    1.4074210167e+01
    7.9399223328e+01    1.4111079216e+01
    7.9499191284e+01    1.4148069382e+01
    7.9599349976e+01    1.4184950829e+01
    7.9699188232e+01    1.4221709251e+01
    7.9799224854e+01    1.4258370399e+01
    7.9899200439e+01    1.4295060158e+01
    7.9999305725e+01    1.4331659317e+01
    8.0099266052e+01    1.4379799843e+01
    8.0199310303e+01    1.4427939415e+01
    8.0299263000e+01    1.4475910187e+01
    8.0399162292e+01    1.4523899078e+01
    8.0499244690e+01    1.4571760178e+01
    8.0599296570e+01    1.4619628906e+01
    8.0699195862e+01    1.4667229652e+01
    8.0799224854e+01    1.4714790344e+01
    8.0899185181e+01    1.4762240410e+01
    8.0999259949e+01    1.4809559822e+01
    8.1099235535e+01    1.4856771469e+01
    8.1199157715e+01    1.4903860092e+01
    8.1299224854e+01    1.4950799942e+01
    8.1399246216e+01    1.4997629166e+01
    8.1499221802e+01    1.5044330597e+01
    8.1599166870e+01    1.5090909958e+01
    8.1699279785e+01    1.5137329102e+01
    8.1799163818e+01    1.5183580399e+01
    8.1899223328e+01    1.5229869843e+01
    8.1999259949e+01    1.5275949478e+01
    8.2099197388e+01    1.5321928978e+01
    8.2199256897e+01    1.5367790222e+01
    8.2299240112e+01    1.5413550377e+01
    8.2399246216e+01    1.5459199905e+01
    8.2499198914e+01    1.5504760742e+01
    8.2599235535e+01    1.5550189972e+01
    8.2699165344e+01    1.5595430374e+01
    8.2799255371e+01    1.5640739441e+01
    8.2899215698e+01    1.5685880661e+01
    8.2999198914e+01    1.5730811119e+01
    8.3099220276e+01    1.5775829315e+01
    8.3199279785e+01    1.5820660591e+01
    8.3299163818e+01    1.5865319252e+01
    8.3399192810e+01    1.5909960747e+01
    8.3499137878e+01    1.5954529762e+01
    8.3599113464e+01    1.5999009132e+01
    8.3699249268e+01    1.6043460846e+01
    8.3799255371e+01    1.6087749481e+01
    8.3899269104e+01    1.6131950378e+01
    8.3999206543e+01    1.6175968170e+01
    8.4099273682e+01    1.6220069885e+01
    8.4199256897e+01    1.6263999939e+01
    8.4299110413e+01    1.6307748795e+01
    8.4399276733e+01    1.6351539612e+01
    8.4499137878e+01    1.6395090103e+01
    8.4599113464e+01    1.6438610077e+01
    8.4699180603e+01    1.6482009888e+01
    8.4799156189e+01    1.6525310516e+01
    8.4899208069e+01    1.6568479538e+01
    8.4999107361e+01    1.6611459732e+01
    8.5099266052e+01    1.6654470444e+01
    8.5199211121e+01    1.6697299957e+01
    8.5299087524e+01    1.6739919662e+01
    8.5399116516e+01    1.6782499313e+01
    8.5499237061e+01    1.6825031281e+01
    8.5599105835e+01    1.6867300034e+01
    8.5699203491e+01    1.6909589767e+01
    8.5799194336e+01    1.6951690674e+01
    8.5899139404e+01    1.6993570328e+01
    8.5999099731e+01    1.7035440445e+01
    8.6099128723e+01    1.7077178955e+01
    8.6199150085e+01    1.7118789673e+01
    8.6299156189e+01    1.7160289764e+01
    8.6399208069e+01    1.7201759338e+01
    8.6499160767e+01    1.7242929459e+01
    8.6599166870e+01    1.7284061432e+01
    8.6699180603e+01    1.7325059891e+01
    8.6799217224e+01    1.7366031647e+01
    8.6899116516e+01    1.7406709671e+01
    8.6999114990e+01    1.7447330475e+01
    8.7099197388e+01    1.7487800598e+01
    8.7199165344e+01    1.7528160095e+01
    8.7299209595e+01    1.7568460464e+01
    8.7399124146e+01    1.7608449936e+01
    8.7499092102e+01    1.7648389816e+01
    8.7599082947e+01    1.7688179016e+01
    8.7699066162e+01    1.7727840424e+01
    8.7799102783e+01    1.7767330170e+01
    8.7899101257e+01    1.7806699753e+01
    8.7999114990e+01    1.7845920563e+01
    8.8099113464e+01    1.7885000229e+01
    8.8199203491e+01    1.7923929214e+01
    8.8299095154e+01    1.7962759018e+01
    8.8399177551e+01    1.8001411438e+01
    8.8499130249e+01    1.8039958954e+01
    8.8599197388e+01    1.8078338623e+01
    8.8699203491e+01    1.8116600037e+01
    8.8799049377e+01    1.8154680252e+01
    8.8899154663e+01    1.8192760468e+01
    8.8999183655e+01    1.8230630875e+01
    8.9099212646e+01    1.8268390656e+01
    8.9199081421e+01    1.8305961609e+01
    8.9299179077e+01    1.8343568802e+01
    8.9399101257e+01    1.8380889893e+01
    8.9499023438e+01    1.8418210983e+01
    8.9599060059e+01    1.8455369949e+01
    8.9699043274e+01    1.8492439270e+01
    8.9799072266e+01    1.8529378891e+01
    8.9899055481e+01    1.8566221237e+01
    8.9999153137e+01    1.8603019714e+01
    9.0099021912e+01    1.8653968811e+01
    9.0199020386e+01    1.8704969406e+01
    9.0299026489e+01    1.8755849838e+01
    9.0399116516e+01    1.8806680679e+01
    9.0499023438e+01    1.8857349396e+01
    9.0599105835e+01    1.8907928467e+01
    9.0699089050e+01    1.8958320618e+01
    9.0799079895e+01    1.9008661270e+01
    9.0899147034e+01    1.9058740616e+01
    9.0999160767e+01    1.9108789444e+01
    9.1099075317e+01    1.9158618927e+01
    9.1199058533e+01    1.9208259583e+01
    9.1299125671e+01    1.9257831573e+01
    9.1399093628e+01    1.9307168961e+01
    9.1499092102e+01    1.9356330872e+01
    9.1599006653e+01    1.9405349731e+01
    9.1699150085e+01    1.9454238892e+01
    9.1799133301e+01    1.9502910614e+01
    9.1899093628e+01    1.9551429749e+01
    9.1999107361e+01    1.9599861145e+01
    9.2099121094e+01    1.9648038864e+01
    9.2199081421e+01    1.9696090698e+01
    9.2299148560e+01    1.9744060516e+01
    9.2399002075e+01    1.9791839600e+01
    9.2499122620e+01    1.9839488983e+01
    9.2599121094e+01    1.9886940002e+01
    9.2699142456e+01    1.9934339523e+01
    9.2799140930e+01    1.9981510162e+01
    9.2899093628e+01    2.0028579712e+01
    9.2998985291e+01    2.0075429916e+01
    9.3099082947e+01    2.0122400284e+01
    9.3199134827e+01    2.0169078827e+01
    9.3299087524e+01    2.0215681076e+01
    9.3399017334e+01    2.0262180328e+01
    9.3499114990e+01    2.0308620453e+01
    9.3599136353e+01    2.0354980469e+01
    9.3699119568e+01    2.0401159286e+01
    9.3799041748e+01    2.0447250366e+01
    9.3899063110e+01    2.0493209839e+01
    9.3999084473e+01    2.0539159775e+01
    9.4099052429e+01    2.0584920883e+01
    9.4198944092e+01    2.0630491257e+01
    9.4299011230e+01    2.0676071167e+01
    9.4398994446e+01    2.0721450806e+01
    9.4498977661e+01    2.0766799927e+01
    9.4598960876e+01    2.0811899185e+01
    9.4699050903e+01    2.0856918335e+01
    9.4799110413e+01    2.0901790619e+01
    9.4899032593e+01    2.0946329117e+01
    9.4999015808e+01    2.0990879059e+01
    9.5099006653e+01    2.1035140991e+01
    9.5199028015e+01    2.1079200745e+01
    9.5298927307e+01    2.1123100281e+01
    9.5399055481e+01    2.1166828156e+01
    9.5499084473e+01    2.1210380554e+01
    9.5599082947e+01    2.1253641129e+01
    9.5699073792e+01    2.1296791077e+01
    9.5798957825e+01    2.1339561462e+01
    9.5898994446e+01    2.1382280350e+01
    9.5999000549e+01    2.1424699783e+01
    9.6099082947e+01    2.1466989517e+01
    9.6199012756e+01    2.1509038925e+01
    9.6298965454e+01    2.1550889969e+01
    9.6398948669e+01    2.1592538834e+01
    9.6498992920e+01    2.1634078979e+01
    9.6598968506e+01    2.1675371170e+01
    9.6699020386e+01    2.1716571808e+01
    9.6799026489e+01    2.1757509232e+01
    9.6898994446e+01    2.1798301697e+01
    9.6999061584e+01    2.1838989258e+01
    9.7099052429e+01    2.1879449844e+01
    9.7198928833e+01    2.1919799805e+01
    9.7298965454e+01    2.1959930420e+01
    9.7398963928e+01    2.2000030518e+01
    9.7498947144e+01    2.2039878845e+01
    9.7598976135e+01    2.2079561234e+01
    9.7698905945e+01    2.2119140625e+01
    9.7798965454e+01    2.2158618927e+01
    9.7899070740e+01    2.2197940826e+01
    9.7998908997e+01    2.2237020493e+01
    9.8098930359e+01    2.2276090622e+01
    9.8199012756e+01    2.2314979553e+01
    9.8298995972e+01    2.2353670120e+01
    9.8398925781e+01    2.2392240524e+01
    9.8498985291e+01    2.2430700302e+01
    9.8598922729e+01    2.2468950272e+01
    9.8699035645e+01    2.2507080078e+01
    9.8798973083e+01    2.2545028687e+01
    9.8898933411e+01    2.2582809448e+01
    9.8998962402e+01    2.2620418549e+01
    9.9098937988e+01    2.2657890320e+01
    9.9198997498e+01    2.2695270538e+01
    9.9299034119e+01    2.2732521057e+01
    9.9399032593e+01    2.2769519806e+01
    9.9499015808e+01    2.2806381226e+01
    9.9599029541e+01    2.2843170166e+01
    9.9698997498e+01    2.2879730225e+01
    9.9798942566e+01    2.2916149139e+01
    9.9899032593e+01    2.2952449799e+01
    9.9999008179e+01    2.2988559723e+01
    1.0009903717e+02    2.3041988373e+01
    1.0019895172e+02    2.3095321655e+01
    1.0029894257e+02    2.3148559570e+01
    1.0039900208e+02    2.3201721191e+01
    1.0049886322e+02    2.3254611969e+01
    1.0059900665e+02    2.3307518005e+01
    1.0069886017e+02    2.3360099792e+01
    1.0079897308e+02    2.3412601471e+01
    1.0089894104e+02    2.3464900970e+01
    1.0099891663e+02    2.3517021179e+01
    1.0109889221e+02    2.3568969727e+01
    1.0119889832e+02    2.3620727539e+01
    1.0129898071e+02    2.3672378540e+01
    1.0139894104e+02    2.3723800659e+01
    1.0149887848e+02    2.3775051117e+01
    1.0159890747e+02    2.3826072693e+01
    1.0169898224e+02    2.3876998901e+01
    1.0179892731e+02    2.3927692413e+01
    1.0189894104e+02    2.3978179932e+01
    1.0199884033e+02    2.4028530121e+01
    1.0209886169e+02    2.4078659058e+01
    1.0219891357e+02    2.4128711700e+01
    1.0229898071e+02    2.4178577423e+01
    1.0239884186e+02    2.4228179932e+01
    1.0249897003e+02    2.4277688980e+01
    1.0259893799e+02    2.4327011108e+01
    1.0269899750e+02    2.4376232147e+01
    1.0279885101e+02    2.4425189972e+01
    1.0289894104e+02    2.4474079132e+01
    1.0299894714e+02    2.4522769928e+01
    1.0309893036e+02    2.4571327209e+01
    1.0319882965e+02    2.4619789124e+01
    1.0329882812e+02    2.4668058395e+01
    1.0339881897e+02    2.4716201782e+01
    1.0349891663e+02    2.4764259338e+01
    1.0359898376e+02    2.4812198639e+01
    1.0369891357e+02    2.4859970093e+01
    1.0379884338e+02    2.4907501221e+01
    1.0389885712e+02    2.4955001831e+01
    1.0399894714e+02    2.5002399445e+01
    1.0409884644e+02    2.5049501419e+01
    1.0419889069e+02    2.5096599579e+01
    1.0429879761e+02    2.5143299103e+01
    1.0439897156e+02    2.5189998627e+01
    1.0449893951e+02    2.5236499786e+01
    1.0459893799e+02    2.5282699585e+01
    1.0469886017e+02    2.5328800201e+01
    1.0479885101e+02    2.5374599457e+01
    1.0489884186e+02    2.5420101166e+01
    1.0499878693e+02    2.5465499878e+01
    1.0509879303e+02    2.5510601044e+01
    1.0519892883e+02    2.5555501938e+01
    1.0529894257e+02    2.5600101471e+01
    1.0539884186e+02    2.5644397736e+01
    1.0549881744e+02    2.5688501358e+01
    1.0559880829e+02    2.5732398987e+01
    1.0569893646e+02    2.5776000977e+01
    1.0579895020e+02    2.5819301605e+01
    1.0589884186e+02    2.5862499237e+01
    1.0599884796e+02    2.5905298233e+01
    1.0609880066e+02    2.5947999954e+01
    1.0619879913e+02    2.5990497589e+01
    1.0629882812e+02    2.6032798767e+01
    1.0639878082e+02    2.6074798584e+01
    1.0649884796e+02    2.6116699219e+01
    1.0659889984e+02    2.6158500671e+01
    1.0669886780e+02    2.6200000763e+01
    1.0679889679e+02    2.6241500854e+01
    1.0689891815e+02    2.6282598495e+01
    1.0699884796e+02    2.6323699951e+01
    1.0709886932e+02    2.6364599228e+01
    1.0719875336e+02    2.6405298233e+01
    1.0729876709e+02    2.6445999146e+01
    1.0739884186e+02    2.6486499786e+01
    1.0749878693e+02    2.6526798248e+01
    1.0759889221e+02    2.6567100525e+01
    1.0769882965e+02    2.6606998444e+01
    1.0779891205e+02    2.6646999359e+01
    1.0789884949e+02    2.6686798096e+01
    1.0799877930e+02    2.6726400375e+01
    1.0809879303e+02    2.6765798569e+01
    1.0819880676e+02    2.6805099487e+01
    1.0829889679e+02    2.6844299316e+01
    1.0839887238e+02    2.6883399963e+01
    1.0849878693e+02    2.6922298431e+01
    1.0859886932e+02    2.6960998535e+01
    1.0869883728e+02    2.6999500275e+01
    1.0879889679e+02    2.7037899017e+01
    1.0889874268e+02    2.7076000214e+01
    1.0899877167e+02    2.7114000320e+01
    1.0909879303e+02    2.7151798248e+01
    1.0919882965e+02    2.7189599991e+01
    1.0929878998e+02    2.7227100372e+01
    1.0939875793e+02    2.7264400482e+01
    1.0949874115e+02    2.7301502228e+01
    1.0959873199e+02    2.7338399887e+01
    1.0969889069e+02    2.7375301361e+01
    1.0979873657e+02    2.7411800385e+01
    1.0989888763e+02    2.7448200226e+01
    1.0999871826e+02    2.7484399796e+01
    1.1009873199e+02    2.7541500092e+01
    1.1019883728e+02    2.7598901749e+01
    1.1029878998e+02    2.7655900955e+01
    1.1039871979e+02    2.7712699890e+01
    1.1049874878e+02    2.7769498825e+01
    1.1059884644e+02    2.7826000214e+01
    1.1069885254e+02    2.7882398605e+01
    1.1079882050e+02    2.7938501358e+01
    1.1089878845e+02    2.7994400024e+01
    1.1099883270e+02    2.8050098419e+01
    1.1109870148e+02    2.8105598450e+01
    1.1119875336e+02    2.8160900116e+01
    1.1129885101e+02    2.8216098785e+01
    1.1139872742e+02    2.8271001816e+01
    1.1149884033e+02    2.8325798035e+01
    1.1159883881e+02    2.8380401611e+01
    1.1169879150e+02    2.8434600830e+01
    1.1179872131e+02    2.8488700867e+01
    1.1189881897e+02    2.8542800903e+01
    1.1199870300e+02    2.8596401215e+01
    1.1209882355e+02    2.8650098801e+01
    1.1219876099e+02    2.8703401566e+01
    1.1229871368e+02    2.8756700516e+01
    1.1239869690e+02    2.8809600830e+01
    1.1249884033e+02    2.8862600327e+01
    1.1259883118e+02    2.8915298462e+01
    1.1269883728e+02    2.8967798233e+01
    1.1279882812e+02    2.9020099640e+01
    1.1289872742e+02    2.9072200775e+01
    1.1299884033e+02    2.9124401093e+01
    1.1309867859e+02    2.9176101685e+01
    1.1319872284e+02    2.9227699280e+01
    1.1329876709e+02    2.9279300690e+01
    1.1339878082e+02    2.9330699921e+01
    1.1349877167e+02    2.9381797791e+01
    1.1359867859e+02    2.9432798386e+01
    1.1369866943e+02    2.9483699799e+01
    1.1379873657e+02    2.9534500122e+01
    1.1389875031e+02    2.9585000992e+01
    1.1399875641e+02    2.9635299683e+01
    1.1409871674e+02    2.9685499191e+01
    1.1419875336e+02    2.9735500336e+01
    1.1429872894e+02    2.9785299301e+01
    1.1439869690e+02    2.9834798813e+01
    1.1449873352e+02    2.9884201050e+01
    1.1459873962e+02    2.9933300018e+01
    1.1469869232e+02    2.9982198715e+01
    1.1479866791e+02    3.0030900955e+01
    1.1489868927e+02    3.0079299927e+01
    1.1499865723e+02    3.0127401352e+01
    1.1509867096e+02    3.0175300598e+01
    1.1519866180e+02    3.0222898483e+01
    1.1529873657e+02    3.0270401001e+01
    1.1539878082e+02    3.0317399979e+01
    1.1549871063e+02    3.0364198685e+01
    1.1559874725e+02    3.0410900116e+01
    1.1569879150e+02    3.0457399368e+01
    1.1579872131e+02    3.0503402710e+01
    1.1589869690e+02    3.0549301147e+01
    1.1599877930e+02    3.0595098495e+01
    1.1609863281e+02    3.0640499115e+01
    1.1619869232e+02    3.0685800552e+01
    1.1629862213e+02    3.0730800629e+01
    1.1639871979e+02    3.0775800705e+01
    1.1649877930e+02    3.0820499420e+01
    1.1659870911e+02    3.0864999771e+01
    1.1669866943e+02    3.0909502029e+01
    1.1679873657e+02    3.0953798294e+01
    1.1689864349e+02    3.0997798920e+01
    1.1699871063e+02    3.1041799545e+01
    1.1709877014e+02    3.1085498810e+01
    1.1719869995e+02    3.1129201889e+01
    1.1729871368e+02    3.1172700882e+01
    1.1739866638e+02    3.1215999603e+01
    1.1749864197e+02    3.1259199142e+01
    1.1759860992e+02    3.1302301407e+01
    1.1769863129e+02    3.1345199585e+01
    1.1779871368e+02    3.1388000488e+01
    1.1789859772e+02    3.1430700302e+01
    1.1799871063e+02    3.1473197937e+01
    1.1809860992e+02    3.1515501022e+01
    1.1819866180e+02    3.1557800293e+01
    1.1829872894e+02    3.1599901199e+01
    1.1839862823e+02    3.1641700745e+01
    1.1849862671e+02    3.1683399200e+01
    1.1859870911e+02    3.1725000381e+01
    1.1869863129e+02    3.1766401291e+01
    1.1879860687e+02    3.1807399750e+01
    1.1889866638e+02    3.1848501205e+01
    1.1899862671e+02    3.1889301300e+01
    1.1909864044e+02    3.1929899216e+01
    1.1919869995e+02    3.1970300674e+01
    1.1929866028e+02    3.2010398865e+01
    1.1939868927e+02    3.2050399780e+01
    1.1949870300e+02    3.2090103149e+01
    1.1959858704e+02    3.2129501343e+01
    1.1969862366e+02    3.2168800354e+01
    1.1979859924e+02    3.2207801819e+01
    1.1989871216e+02    3.2246597290e+01
    1.1999859619e+02    3.2285198212e+01
    1.2009867096e+02    3.2346900940e+01
    1.2019857788e+02    3.2408500671e+01
    1.2029859161e+02    3.2470001221e+01
    1.2039856720e+02    3.2531299591e+01
    1.2049868774e+02    3.2592399597e+01
    1.2059864044e+02    3.2653198242e+01
    1.2069857025e+02    3.2713798523e+01
    1.2079863739e+02    3.2774200439e+01
    1.2089853668e+02    3.2834503174e+01
    1.2099864960e+02    3.2894500732e+01
    1.2109871674e+02    3.2954399109e+01
    1.2119853973e+02    3.3013900757e+01
    1.2129853821e+02    3.3073398590e+01
    1.2139871216e+02    3.3132701874e+01
    1.2149864960e+02    3.3191696167e+01
    1.2159867096e+02    3.3250598907e+01
    1.2169862366e+02    3.3309299469e+01
    1.2179853058e+02    3.3367801666e+01
    1.2189865875e+02    3.3426200867e+01
    1.2199857330e+02    3.3484401703e+01
    1.2209857178e+02    3.3542297363e+01
    1.2219853973e+02    3.3600299835e+01
    1.2229853821e+02    3.3657997131e+01
    1.2239865875e+02    3.3715599060e+01
    1.2249870300e+02    3.3772899628e+01
    1.2259864044e+02    3.3830101013e+01
    1.2269856262e+02    3.3887100220e+01
    1.2279862213e+02    3.3944000244e+01
    1.2289853668e+02    3.4000598907e+01
    1.2299854279e+02    3.4057098389e+01
    1.2309867096e+02    3.4113502502e+01
    1.2319853210e+02    3.4169502258e+01
    1.2329859161e+02    3.4225498199e+01
    1.2339852905e+02    3.4281200409e+01
    1.2349849701e+02    3.4336799622e+01
    1.2359857941e+02    3.4392200470e+01
    1.2369856262e+02    3.4447502136e+01
    1.2379852295e+02    3.4502502441e+01
    1.2389865875e+02    3.4557399750e+01
    1.2399865723e+02    3.4611999512e+01
    1.2409855652e+02    3.4666397095e+01
    1.2419857025e+02    3.4720699310e+01
    1.2429859924e+02    3.4774696350e+01
    1.2439855957e+02    3.4828498840e+01
    1.2449859619e+02    3.4881999969e+01
    1.2459850311e+02    3.4935401917e+01
    1.2469860840e+02    3.4988601685e+01
    1.2479860687e+02    3.5041603088e+01
    1.2489861298e+02    3.5094200134e+01
    1.2499858093e+02    3.5146701813e+01
    1.2509857941e+02    3.5198997498e+01
    1.2519859314e+02    3.5250999451e+01
    1.2529863739e+02    3.5302696228e+01
    1.2539856720e+02    3.5354202271e+01
    1.2549861908e+02    3.5405502319e+01
    1.2559854889e+02    3.5456501007e+01
    1.2569853210e+02    3.5507400513e+01
    1.2579855347e+02    3.5557998657e+01
    1.2589846802e+02    3.5608299255e+01
    1.2599859619e+02    3.5658599854e+01
    1.2609864807e+02    3.5708602905e+01
    1.2619856262e+02    3.5758300781e+01
    1.2629862976e+02    3.5807899475e+01
    1.2639846039e+02    3.5857200623e+01
    1.2649857330e+02    3.5906299591e+01
    1.2659861755e+02    3.5955398560e+01
    1.2669859314e+02    3.6004100800e+01
    1.2679859924e+02    3.6052703857e+01
    1.2689856720e+02    3.6101097107e+01
    1.2699858093e+02    3.6149299622e+01
    1.2709844208e+02    3.6197299957e+01
    1.2719860840e+02    3.6245300293e+01
    1.2729859924e+02    3.6292999268e+01
    1.2739852905e+02    3.6340499878e+01
    1.2749851227e+02    3.6387802124e+01
    1.2759844208e+02    3.6434997559e+01
    1.2769860077e+02    3.6482101440e+01
    1.2779860687e+02    3.6528900146e+01
    1.2789855957e+02    3.6575599670e+01
    1.2799848175e+02    3.6622001648e+01
    1.2809855652e+02    3.6668399811e+01
    1.2819850159e+02    3.6714496613e+01
    1.2829858398e+02    3.6760597229e+01
    1.2839857483e+02    3.6806404114e+01
    1.2849844360e+02    3.6852001190e+01
    1.2859851074e+02    3.6897399902e+01
    1.2869850159e+02    3.6942703247e+01
    1.2879864502e+02    3.6987899780e+01
    1.2889863586e+02    3.7032798767e+01
    1.2899859619e+02    3.7077400208e+01
    1.2909866333e+02    3.7121803284e+01
    1.2919851685e+02    3.7166099548e+01
    1.2929858398e+02    3.7210205078e+01
    1.2939863586e+02    3.7253997803e+01
    1.2949867249e+02    3.7297805786e+01
    1.2959861755e+02    3.7341201782e+01
    1.2969859314e+02    3.7384399414e+01
    1.2979864502e+02    3.7427398682e+01
    1.2989866638e+02    3.7470199585e+01
    1.2999853516e+02    3.7512802124e+01
    1.3009860229e+02    3.7580398560e+01
    1.3019863892e+02    3.7648197174e+01
    1.3029870605e+02    3.7715797424e+01
    1.3039859009e+02    3.7782997131e+01
    1.3049870300e+02    3.7850196838e+01
    1.3059866333e+02    3.7917098999e+01
    1.3069860840e+02    3.7983703613e+01
    1.3079866028e+02    3.8050201416e+01
    1.3089874268e+02    3.8116401672e+01
    1.3099862671e+02    3.8182502747e+01
    1.3109863281e+02    3.8248203278e+01
    1.3119876099e+02    3.8313903809e+01
    1.3129864502e+02    3.8379196167e+01
    1.3139869690e+02    3.8444396973e+01
    1.3149870300e+02    3.8509399414e+01
    1.3159872437e+02    3.8574295044e+01
    1.3169866943e+02    3.8638797760e+01
    1.3179875183e+02    3.8703300476e+01
    1.3189877319e+02    3.8767597198e+01
    1.3199868774e+02    3.8831600189e+01
    1.3209878540e+02    3.8895599365e+01
    1.3219877625e+02    3.8959400177e+01
    1.3229876709e+02    3.9023002625e+01
    1.3239872742e+02    3.9086502075e+01
    1.3249884033e+02    3.9149799347e+01
    1.3259877014e+02    3.9212699890e+01
    1.3269877625e+02    3.9275703430e+01
    1.3279884338e+02    3.9338401794e+01
    1.3289872742e+02    3.9400794983e+01
    1.3299873352e+02    3.9463096619e+01
    1.3309884644e+02    3.9525302887e+01
    1.3319874573e+02    3.9587196350e+01
    1.3329873657e+02    3.9648899078e+01
    1.3339880371e+02    3.9710399628e+01
    1.3349876404e+02    3.9771697998e+01
    1.3359887695e+02    3.9832897186e+01
    1.3369891357e+02    3.9893898010e+01
    1.3379881287e+02    3.9954601288e+01
    1.3389886475e+02    4.0015201569e+01
    1.3399890137e+02    4.0075599670e+01
    1.3409886169e+02    4.0135799408e+01
    1.3419895935e+02    4.0195800781e+01
    1.3429881287e+02    4.0255504608e+01
    1.3439891052e+02    4.0315101624e+01
    1.3449885559e+02    4.0374404907e+01
    1.3459889221e+02    4.0433601379e+01
    1.3469888306e+02    4.0492496490e+01
    1.3479899597e+02    4.0551303864e+01
    1.3489898682e+02    4.0609802246e+01
    1.3499893188e+02    4.0668098450e+01
    1.3509890747e+02    4.0725997925e+01
    1.3519886780e+02    4.0783901215e+01
    1.3529896545e+02    4.0841598511e+01
    1.3539898682e+02    4.0898899078e+01
    1.3549896240e+02    4.0956100464e+01
    1.3559904480e+02    4.1013099670e+01
    1.3569891357e+02    4.1069801331e+01
    1.3579893494e+02    4.1126399994e+01
    1.3589897156e+02    4.1182701111e+01
    1.3599902344e+02    4.1238903046e+01
    1.3609907532e+02    4.1294902802e+01
    1.3619897461e+02    4.1350704193e+01
    1.3629910278e+02    4.1406303406e+01
    1.3639906311e+02    4.1461605072e+01
    1.3649896240e+02    4.1516796112e+01
    1.3659898376e+02    4.1571796417e+01
    1.3669898987e+02    4.1626598358e+01
    1.3679908752e+02    4.1681297302e+01
    1.3689898682e+02    4.1735698700e+01
    1.3699911499e+02    4.1789997101e+01
    1.3709898376e+02    4.1844001770e+01
    1.3719914246e+02    4.1897899628e+01
    1.3729902649e+02    4.1951400757e+01
    1.3739903259e+02    4.2004802704e+01
    1.3749899292e+02    4.2058002472e+01
    1.3759901428e+02    4.2110904694e+01
    1.3769915771e+02    4.2163600922e+01
    1.3779916382e+02    4.2216102600e+01
    1.3789906311e+02    4.2268497467e+01
    1.3799906921e+02    4.2320495605e+01
    1.3809910583e+02    4.2372497559e+01
    1.3819915771e+02    4.2424198151e+01
    1.3829910278e+02    4.2475597382e+01
    1.3839923096e+02    4.2526897430e+01
    1.3849906921e+02    4.2577899933e+01
    1.3859913635e+02    4.2628700256e+01
    1.3869914246e+02    4.2679199219e+01
    1.3879916382e+02    4.2729698181e+01
    1.3889923096e+02    4.2779800415e+01
    1.3899919128e+02    4.2829700470e+01
    1.3909924316e+02    4.2879402161e+01
    1.3919914246e+02    4.2928901672e+01
    1.3929917908e+02    4.2978202820e+01
    1.3939910889e+02    4.3027194977e+01
    1.3949929810e+02    4.3076202393e+01
    1.3959916687e+02    4.3124698639e+01
    1.3969912720e+02    4.3173099518e+01
    1.3979928589e+02    4.3221405029e+01
    1.3989921570e+02    4.3269397736e+01
    1.3999928284e+02    4.3317195892e+01
    1.4009916687e+02    4.3389404297e+01
    1.4019932556e+02    4.3461795807e+01
    1.4029931641e+02    4.3533798218e+01
    1.4039932251e+02    4.3605701447e+01
    1.4049923706e+02    4.3677299500e+01
    1.4059930420e+02    4.3748798370e+01
    1.4069923401e+02    4.3820003510e+01
    1.4079922485e+02    4.3890998840e+01
    1.4089930725e+02    4.3961799622e+01
    1.4099928284e+02    4.4032295227e+01
    1.4109922791e+02    4.4102600098e+01
    1.4119934082e+02    4.4172901154e+01
    1.4129927063e+02    4.4242599487e+01
    1.4139941406e+02    4.4312397003e+01
    1.4149929810e+02    4.4381801605e+01
    1.4159927368e+02    4.4450996399e+01
    1.4169938660e+02    4.4520000458e+01
    1.4179934692e+02    4.4588802338e+01
    1.4189939880e+02    4.4657398224e+01
    1.4199943542e+02    4.4725799561e+01
    1.4209936523e+02    4.4793903351e+01
    1.4219935608e+02    4.4861797333e+01
    1.4229936218e+02    4.4929599762e+01
    1.4239947510e+02    4.4997203827e+01
    1.4249937439e+02    4.5064498901e+01
    1.4259938049e+02    4.5131603241e+01
    1.4269932556e+02    4.5198398590e+01
    1.4279939270e+02    4.5265197754e+01
    1.4289944458e+02    4.5331703186e+01
    1.4299943542e+02    4.5397895813e+01
    1.4309947205e+02    4.5464000702e+01
    1.4319950867e+02    4.5529800415e+01
    1.4329951477e+02    4.5595397949e+01
    1.4339939880e+02    4.5660701752e+01
    1.4349954224e+02    4.5725902557e+01
    1.4359951782e+02    4.5790897369e+01
    1.4369943237e+02    4.5855503082e+01
    1.4379946899e+02    4.5920001984e+01
    1.4389953613e+02    4.5984397888e+01
    1.4399954224e+02    4.6048400879e+01
    1.4409942627e+02    4.6112197876e+01
    1.4419941711e+02    4.6175800323e+01
    1.4429953003e+02    4.6239200592e+01
    1.4439958191e+02    4.6302394867e+01
    1.4449946594e+02    4.6365398407e+01
    1.4459945679e+02    4.6427997589e+01
    1.4469955444e+02    4.6490596771e+01
    1.4479951477e+02    4.6552799225e+01
    1.4489959717e+02    4.6614902496e+01
    1.4499948120e+02    4.6676597595e+01
    1.4509948730e+02    4.6738201141e+01
    1.4519961548e+02    4.6799503326e+01
    1.4529960632e+02    4.6860599518e+01
    1.4539947510e+02    4.6921302795e+01
    1.4549958801e+02    4.6982105255e+01
    1.4559967041e+02    4.7042495728e+01
    1.4569967651e+02    4.7102699280e+01
    1.4579951477e+02    4.7162498474e+01
    1.4589950562e+02    4.7222202301e+01
    1.4599951172e+02    4.7281597137e+01
    1.4609962463e+02    4.7340995789e+01
    1.4619964600e+02    4.7399898529e+01
    1.4629966736e+02    4.7458801270e+01
    1.4639970398e+02    4.7517395020e+01
    1.4649957275e+02    4.7575702667e+01
    1.4659970093e+02    4.7633903503e+01
    1.4669960022e+02    4.7691799164e+01
    1.4679956055e+02    4.7749504089e+01
    1.4689976501e+02    4.7807102203e+01
    1.4699971008e+02    4.7864299774e+01
    1.4709971619e+02    4.7921401978e+01
    1.4719976807e+02    4.7978202820e+01
    1.4729966736e+02    4.8034698486e+01
    1.4739967346e+02    4.8091003418e+01
    1.4749963379e+02    4.8147197723e+01
    1.4759962463e+02    4.8203002930e+01
    1.4769976807e+02    4.8258701324e+01
    1.4779972839e+02    4.8314098358e+01
    1.4789967346e+02    4.8369201660e+01
    1.4799966431e+02    4.8424198151e+01
    1.4809974670e+02    4.8479000092e+01
    1.4819973755e+02    4.8533500671e+01
    1.4829975891e+02    4.8587902069e+01
    1.4839979553e+02    4.8641998291e+01
    1.4849983215e+02    4.8695800781e+01
    1.4859973145e+02    4.8749397278e+01
    1.4869981384e+02    4.8802799225e+01
    1.4879986572e+02    4.8855998993e+01
    1.4889976501e+02    4.8909301758e+01
    1.4899986267e+02    4.8962001801e+01
    1.4909982300e+02    4.9013698578e+01
    1.4919972229e+02    4.9066299438e+01
    1.4929977417e+02    4.9118400574e+01
    1.4939985657e+02    4.9170200348e+01
    1.4949975586e+02    4.9221004486e+01
    1.4959986877e+02    4.9273296356e+01
    1.4969989014e+02    4.9323497772e+01
    1.4979974365e+02    4.9374698639e+01
    1.4989988708e+02    4.9425300598e+01
    1.4999984741e+02    4.9475902557e+01
    1.5009983826e+02    4.9549198151e+01
    1.5019993591e+02    4.9623203278e+01
    1.5029992676e+02    4.9697097778e+01
    1.5039979553e+02    4.9770900726e+01
    1.5049995422e+02    4.9844097137e+01
    1.5059991455e+02    4.9917400360e+01
    1.5069987488e+02    4.9989498138e+01
    1.5079997253e+02    5.0062099457e+01
    1.5089994812e+02    5.0134696960e+01
    1.5099981689e+02    5.0206199646e+01
    1.5109988403e+02    5.0278202057e+01
    1.5119990540e+02    5.0349998474e+01
    1.5129985046e+02    5.0421703339e+01
    1.5139987183e+02    5.0493000031e+01
    1.5149989319e+02    5.0563102722e+01
    1.5159997559e+02    5.0633998871e+01
    1.5169999695e+02    5.0704601288e+01
    1.5180000305e+02    5.0774997711e+01
    1.5190000916e+02    5.0845302582e+01
    1.5199993896e+02    5.0914398193e+01
    1.5209997559e+02    5.0984100342e+01
    1.5219996643e+02    5.1053695679e+01
    1.5230000305e+02    5.1122901917e+01
    1.5240008545e+02    5.1191902161e+01
    1.5250009155e+02    5.1260799408e+01
    1.5259992981e+02    5.1328704834e+01
    1.5269995117e+02    5.1397098541e+01
    1.5280007935e+02    5.1465103149e+01
    1.5290000916e+02    5.1532199860e+01
    1.5299998474e+02    5.1600002289e+01
    1.5310009766e+02    5.1667297363e+01
    1.5320013428e+02    5.1734500885e+01
    1.5330001831e+02    5.1801597595e+01
    1.5339996338e+02    5.1867500305e+01
    1.5350003052e+02    5.1933895111e+01
    1.5360008240e+02    5.2000099182e+01
    1.5370010376e+02    5.2066104889e+01
    1.5380017090e+02    5.2131698608e+01
    1.5390011597e+02    5.2196304321e+01
    1.5400000000e+02    5.2261699677e+01
    1.5410006714e+02    5.2326702118e+01
    1.5420001221e+02    5.2390499115e+01
    1.5430003357e+02    5.2455001831e+01
    1.5440019226e+02    5.2518997192e+01
    1.5450010681e+02    5.2583202362e+01
    1.5460008240e+02    5.2646999359e+01
    1.5470011902e+02    5.2710399628e+01
    1.5480006409e+02    5.2772796631e+01
    1.5490020752e+02    5.2835498810e+01
    1.5500018311e+02    5.2898296356e+01
    1.5510017395e+02    5.2960700989e+01
    1.5520021057e+02    5.3022903442e+01
    1.5530023193e+02    5.3083698273e+01
    1.5540017700e+02    5.3145503998e+01
    1.5550010681e+02    5.3206897736e+01
    1.5560012817e+02    5.3267002106e+01
    1.5570013428e+02    5.3327796936e+01
    1.5580021667e+02    5.3388301849e+01
    1.5590013123e+02    5.3448696136e+01
    1.5600028992e+02    5.3508502960e+01
    1.5610023499e+02    5.3568397522e+01
    1.5620022583e+02    5.3626899719e+01
    1.5630032349e+02    5.3686096191e+01
    1.5640032959e+02    5.3745101929e+01
    1.5650030518e+02    5.3803905487e+01
    1.5660018921e+02    5.3861598969e+01
    1.5670028687e+02    5.3919803619e+01
    1.5680027771e+02    5.3977798462e+01
    1.5690025330e+02    5.4035701752e+01
    1.5700018311e+02    5.4092300415e+01
    1.5710035706e+02    5.4150402069e+01
    1.5720022583e+02    5.4206596375e+01
    1.5730032349e+02    5.4263198853e+01
    1.5740034485e+02    5.4319694519e+01
    1.5750035095e+02    5.4375999451e+01
    1.5760029602e+02    5.4431098938e+01
    1.5770039368e+02    5.4486602783e+01
    1.5780029297e+02    5.4542297363e+01
    1.5790037537e+02    5.4597396851e+01
    1.5800028992e+02    5.4651603699e+01
    1.5810040283e+02    5.4706199646e+01
    1.5820040894e+02    5.4760704041e+01
    1.5830035400e+02    5.4815002441e+01
    1.5840026855e+02    5.4868202209e+01
    1.5850044250e+02    5.4922698975e+01
    1.5860035706e+02    5.4975402832e+01
    1.5870039368e+02    5.5028594971e+01
    1.5880047607e+02    5.5081504822e+01
    1.5890048218e+02    5.5134300232e+01
    1.5900038147e+02    5.5185997009e+01
    1.5910037231e+02    5.5238296509e+01
    1.5920039368e+02    5.5290298462e+01
    1.5930041504e+02    5.5342002869e+01
    1.5940051270e+02    5.5393402100e+01
    1.5950039673e+02    5.5443801880e+01
    1.5960035706e+02    5.5494895935e+01
    1.5970048523e+02    5.5545402527e+01
    1.5980053711e+02    5.5595794678e+01
    1.5990045166e+02    5.5645202637e+01
    1.6000039673e+02    5.5695297241e+01
    1.6010055542e+02    5.5766799927e+01
    1.6020050049e+02    5.5838401794e+01
    1.6030047607e+02    5.5908706665e+01
    1.6040049744e+02    5.5979698181e+01
    1.6050048828e+02    5.6050498962e+01
    1.6060046387e+02    5.6120002747e+01
    1.6070054626e+02    5.6190200806e+01
    1.6080053711e+02    5.6260200500e+01
    1.6090055847e+02    5.6329994202e+01
    1.6100048828e+02    5.6398597717e+01
    1.6110047913e+02    5.6467903137e+01
    1.6120051575e+02    5.6535804749e+01
    1.6130053711e+02    5.6604499817e+01
    1.6140057373e+02    5.6672897339e+01
    1.6150062561e+02    5.6740997314e+01
    1.6160061646e+02    5.6807907104e+01
    1.6170065308e+02    5.6875495911e+01
    1.6180050659e+02    5.6942199707e+01
    1.6190048218e+02    5.7009307861e+01
    1.6200056458e+02    5.7076095581e+01
    1.6210064697e+02    5.7142501831e+01
    1.6220063782e+02    5.7208793640e+01
    1.6230058289e+02    5.7273994446e+01
    1.6240055847e+02    5.7339897156e+01
    1.6250053406e+02    5.7404502869e+01
    1.6260058594e+02    5.7469703674e+01
    1.6270062256e+02    5.7534698486e+01
    1.6280072021e+02    5.7599304199e+01
    1.6290066528e+02    5.7662902832e+01
    1.6300056458e+02    5.7727394104e+01
    1.6310064697e+02    5.7791198730e+01
    1.6320060730e+02    5.7854103088e+01
    1.6330064392e+02    5.7917510986e+01
    1.6340069580e+02    5.7980598450e+01
    1.6350062561e+02    5.8042594910e+01
    1.6360073853e+02    5.8105102539e+01
    1.6370074463e+02    5.8167396545e+01
    1.6380076599e+02    5.8229499817e+01
    1.6390075684e+02    5.8290405273e+01
    1.6400076294e+02    5.8351890564e+01
    1.6410072327e+02    5.8413299561e+01
    1.6420077515e+02    5.8473197937e+01
    1.6430073547e+02    5.8534004211e+01
    1.6440069580e+02    5.8593605042e+01
    1.6450071716e+02    5.8653793335e+01
    1.6460066223e+02    5.8713905334e+01
    1.6470080566e+02    5.8773391724e+01
    1.6480075073e+02    5.8831893921e+01
    1.6490075684e+02    5.8891098022e+01
    1.6500068665e+02    5.8950096130e+01
    1.6510075378e+02    5.9007606506e+01
    1.6520083618e+02    5.9065795898e+01
    1.6530079651e+02    5.9124008179e+01
    1.6540083313e+02    5.9181694031e+01
    1.6550083923e+02    5.9238197327e+01
    1.6560070801e+02    5.9295700073e+01
    1.6570082092e+02    5.9352493286e+01
    1.6580078125e+02    5.9408294678e+01
    1.6590083313e+02    5.9464698792e+01
    1.6600079346e+02    5.9520904541e+01
    1.6610089111e+02    5.9575706482e+01
    1.6620085144e+02    5.9631401062e+01
    1.6630084229e+02    5.9686805725e+01
    1.6640078735e+02    5.9741104126e+01
    1.6650082397e+02    5.9795898438e+01
    1.6660090637e+02    5.9850402832e+01
    1.6670094299e+02    5.9904594421e+01
    1.6680096436e+02    5.9957710266e+01
    1.6690083313e+02    6.0011802673e+01
    1.6700085449e+02    6.0065406799e+01
    1.6710084534e+02    6.0117805481e+01
    1.6720083618e+02    6.0170898438e+01
    1.6730091858e+02    6.0223602295e+01
    1.6740084839e+02    6.0275199890e+01
    1.6750097656e+02    6.0327293396e+01
    1.6760093689e+02    6.0379402161e+01
    1.6770088196e+02    6.0430198669e+01
    1.6780093384e+02    6.0481605530e+01
    1.6790087891e+02    6.0532897949e+01
    1.6800100708e+02    6.0583602905e+01
    1.6810096741e+02    6.0633407593e+01
    1.6820100403e+02    6.0683792114e+01
    1.6830099487e+02    6.0734001160e+01
    1.6840089417e+02    6.0783103943e+01
    1.6850094604e+02    6.0832695007e+01
    1.6860105896e+02    6.0881797791e+01
    1.6870100403e+02    6.0930099487e+01
    1.6880101013e+02    6.0978904724e+01
    1.6890104675e+02    6.1027496338e+01
    1.6900097656e+02    6.1074897766e+01
    1.6910092163e+02    6.1123100281e+01
    1.6920098877e+02    6.1170692444e+01
    1.6930104065e+02    6.1217193604e+01
    1.6940110779e+02    6.1264297485e+01
    1.6950097656e+02    6.1311508179e+01
    1.6960104370e+02    6.1357109070e+01
    1.6970109558e+02    6.1403396606e+01
    1.6980105591e+02    6.1449607849e+01
    1.6990098572e+02    6.1494506836e+01
    1.7000099182e+02    6.1540092468e+01
    1.7010104370e+02    6.1605308533e+01
    1.7020103455e+02    6.1670402527e+01
    1.7030110168e+02    6.1736007690e+01
    1.7040104675e+02    6.1799591064e+01
    1.7050105286e+02    6.1864791870e+01
    1.7060104370e+02    6.1928703308e+01
    1.7070106506e+02    6.1992401123e+01
    1.7080110168e+02    6.2055694580e+01
    1.7090121460e+02    6.2118591309e+01
    1.7100105286e+02    6.2181800842e+01
    1.7110107422e+02    6.2244300842e+01
    1.7120112610e+02    6.2306495667e+01
    1.7130111694e+02    6.2368507385e+01
    1.7140112305e+02    6.2430198669e+01
    1.7150108337e+02    6.2491699219e+01
    1.7160116577e+02    6.2552795410e+01
    1.7170112610e+02    6.2613700867e+01
    1.7180116272e+02    6.2674201965e+01
    1.7190113831e+02    6.2734596252e+01
    1.7200117493e+02    6.2794609070e+01
    1.7210115051e+02    6.2854400635e+01
    1.7220118713e+02    6.2913795471e+01
    1.7230113220e+02    6.2973091125e+01
    1.7240115356e+02    6.3032005310e+01
    1.7250114441e+02    6.3090698242e+01
    1.7260127258e+02    6.3149902344e+01
    1.7270118713e+02    6.3207305908e+01
    1.7280125427e+02    6.3265991211e+01
    1.7290121460e+02    6.3323707581e+01
    1.7300129700e+02    6.3380897522e+01
    1.7310130310e+02    6.3437995911e+01
    1.7320117188e+02    6.3494102478e+01
    1.7330120850e+02    6.3551605225e+01
    1.7340119934e+02    6.3607994080e+01
    1.7350131226e+02    6.3663696289e+01
    1.7360130310e+02    6.3719505310e+01
    1.7370137024e+02    6.3774795532e+01
    1.7380134583e+02    6.3829994202e+01
    1.7390129089e+02    6.3885002136e+01
    1.7400140381e+02    6.3939300537e+01
    1.7410122681e+02    6.3993995667e+01
    1.7420137024e+02    6.4047790527e+01
    1.7430137634e+02    6.4101501465e+01
    1.7440141296e+02    6.4154899597e+01
    1.7450129700e+02    6.4208190918e+01
    1.7460142517e+02    6.4260902405e+01
    1.7470132446e+02    6.4313697815e+01
    1.7480145264e+02    6.4366806030e+01
    1.7490142822e+02    6.4418800354e+01
    1.7500134277e+02    6.4469802856e+01
    1.7510139465e+02    6.4521095276e+01
    1.7520143127e+02    6.4573204041e+01
    1.7530134583e+02    6.4623207092e+01
    1.7540139771e+02    6.4674690247e+01
    1.7550149536e+02    6.4724800110e+01
    1.7560150146e+02    6.4774696350e+01
    1.7570146179e+02    6.4824493408e+01
    1.7580136108e+02    6.4874008179e+01
    1.7590148926e+02    6.4922798157e+01
    1.7600137329e+02    6.4971893311e+01
    1.7610142517e+02    6.5020195007e+01
    1.7620149231e+02    6.5068206787e+01
    1.7630143738e+02    6.5116195679e+01
    1.7640147400e+02    6.5163696289e+01
    1.7650149536e+02    6.5210906982e+01
    1.7660144043e+02    6.5258003235e+01
    1.7670155334e+02    6.5304496765e+01
    1.7680149841e+02    6.5351005554e+01
    1.7690147400e+02    6.5397003174e+01
    1.7700143433e+02    6.5443000793e+01
    1.7710157776e+02    6.5487991333e+01
    1.7720150757e+02    6.5534004211e+01
    1.7730143738e+02    6.5579002380e+01
    1.7740151978e+02    6.5623992920e+01
    1.7750155640e+02    6.5668006897e+01
    1.7760159302e+02    6.5712997437e+01
    1.7770161438e+02    6.5757003784e+01
    1.7780149841e+02    6.5798995972e+01
    1.7790159607e+02    6.5842994690e+01
    1.7800163269e+02    6.5886009216e+01
    1.7810150146e+02    6.5927993774e+01
    1.7820158386e+02    6.5971000671e+01
    1.7830158997e+02    6.6013992310e+01
    1.7840165710e+02    6.6055007935e+01
    1.7850164795e+02    6.6097000122e+01
    1.7860163879e+02    6.6137992859e+01
    1.7870150757e+02    6.6179008484e+01
    1.7880163574e+02    6.6220001221e+01
    1.7890159607e+02    6.6260002136e+01
    1.7900155640e+02    6.6299995422e+01
    1.7910154724e+02    6.6340003967e+01
    1.7920155334e+02    6.6379997253e+01
    1.7930163574e+02    6.6418998718e+01
    1.7940170288e+02    6.6457008362e+01
    1.7950161743e+02    6.6496002197e+01
    1.7960159302e+02    6.6534996033e+01
    1.7970159912e+02    6.6572990417e+01
    1.7980166626e+02    6.6610008240e+01
    1.7990168762e+02    6.6648002625e+01
    1.8000175476e+02    6.6686004639e+01
    1.8010165405e+02    6.6739997864e+01
    1.8020169067e+02    6.6794998169e+01
    1.8030169678e+02    6.6848007202e+01
    1.8040171814e+02    6.6901000977e+01
    1.8050172424e+02    6.6955001831e+01
    1.8060173035e+02    6.7006996155e+01
    1.8070164490e+02    6.7060997009e+01
    1.8080165100e+02    6.7113006592e+01
    1.8090168762e+02    6.7165008545e+01
    1.8100169373e+02    6.7217002869e+01
    1.8110180664e+02    6.7269004822e+01
    1.8120176697e+02    6.7319992065e+01
    1.8130180359e+02    6.7370994568e+01
    1.8140168762e+02    6.7422004700e+01
    1.8150169373e+02    6.7472000122e+01
    1.8160171509e+02    6.7523002625e+01
    1.8170170593e+02    6.7571990967e+01
    1.8180172729e+02    6.7621994019e+01
    1.8190182495e+02    6.7671005249e+01
    1.8200181580e+02    6.7720008850e+01
    1.8210180664e+02    6.7768997192e+01
    1.8220184326e+02    6.7818000793e+01
    1.8230186462e+02    6.7864997864e+01
    1.8240188599e+02    6.7913993835e+01
    1.8250190735e+02    6.7961006165e+01
    1.8260192871e+02    6.8009002686e+01
    1.8270190430e+02    6.8055999756e+01
    1.8280189514e+02    6.8102996826e+01
    1.8290177917e+02    6.8148994446e+01
    1.8300187683e+02    6.8195999146e+01
    1.8310191345e+02    6.8242004395e+01
    1.8320193481e+02    6.8288002014e+01
    1.8330186462e+02    6.8333000183e+01
    1.8340182495e+02    6.8377990723e+01
    1.8350189209e+02    6.8423995972e+01
    1.8360191345e+02    6.8468002319e+01
    1.8370181274e+02    6.8513008118e+01
    1.8380183411e+02    6.8556999207e+01
    1.8390191650e+02    6.8600997925e+01
    1.8400187683e+02    6.8643989563e+01
    1.8410185242e+02    6.8687004089e+01
    1.8420202637e+02    6.8731002808e+01
    1.8430195618e+02    6.8774002075e+01
    1.8440200806e+02    6.8816001892e+01
    1.8450195312e+02    6.8858009338e+01
    1.8460202026e+02    6.8899993896e+01
    1.8470188904e+02    6.8942001343e+01
    1.8480187988e+02    6.8984001160e+01
    1.8490205383e+02    6.9025001526e+01
    1.8500190735e+02    6.9065994263e+01
    1.8510198975e+02    6.9106010437e+01
    1.8520193481e+02    6.9146995544e+01
    1.8530204773e+02    6.9186004639e+01
    1.8540197754e+02    6.9225997925e+01
    1.8550204468e+02    6.9264999390e+01
    1.8560200500e+02    6.9304008484e+01
    1.8570208740e+02    6.9343009949e+01
    1.8580198669e+02    6.9382003784e+01
    1.8590209961e+02    6.9419998169e+01
    1.8600204468e+02    6.9457992554e+01
    1.8610211182e+02    6.9495994568e+01
    1.8620205688e+02    6.9533004761e+01
    1.8630209351e+02    6.9571006775e+01
    1.8640208435e+02    6.9607002258e+01
    1.8650198364e+02    6.9645004272e+01
    1.8660209656e+02    6.9679992676e+01
    1.8670217896e+02    6.9716995239e+01
    1.8680212402e+02    6.9752006531e+01
    1.8690205383e+02    6.9788002014e+01
    1.8700210571e+02    6.9823997498e+01
    1.8710211182e+02    6.9857994080e+01
    1.8720210266e+02    6.9893997192e+01
    1.8730209351e+02    6.9928001404e+01
    1.8740209961e+02    6.9963005066e+01
    1.8750207520e+02    6.9996002197e+01
    1.8760223389e+02    7.0029998779e+01
    1.8770223999e+02    7.0065002441e+01
    1.8780212402e+02    7.0097991943e+01
    1.8790220642e+02    7.0130004883e+01
    1.8800212097e+02    7.0164009094e+01
    1.8810214233e+02    7.0195999146e+01
    1.8820223999e+02    7.0229003906e+01
    1.8830227661e+02    7.0259994507e+01
    1.8840223694e+02    7.0292991638e+01
    1.8850218201e+02    7.0324005127e+01
    1.8860212708e+02    7.0354995728e+01
    1.8870223999e+02    7.0386001587e+01
    1.8880221558e+02    7.0416992188e+01
    1.8890213013e+02    7.0447998047e+01
    1.8900213623e+02    7.0477996826e+01
    1.8910226440e+02    7.0509002686e+01
    1.8920225525e+02    7.0537994385e+01
    1.8930232239e+02    7.0569000244e+01
    1.8940217590e+02    7.0597991943e+01
    1.8950234985e+02    7.0627990723e+01
    1.8960226440e+02    7.0656997681e+01
    1.8970217896e+02    7.0684997559e+01
    1.8980221558e+02    7.0714004517e+01
    1.8990225220e+02    7.0742004395e+01
    1.9000230408e+02    7.0770996094e+01
    1.9010237122e+02    7.0813995361e+01
    1.9020225525e+02    7.0855987549e+01
    1.9030233765e+02    7.0899002075e+01
    1.9040237427e+02    7.0941009521e+01
    1.9050224304e+02    7.0983001709e+01
    1.9060231018e+02    7.1024002075e+01
    1.9070236206e+02    7.1065994263e+01
    1.9080232239e+02    7.1107009888e+01
    1.9090226746e+02    7.1147994995e+01
    1.9100236511e+02    7.1190002441e+01
    1.9110238647e+02    7.1230987549e+01
    1.9120242310e+02    7.1270996094e+01
    1.9130230713e+02    7.1311996460e+01
    1.9140231323e+02    7.1352005005e+01
    1.9150238037e+02    7.1391998291e+01
    1.9160243225e+02    7.1432998657e+01
    1.9170237732e+02    7.1473007202e+01
    1.9180235291e+02    7.1511993408e+01
    1.9190248108e+02    7.1550994873e+01
    1.9200234985e+02    7.1591003418e+01
    1.9210240173e+02    7.1629989624e+01
    1.9220245361e+02    7.1669998169e+01
    1.9230238342e+02    7.1707992554e+01
    1.9240248108e+02    7.1746994019e+01
    1.9250250244e+02    7.1786010742e+01
    1.9260246277e+02    7.1824005127e+01
    1.9270249939e+02    7.1861999512e+01
    1.9280249023e+02    7.1901000977e+01
    1.9290255737e+02    7.1940002441e+01
    1.9300251770e+02    7.1977996826e+01
    1.9310240173e+02    7.2014999390e+01
    1.9320251465e+02    7.2054000854e+01
    1.9330256653e+02    7.2091003418e+01
    1.9340242004e+02    7.2128997803e+01
    1.9350248718e+02    7.2167007446e+01
    1.9360249329e+02    7.2205001831e+01
    1.9370249939e+02    7.2242996216e+01
    1.9380259705e+02    7.2279998779e+01
    1.9390249634e+02    7.2318008423e+01
    1.9400251770e+02    7.2354995728e+01
    1.9410263062e+02    7.2391998291e+01
    1.9420257568e+02    7.2429992676e+01
    1.9430250549e+02    7.2467010498e+01
    1.9440255737e+02    7.2505004883e+01
[...]
    2.5130598450e+02    8.1953002930e+01
    2.5140594482e+02    8.1904998779e+01
    2.5150602722e+02    8.1858001709e+01
    2.5160612488e+02    8.1812011719e+01
    2.5170614624e+02    8.1763000488e+01
    2.5180616760e+02    8.1716003418e+01
    2.5190605164e+02    8.1669006348e+01
    2.5200608826e+02    8.1621002197e+01
    2.5210601807e+02    8.1572998047e+01
    2.5220606995e+02    8.1523986816e+01
    2.5230610657e+02    8.1475982666e+01
    2.5240602112e+02    8.1428009033e+01
    2.5250602722e+02    8.1380004883e+01
    2.5260609436e+02    8.1330993652e+01
    2.5270617676e+02    8.1281982422e+01
    2.5280610657e+02    8.1231994629e+01
    2.5290609741e+02    8.1182983398e+01
    2.5300604248e+02    8.1134002686e+01
    2.5310612488e+02    8.1083984375e+01
    2.5320617676e+02    8.1033996582e+01
    2.5330616760e+02    8.0984985352e+01
    2.5340625000e+02    8.0933990479e+01
    2.5350610352e+02    8.0884002686e+01
    2.5360621643e+02    8.0832977295e+01
    2.5370622253e+02    8.0782989502e+01
    2.5380618286e+02    8.0731994629e+01
    2.5390611267e+02    8.0682006836e+01
    2.5400625610e+02    8.0630004883e+01
    2.5410627747e+02    8.0578979492e+01
    2.5420616150e+02    8.0526977539e+01
    2.5430618286e+02    8.0475982666e+01
    2.5440623474e+02    8.0423980713e+01
    2.5450630188e+02    8.0371978760e+01
    2.5460627747e+02    8.0319976807e+01
    2.5470631409e+02    8.0268005371e+01
    2.5480621338e+02    8.0215026855e+01
    2.5490621948e+02    8.0161987305e+01
    2.5500628662e+02    8.0109985352e+01
    2.5510630798e+02    8.0056976318e+01
    2.5520626831e+02    8.0003997803e+01
    2.5530625916e+02    7.9950988770e+01
    2.5540629578e+02    7.9897979736e+01
    2.5550631714e+02    7.9843017578e+01
    2.5560629272e+02    7.9790008545e+01
    2.5570635986e+02    7.9736022949e+01
    2.5580638123e+02    7.9681976318e+01
    2.5590623474e+02    7.9628021240e+01
    2.5600622559e+02    7.9574005127e+01
    2.5610635376e+02    7.9519012451e+01
    2.5620626831e+02    7.9464996338e+01
    2.5630627441e+02    7.9410003662e+01
    2.5640631104e+02    7.9355010986e+01
    2.5650631714e+02    7.9300018311e+01
    2.5660638428e+02    7.9245025635e+01
    2.5670632935e+02    7.9188995361e+01
    2.5680639648e+02    7.9132995605e+01
    2.5690634155e+02    7.9078002930e+01
    2.5700643921e+02    7.9022003174e+01
    2.5710638428e+02    7.8966003418e+01
    2.5720642090e+02    7.8910003662e+01
    2.5730630493e+02    7.8852996826e+01
    2.5740646362e+02    7.8797027588e+01
    2.5750631714e+02    7.8740020752e+01
    2.5760638428e+02    7.8683013916e+01
    2.5770642090e+02    7.8626007080e+01
    2.5780645752e+02    7.8569000244e+01
    2.5790634155e+02    7.8511016846e+01
    2.5800650024e+02    7.8454010010e+01
    2.5810641479e+02    7.8395996094e+01
    2.5820651245e+02    7.8338012695e+01
    2.5830648804e+02    7.8279998779e+01
    2.5840640259e+02    7.8222991943e+01
    2.5850653076e+02    7.8164001465e+01
    2.5860656738e+02    7.8106018066e+01
    2.5870645142e+02    7.8046997070e+01
    2.5880642700e+02    7.7988006592e+01
    2.5890655518e+02    7.7929016113e+01
    2.5900653076e+02    7.7869995117e+01
    2.5910641479e+02    7.7812011719e+01
    2.5920645142e+02    7.7751007080e+01
    2.5930642700e+02    7.7691986084e+01
    2.5940655518e+02    7.7631988525e+01
    2.5950659180e+02    7.7571990967e+01
    2.5960653687e+02    7.7513000488e+01
    2.5970654297e+02    7.7453002930e+01
    2.5980664062e+02    7.7393005371e+01
    2.5990664673e+02    7.7333007812e+01
    2.6000646973e+02    7.7272003174e+01
    2.6010647583e+02    7.7212005615e+01
    2.6020666504e+02    7.7152008057e+01
    2.6030651855e+02    7.7092010498e+01
    2.6040664673e+02    7.7031982422e+01
    2.6050665283e+02    7.6970977783e+01
    2.6060653687e+02    7.6911010742e+01
    2.6070663452e+02    7.6848999023e+01
    2.6080661011e+02    7.6789001465e+01
    2.6090664673e+02    7.6728027344e+01
    2.6100671387e+02    7.6665985107e+01
    2.6110653687e+02    7.6604980469e+01
    2.6120660400e+02    7.6542999268e+01
    2.6130664062e+02    7.6481994629e+01
    2.6140667725e+02    7.6419006348e+01
    2.6150659180e+02    7.6358001709e+01
    2.6160671997e+02    7.6295989990e+01
    2.6170663452e+02    7.6233001709e+01
    2.6180670166e+02    7.6170989990e+01
    2.6190673828e+02    7.6108001709e+01
    2.6200674438e+02    7.6045013428e+01
    2.6210659790e+02    7.5981994629e+01
    2.6220669556e+02    7.5919006348e+01
    2.6230676270e+02    7.5855010986e+01
    2.6240676880e+02    7.5791992188e+01
    2.6250662231e+02    7.5727996826e+01
    2.6260671997e+02    7.5664001465e+01
    2.6270666504e+02    7.5600006104e+01
    2.6280679321e+02    7.5536010742e+01
    2.6290679932e+02    7.5471984863e+01
    2.6300668335e+02    7.5406982422e+01
    2.6310678101e+02    7.5341979980e+01
    2.6320675659e+02    7.5277008057e+01
    2.6330682373e+02    7.5212005615e+01
    2.6340670776e+02    7.5145996094e+01
    2.6350677490e+02    7.5080017090e+01
    2.6360684204e+02    7.5014984131e+01
    2.6370684814e+02    7.4947998047e+01
    2.6380679321e+02    7.4881988525e+01
    2.6390682983e+02    7.4815002441e+01
    2.6400680542e+02    7.4748992920e+01
    2.6410671997e+02    7.4682006836e+01
    2.6420681763e+02    7.4615020752e+01
    2.6430679321e+02    7.4547027588e+01
    2.6440676880e+02    7.4479980469e+01
    2.6450674438e+02    7.4411987305e+01
    2.6460687256e+02    7.4343994141e+01
    2.6470684814e+02    7.4276000977e+01
    2.6480682373e+02    7.4207000732e+01
    2.6490689087e+02    7.4138977051e+01
    2.6500683594e+02    7.4069976807e+01
    2.6510696411e+02    7.4000000000e+01
    2.6520684814e+02    7.3932006836e+01
    2.6530688477e+02    7.3861999512e+01
    2.6540686035e+02    7.3792022705e+01
    2.6550683594e+02    7.3722015381e+01
    2.6560681152e+02    7.3651977539e+01
    2.6570697021e+02    7.3580993652e+01
    2.6580682373e+02    7.3510009766e+01
    2.6590689087e+02    7.3438995361e+01
    2.6600692749e+02    7.3367004395e+01
    2.6610687256e+02    7.3296020508e+01
    2.6620684814e+02    7.3224029541e+01
    2.6630685425e+02    7.3151977539e+01
    2.6640692139e+02    7.3079986572e+01
    2.6650701904e+02    7.3006988525e+01
    2.6660690308e+02    7.2933990479e+01
    2.6670700073e+02    7.2861022949e+01
    2.6680691528e+02    7.2788024902e+01
    2.6690698242e+02    7.2713989258e+01
    2.6700701904e+02    7.2640991211e+01
    2.6710696411e+02    7.2566986084e+01
    2.6720690918e+02    7.2493011475e+01
    2.6730697632e+02    7.2416992188e+01
    2.6740707397e+02    7.2343017578e+01
    2.6750704956e+02    7.2267974854e+01
    2.6760711670e+02    7.2191986084e+01
    2.6770700073e+02    7.2118011475e+01
    2.6780700684e+02    7.2040985107e+01
    2.6790698242e+02    7.1966003418e+01
    2.6800698853e+02    7.1889007568e+01
    2.6810702515e+02    7.1812988281e+01
    2.6820700073e+02    7.1735992432e+01
    2.6830703735e+02    7.1658996582e+01
    2.6840701294e+02    7.1580993652e+01
    2.6850704956e+02    7.1503997803e+01
    2.6860699463e+02    7.1425994873e+01
    2.6870703125e+02    7.1348022461e+01
    2.6880709839e+02    7.1269989014e+01
    2.6890716553e+02    7.1191986084e+01
    2.6900714111e+02    7.1113006592e+01
    2.6910705566e+02    7.1033996582e+01
    2.6920721436e+02    7.0954010010e+01
    2.6930718994e+02    7.0875000000e+01
    2.6940710449e+02    7.0795013428e+01
    2.6950720215e+02    7.0714996338e+01
    2.6960714722e+02    7.0634979248e+01
    2.6970721436e+02    7.0554992676e+01
    2.6980709839e+02    7.0473999023e+01
    2.6990710449e+02    7.0393005371e+01
    2.7000723267e+02    7.0311981201e+01
    2.7010720825e+02    7.0229003906e+01
    2.7020718384e+02    7.0144989014e+01
    2.7030722046e+02    7.0061004639e+01
    2.7040713501e+02    6.9978027344e+01
    2.7050711060e+02    6.9894012451e+01
    2.7060726929e+02    6.9808990479e+01
    2.7070718384e+02    6.9725006104e+01
    2.7080731201e+02    6.9639984131e+01
    2.7090713501e+02    6.9554016113e+01
    2.7100717163e+02    6.9468994141e+01
    2.7110720825e+02    6.9382995605e+01
    2.7120727539e+02    6.9298004150e+01
    2.7130725098e+02    6.9210998535e+01
    2.7140722656e+02    6.9125000000e+01
    2.7150720215e+02    6.9039001465e+01
    2.7160726929e+02    6.8951995850e+01
    2.7170724487e+02    6.8864990234e+01
    2.7180728149e+02    6.8778015137e+01
    2.7190719604e+02    6.8691009521e+01
    2.7200732422e+02    6.8602996826e+01
    2.7210726929e+02    6.8515991211e+01
    2.7220727539e+02    6.8427001953e+01
    2.7230734253e+02    6.8339996338e+01
    2.7240737915e+02    6.8251007080e+01
    2.7250726318e+02    6.8161987305e+01
    2.7260739136e+02    6.8073974609e+01
    2.7270733643e+02    6.7984008789e+01
    2.7280734253e+02    6.7894989014e+01
    2.7290722656e+02    6.7805999756e+01
    2.7300741577e+02    6.7715972900e+01
    2.7310733032e+02    6.7627014160e+01
    2.7320733643e+02    6.7537017822e+01
    2.7330731201e+02    6.7446990967e+01
    2.7340734863e+02    6.7356994629e+01
    2.7350729370e+02    6.7266021729e+01
    2.7360745239e+02    6.7175994873e+01
    2.7370739746e+02    6.7083984375e+01
    2.7380737305e+02    6.6992980957e+01
    2.7390737915e+02    6.6902008057e+01
    2.7400732422e+02    6.6811004639e+01
    2.7410736084e+02    6.6720001221e+01
    2.7420739746e+02    6.6627990723e+01
    2.7430734253e+02    6.6536987305e+01
    2.7440737915e+02    6.6445007324e+01
    2.7450750732e+02    6.6352020264e+01
    2.7460742188e+02    6.6260009766e+01
    2.7470748901e+02    6.6167999268e+01
    2.7480740356e+02    6.6074005127e+01
    2.7490744019e+02    6.5981994629e+01
    2.7500756836e+02    6.5889007568e+01
    2.7510751343e+02    6.5794982910e+01
    2.7520739746e+02    6.5701995850e+01
    2.7530743408e+02    6.5609008789e+01
    2.7540740967e+02    6.5515991211e+01
    2.7550744629e+02    6.5421997070e+01
    2.7560742188e+02    6.5328002930e+01
    2.7570748901e+02    6.5234008789e+01
    2.7580746460e+02    6.5139007568e+01
    2.7590756226e+02    6.5045013428e+01
    2.7600756836e+02    6.4950988770e+01
    2.7610754395e+02    6.4855010986e+01
    2.7620761108e+02    6.4761016846e+01
    2.7630755615e+02    6.4666015625e+01
    2.7640759277e+02    6.4570983887e+01
    2.7650762939e+02    6.4474975586e+01
    2.7660751343e+02    6.4381011963e+01
    2.7670764160e+02    6.4285003662e+01
    2.7680758667e+02    6.4190002441e+01
    2.7690750122e+02    6.4093994141e+01
    2.7700762939e+02    6.3997985840e+01
    2.7710757446e+02    6.3902008057e+01
    2.7720767212e+02    6.3805999756e+01
    2.7730755615e+02    6.3708984375e+01
    2.7740762329e+02    6.3613006592e+01
    2.7750765991e+02    6.3516021729e+01
    2.7760757446e+02    6.3420013428e+01
    2.7770761108e+02    6.3322998047e+01
    2.7780770874e+02    6.3225982666e+01
    2.7790768433e+02    6.3129028320e+01
    2.7800759888e+02    6.3032012939e+01
    2.7810772705e+02    6.2934997559e+01
    2.7820770264e+02    6.2837005615e+01
    2.7830761719e+02    6.2739013672e+01
    2.7840759277e+02    6.2641998291e+01
    2.7850769043e+02    6.2545013428e+01
    2.7860772705e+02    6.2446990967e+01
    2.7870773315e+02    6.2347991943e+01
    2.7880770874e+02    6.2250000000e+01
    2.7890777588e+02    6.2151000977e+01
    2.7900762939e+02    6.2053009033e+01
    2.7910778809e+02    6.1953979492e+01
    2.7920773315e+02    6.1855987549e+01
    2.7930770874e+02    6.1757019043e+01
    2.7940774536e+02    6.1657989502e+01
    2.7950772095e+02    6.1559997559e+01
    2.7960781860e+02    6.1459991455e+01
    2.7970773315e+02    6.1360992432e+01
    2.7980776978e+02    6.1260986328e+01
    2.7990783691e+02    6.1162994385e+01
    2.8000772095e+02    6.1062988281e+01
    2.8010784912e+02    6.0959991455e+01
    2.8020782471e+02    6.0856994629e+01
    2.8030783081e+02    6.0753021240e+01
    2.8040774536e+02    6.0650024414e+01
    2.8050775146e+02    6.0546020508e+01
    2.8060775757e+02    6.0442993164e+01
    2.8070782471e+02    6.0338989258e+01
    2.8080776978e+02    6.0234985352e+01
    2.8090774536e+02    6.0131988525e+01
    2.8100784302e+02    6.0027984619e+01
    2.8110775757e+02    5.9923980713e+01
    2.8120782471e+02    5.9820007324e+01
    2.8130789185e+02    5.9716003418e+01
    2.8140777588e+02    5.9611999512e+01
    2.8150793457e+02    5.9507995605e+01
    2.8160787964e+02    5.9402984619e+01
    2.8170782471e+02    5.9299011230e+01
    2.8180783081e+02    5.9194976807e+01
    2.8190780640e+02    5.9090026855e+01
    2.8200784302e+02    5.8985015869e+01
    2.8210800171e+02    5.8881011963e+01
    2.8220782471e+02    5.8776000977e+01
    2.8230783081e+02    5.8670989990e+01
    2.8240789795e+02    5.8567016602e+01
    2.8250796509e+02    5.8460998535e+01
    2.8260787964e+02    5.8355987549e+01
    2.8270788574e+02    5.8251007080e+01
    2.8280795288e+02    5.8145996094e+01
    2.8290792847e+02    5.8040985107e+01
    2.8300802612e+02    5.7936004639e+01
    2.8310803223e+02    5.7830993652e+01
    2.8320800781e+02    5.7724975586e+01
    2.8330792236e+02    5.7620025635e+01
    2.8340786743e+02    5.7515014648e+01
    2.8350805664e+02    5.7410003662e+01
    2.8360791016e+02    5.7305023193e+01
    2.8370794678e+02    5.7200012207e+01
    2.8380801392e+02    5.7093994141e+01
    2.8390798950e+02    5.6989013672e+01
    2.8400799561e+02    5.6884002686e+01
    2.8410794067e+02    5.6778991699e+01
    2.8420800781e+02    5.6673004150e+01
    2.8430801392e+02    5.6567993164e+01
    2.8440798950e+02    5.6462005615e+01
    2.8450808716e+02    5.6355987549e+01
    2.8460800171e+02    5.6250976562e+01
    2.8470816040e+02    5.6144989014e+01
    2.8480813599e+02    5.6040008545e+01
    2.8490808105e+02    5.5934997559e+01
    2.8500811768e+02    5.5828979492e+01
    2.8510809326e+02    5.5723022461e+01
    2.8520803833e+02    5.5617004395e+01
    2.8530810547e+02    5.5512023926e+01
    2.8540814209e+02    5.5406005859e+01
    2.8550817871e+02    5.5300018311e+01
    2.8560818481e+02    5.5194000244e+01
    2.8570812988e+02    5.5088012695e+01
    2.8580816650e+02    5.4983001709e+01
    2.8590820312e+02    5.4877014160e+01
    2.8600808716e+02    5.4770996094e+01
    2.8610812378e+02    5.4664978027e+01
    2.8620819092e+02    5.4558990479e+01
    2.8630807495e+02    5.4453979492e+01
    2.8640814209e+02    5.4346984863e+01
    2.8650811768e+02    5.4241027832e+01
    2.8660821533e+02    5.4134979248e+01
    2.8670816040e+02    5.4029022217e+01
    2.8680810547e+02    5.3921997070e+01
    2.8690811157e+02    5.3817016602e+01
    2.8700823975e+02    5.3709991455e+01
    2.8710812378e+02    5.3604003906e+01
    2.8720831299e+02    5.3497985840e+01
    2.8730813599e+02    5.3391998291e+01
    2.8740826416e+02    5.3286010742e+01
    2.8750827026e+02    5.3179016113e+01
    2.8760830688e+02    5.3071990967e+01
    2.8770831299e+02    5.2966003418e+01
    2.8780819702e+02    5.2860015869e+01
    2.8790817261e+02    5.2753997803e+01
    2.8800817871e+02    5.2647003174e+01
    2.8810827637e+02    5.2541015625e+01
    2.8820828247e+02    5.2433990479e+01
    2.8830838013e+02    5.2328002930e+01
    2.8840823364e+02    5.2220977783e+01
    2.8850827026e+02    5.2115966797e+01
    2.8860827637e+02    5.2009002686e+01
    2.8870831299e+02    5.1903015137e+01
    2.8880825806e+02    5.1796966553e+01
    2.8890832520e+02    5.1690002441e+01
    2.8900827026e+02    5.1584014893e+01
    2.8910833740e+02    5.1478027344e+01
    2.8920825195e+02    5.1372009277e+01
    2.8930825806e+02    5.1265014648e+01
    2.8940841675e+02    5.1159027100e+01
    2.8950833130e+02    5.1052978516e+01
    2.8960839844e+02    5.0947998047e+01
    2.8970828247e+02    5.0840972900e+01
    2.8980831909e+02    5.0734985352e+01
    2.8990841675e+02    5.0628021240e+01
    2.9000833130e+02    5.0522979736e+01
    2.9010845947e+02    5.0411987305e+01
    2.9020843506e+02    5.0300994873e+01
    2.9030847168e+02    5.0190002441e+01
    2.9040838623e+02    5.0079010010e+01
    2.9050848389e+02    4.9967987061e+01
    2.9060845947e+02    4.9856994629e+01
    2.9070843506e+02    4.9746002197e+01
    2.9080838013e+02    4.9635009766e+01
    2.9090835571e+02    4.9523986816e+01
    2.9100851440e+02    4.9412963867e+01
    2.9110842896e+02    4.9303009033e+01
    2.9120840454e+02    4.9191009521e+01
    2.9130838013e+02    4.9079986572e+01
    2.9140838623e+02    4.8969970703e+01
    2.9150845337e+02    4.8858001709e+01
    2.9160852051e+02    4.8747985840e+01
    2.9170846558e+02    4.8637023926e+01
    2.9180841064e+02    4.8525970459e+01
    2.9190859985e+02    4.8414978027e+01
    2.9200854492e+02    4.8303985596e+01
    2.9210852051e+02    4.8192993164e+01
    2.9220852661e+02    4.8082031250e+01
    2.9230856323e+02    4.7970977783e+01
    2.9240853882e+02    4.7859985352e+01
    2.9250845337e+02    4.7750000000e+01
    2.9260861206e+02    4.7639007568e+01
    2.9270852661e+02    4.7528015137e+01
    2.9280850220e+02    4.7416992188e+01
    2.9290863037e+02    4.7305999756e+01
    2.9300863647e+02    4.7195983887e+01
    2.9310848999e+02    4.7085021973e+01
    2.9320867920e+02    4.6975006104e+01
    2.9330856323e+02    4.6863983154e+01
    2.9340866089e+02    4.6752990723e+01
    2.9350866699e+02    4.6643981934e+01
    2.9360870361e+02    4.6533020020e+01
    2.9370852661e+02    4.6422973633e+01
    2.9380868530e+02    4.6312988281e+01
    2.9390859985e+02    4.6203002930e+01
    2.9400869751e+02    4.6092010498e+01
    2.9410864258e+02    4.5981994629e+01
    2.9420855713e+02    4.5872009277e+01
    2.9430871582e+02    4.5761993408e+01
    2.9440866089e+02    4.5652984619e+01
    2.9450857544e+02    4.5544006348e+01
    2.9460870361e+02    4.5432983398e+01
    2.9470864868e+02    4.5322998047e+01
    2.9480862427e+02    4.5213989258e+01
    2.9490875244e+02    4.5103027344e+01
    2.9500869751e+02    4.4994018555e+01
    2.9510861206e+02    4.4884979248e+01
    2.9520874023e+02    4.4773986816e+01
    2.9530871582e+02    4.4665008545e+01
    2.9540863037e+02    4.4555023193e+01
    2.9550878906e+02    4.4446014404e+01
    2.9560879517e+02    4.4335968018e+01
    2.9570867920e+02    4.4226013184e+01
    2.9580868530e+02    4.4116027832e+01
    2.9590869141e+02    4.4005981445e+01
    2.9600875854e+02    4.3896972656e+01
    2.9610876465e+02    4.3786987305e+01
    2.9620880127e+02    4.3678009033e+01
    2.9630871582e+02    4.3569030762e+01
    2.9640875244e+02    4.3458984375e+01
    2.9650878906e+02    4.3349975586e+01
    2.9660876465e+02    4.3239990234e+01
    2.9670877075e+02    4.3131011963e+01
    2.9680871582e+02    4.3022033691e+01
    2.9690887451e+02    4.2911987305e+01
    2.9700878906e+02    4.2803009033e+01
    2.9710885620e+02    4.2695007324e+01
    2.9720889282e+02    4.2585021973e+01
    2.9730880737e+02    4.2476989746e+01
    2.9740875244e+02    4.2368988037e+01
    2.9750881958e+02    4.2259002686e+01
    2.9760879517e+02    4.2151031494e+01
    2.9770889282e+02    4.2042022705e+01
    2.9780877686e+02    4.1933990479e+01
    2.9790890503e+02    4.1825988770e+01
    2.9800891113e+02    4.1717010498e+01
    2.9810891724e+02    4.1609008789e+01
    2.9820892334e+02    4.1501007080e+01
    2.9830892944e+02    4.1392974854e+01
    2.9840884399e+02    4.1285003662e+01
    2.9850885010e+02    4.1178009033e+01
    2.9860888672e+02    4.1070007324e+01
    2.9870883179e+02    4.0962982178e+01
    2.9880895996e+02    4.0854980469e+01
    2.9890896606e+02    4.0747009277e+01
    2.9900885010e+02    4.0640014648e+01
    2.9910894775e+02    4.0533020020e+01
    2.9920889282e+02    4.0425994873e+01
    2.9930886841e+02    4.0319000244e+01
    2.9940902710e+02    4.0212005615e+01
    2.9950897217e+02    4.0104034424e+01
    2.9960900879e+02    3.9998046875e+01
    2.9970898438e+02    3.9890991211e+01
    2.9980889893e+02    3.9783996582e+01
    2.9990905762e+02    3.9677001953e+01
endcurve
