Curveplot
LS-DYNA keyword deck by LS-PrePost
Abscissa
Ordinate
XY data
CHOP_NASZ_mo-1 #pts=3000
* Minval=    -1.3921099854e+02 at time=       236.2050781250
* Maxval=     9.1519195848e-06 at time=         4.4998965263
    0.0000000000e+00    0.0000000000e+00
    9.9978484213e-02    8.6668596633e-31
    1.9996924698e-01    3.0357799607e-10
    2.9999575019e-01    7.4207001655e-10
    3.9998039603e-01    1.5694899824e-09
    4.9986803532e-01    4.0165000215e-09
    5.9991192818e-01    8.3825497654e-09
    6.9995886087e-01    1.3512200248e-08
    7.9993838072e-01    6.2239003285e-08
    8.9995062351e-01    4.1190600086e-07
    9.9992913008e-01    8.4834698555e-07
    1.0998107195e+00    1.0681800404e-06
    1.1999957561e+00    1.2601300341e-06
    1.2999640703e+00    1.5606500483e-06
    1.3998620510e+00    1.9231999886e-06
    1.4998643398e+00    2.1817199922e-06
    1.5998389721e+00    2.6392699510e-06
    1.6999863386e+00    3.0538099054e-06
    1.7999671698e+00    3.4459399103e-06
    1.8999462128e+00    3.8596099330e-06
    1.9998190403e+00    4.2849101192e-06
    2.0998318195e+00    4.9099799071e-06
    2.1999120712e+00    5.6563999351e-06
    2.2999908924e+00    6.7105402195e-06
    2.3999950886e+00    7.6008000178e-06
    2.4998490810e+00    8.3187796918e-06
    2.5998566151e+00    8.7597800302e-06
    2.6998775005e+00    9.0093999461e-06
    2.7998862267e+00    9.0572802947e-06
    2.8999786377e+00    9.1032497949e-06
    2.9999771118e+00    8.8490796770e-06
    3.0998694897e+00    8.3399099822e-06
    3.1999659538e+00    7.6165001701e-06
    3.2999231815e+00    6.5143999564e-06
    3.3999369144e+00    5.6265398598e-06
    3.4999270439e+00    4.8911301747e-06
    3.5999314785e+00    4.5388201215e-06
    3.6998090744e+00    4.5547299123e-06
    3.7998888493e+00    5.0455100791e-06
    3.8999800682e+00    5.5458799579e-06
    3.9999651909e+00    6.4754399318e-06
    4.0998544693e+00    7.3694800449e-06
    4.1999692917e+00    8.2208198364e-06
    4.2999444008e+00    8.8972601588e-06
    4.3998169899e+00    9.0564899438e-06
    4.4998965263e+00    9.1519195848e-06
    4.5998468399e+00    8.6852696768e-06
    4.6999955177e+00    7.9703404481e-06
    4.7999196053e+00    6.5127501330e-06
    4.8998670578e+00    4.3629602260e-06
    4.9999299049e+00    1.1134300166e-06
    5.0999426842e+00   -3.1052600207e-06
    5.1999893188e+00   -8.4991397671e-06
    5.2999830246e+00   -1.4944500435e-05
    5.3998517990e+00   -2.2466199880e-05
    5.4999961853e+00   -3.0870400224e-05
    5.5998907089e+00   -4.0094000724e-05
    5.6999425888e+00   -5.0275899412e-05
    5.7998881340e+00   -6.1495898990e-05
    5.8998928070e+00   -7.3870898632e-05
    5.9999957085e+00   -8.7092099420e-05
    6.0998554230e+00   -1.0160900274e-04
    6.1999573708e+00   -1.1677399743e-04
    6.2999229431e+00   -1.3313999807e-04
    6.3998460770e+00   -1.5031000657e-04
    6.4999690056e+00   -1.6850000247e-04
    6.5999045372e+00   -1.8739199731e-04
    6.6998834610e+00   -2.0726000366e-04
    6.7999844551e+00   -2.2774000536e-04
    6.8999052048e+00   -2.4900899734e-04
    6.9999651909e+00   -2.7111600502e-04
    7.0999860764e+00   -2.9367901152e-04
    7.1998958588e+00   -3.1726001180e-04
    7.2998194695e+00   -3.4121700446e-04
    7.3999600410e+00   -3.6627700320e-04
    7.4999413490e+00   -3.9166299393e-04
    7.5999202728e+00   -4.1791598778e-04
    7.6998214722e+00   -4.4441199861e-04
    7.7999825478e+00   -4.7171101323e-04
    7.8999524117e+00   -4.9944402417e-04
    7.9999160767e+00   -5.2797299577e-04
    8.0999364853e+00   -5.5742001859e-04
    8.1998634338e+00   -5.8744102716e-04
    8.2999658585e+00   -6.1880401336e-04
    8.3998365402e+00   -6.5062998328e-04
    8.4998741150e+00   -6.8389001535e-04
    8.5998420715e+00   -7.1758497506e-04
    8.6999721527e+00   -7.5240398291e-04
    8.7998924255e+00   -7.8733102418e-04
    8.8998708725e+00   -8.2285999088e-04
    8.9999132156e+00   -8.5885700537e-04
    9.0998907089e+00   -8.9511001715e-04
    9.1998729706e+00   -9.3177799135e-04
    9.2999591827e+00   -9.6871698042e-04
    9.3998889923e+00   -1.0062999791e-03
    9.4999914169e+00   -1.0443900246e-03
    9.5999307632e+00   -1.0834099958e-03
    9.6998796463e+00   -1.1228900403e-03
    9.7998456955e+00   -1.1637699790e-03
    9.8998899460e+00   -1.2052999809e-03
    9.9998445511e+00   -1.2484500185e-03
    1.0099917412e+01   -1.2927600183e-03
    1.0199895859e+01   -1.3386600185e-03
    1.0299830437e+01   -1.3860500185e-03
    1.0399949074e+01   -1.4348600525e-03
    1.0499876022e+01   -1.4853699831e-03
    1.0599975586e+01   -1.5370800393e-03
    1.0699978828e+01   -1.5904899919e-03
    1.0799916267e+01   -1.6449299874e-03
    1.0899959564e+01   -1.7015699996e-03
    1.0999827385e+01   -1.7595499521e-03
    1.1099987030e+01   -1.8197899917e-03
    1.1199858665e+01   -1.8813799834e-03
    1.1299838066e+01   -1.9449399551e-03
    1.1399964333e+01   -2.0102900453e-03
    1.1499829292e+01   -2.0773299038e-03
    1.1599967957e+01   -2.1464999299e-03
    1.1699872971e+01   -2.2170399316e-03
    1.1799877167e+01   -2.2896199953e-03
    1.1899894714e+01   -2.3634100799e-03
    1.1999987602e+01   -2.4388399906e-03
    1.2099980354e+01   -2.5150200818e-03
    1.2199988365e+01   -2.5926700328e-03
    1.2299961090e+01   -2.6712398976e-03
    1.2399939537e+01   -2.7515001129e-03
    1.2499855042e+01   -2.8331500944e-03
    1.2599958420e+01   -2.9168101028e-03
    1.2699847221e+01   -3.0019099358e-03
    1.2799872398e+01   -3.0883001164e-03
    1.2899971962e+01   -3.1766900793e-03
    1.2999979019e+01   -3.2665100880e-03
    1.3099848747e+01   -3.3585699275e-03
    1.3199970245e+01   -3.4528700635e-03
    1.3299947739e+01   -3.5493699834e-03
    1.3399851799e+01   -3.6472999491e-03
    1.3500013351e+01   -3.7472799886e-03
    1.3599904060e+01   -3.8480900694e-03
    1.3699869156e+01   -3.9504398592e-03
    1.3799922943e+01   -4.0542301722e-03
    1.3899854660e+01   -4.1590598412e-03
    1.3999905586e+01   -4.2659998871e-03
    1.4099831581e+01   -4.3744300492e-03
    1.4199877739e+01   -4.4855200686e-03
    1.4299827576e+01   -4.5990701765e-03
    1.4399900436e+01   -4.7158598900e-03
    1.4499928474e+01   -4.8356298357e-03
    1.4599974632e+01   -4.9587599933e-03
    1.4699851036e+01   -5.0846701488e-03
    1.4799844742e+01   -5.2145300433e-03
    1.4899865150e+01   -5.3480598144e-03
    1.4999941826e+01   -5.4856799543e-03
    1.5099879265e+01   -5.6273601949e-03
    1.5200014114e+01   -5.7733901776e-03
    1.5299992561e+01   -5.9232101776e-03
    1.5399872780e+01   -6.0762199573e-03
    1.5499929428e+01   -6.2330001965e-03
    1.5599972725e+01   -6.3926200382e-03
    1.5699997902e+01   -6.5557900816e-03
    1.5800017357e+01   -6.7220800556e-03
    1.5900013924e+01   -6.8917698227e-03
    1.5999876976e+01   -7.0643401705e-03
    1.6099855423e+01   -7.2402800433e-03
    1.6199890137e+01   -7.4195000343e-03
    1.6299869537e+01   -7.6018702239e-03
    1.6399835587e+01   -7.7876700088e-03
    1.6499855042e+01   -7.9766204581e-03
    1.6599964142e+01   -8.1689497456e-03
    1.6699871063e+01   -8.3636604249e-03
    1.6799943924e+01   -8.5617396981e-03
    1.6899995804e+01   -8.7625999004e-03
    1.7000028610e+01   -8.9661898091e-03
    1.7099853516e+01   -9.1721098870e-03
    1.7200014114e+01   -9.3815801665e-03
    1.7299926758e+01   -9.5929801464e-03
    1.7399890900e+01   -9.8072802648e-03
    1.7499887466e+01   -1.0024099611e-02
    1.7599851608e+01   -1.0243499652e-02
    1.7699928284e+01   -1.0465599597e-02
    1.7799875259e+01   -1.0689700022e-02
    1.7899969101e+01   -1.0916899890e-02
    1.8000001907e+01   -1.1146600358e-02
    1.8099843979e+01   -1.1378999799e-02
    1.8199890137e+01   -1.1614800431e-02
    1.8299907684e+01   -1.1853800155e-02
    1.8400011063e+01   -1.2095999904e-02
    1.8499933243e+01   -1.2341099791e-02
    1.8599889755e+01   -1.2589200400e-02
    1.8699989319e+01   -1.2840799987e-02
    1.8799970627e+01   -1.3094999827e-02
    1.8899879456e+01   -1.3352000155e-02
    1.8999954224e+01   -1.3612500392e-02
    1.9099882126e+01   -1.3875899836e-02
    1.9200035095e+01   -1.4143199660e-02
    1.9299968719e+01   -1.4413599856e-02
    1.9399879456e+01   -1.4687499963e-02
    1.9500013351e+01   -1.4966100454e-02
    1.9600021362e+01   -1.5248600394e-02
    1.9700002670e+01   -1.5534900129e-02
    1.9799850464e+01   -1.5825299546e-02
    1.9900026321e+01   -1.6121000051e-02
    1.9999965668e+01   -1.6420500353e-02
    2.0100011826e+01   -1.6724800691e-02
    2.0199968338e+01   -1.7033500597e-02
    2.0299972534e+01   -1.7346899956e-02
    2.0399957657e+01   -1.7665099353e-02
    2.0499944687e+01   -1.7987700179e-02
    2.0599990845e+01   -1.8314799294e-02
    2.0699962616e+01   -1.8646299839e-02
    2.0799880981e+01   -1.8981799483e-02
    2.0899950027e+01   -1.9322600216e-02
    2.0999872208e+01   -1.9667500630e-02
    2.1099952698e+01   -2.0017700270e-02
    2.1200006485e+01   -2.0372400060e-02
    2.1299985886e+01   -2.0731400698e-02
    2.1399873734e+01   -2.1094599739e-02
    2.1500017166e+01   -2.1463200450e-02
    2.1599948883e+01   -2.1835399792e-02
    2.1699882507e+01   -2.2211799398e-02
    2.1800001144e+01   -2.2593300790e-02
    2.1900007248e+01   -2.2978300229e-02
    2.2000038147e+01   -2.3367499933e-02
    2.2100044250e+01   -2.3760100827e-02
    2.2200023651e+01   -2.4156499654e-02
    2.2299959183e+01   -2.4556299672e-02
    2.2399948120e+01   -2.4960499257e-02
    2.2499948502e+01   -2.5368999690e-02
    2.2599941254e+01   -2.5781899691e-02
    2.2699945450e+01   -2.6199400425e-02
    2.2799953461e+01   -2.6621300727e-02
    2.2899995804e+01   -2.7047999203e-02
    2.2999944687e+01   -2.7479099110e-02
    2.3099952698e+01   -2.7915799990e-02
    2.3200033188e+01   -2.8358200565e-02
    2.3299945831e+01   -2.8805300593e-02
    2.3400026321e+01   -2.9258200899e-02
    2.3499912262e+01   -2.9715100303e-02
    2.3599893570e+01   -3.0177099630e-02
    2.3699974060e+01   -3.0644200742e-02
    2.3799993515e+01   -3.1115699559e-02
    2.3900035858e+01   -3.1591698527e-02
    2.3999940872e+01   -3.2072100788e-02
    2.4100013733e+01   -3.2558500767e-02
    2.4200021744e+01   -3.3050399274e-02
    2.4299985886e+01   -3.3547900617e-02
    2.4399887085e+01   -3.4051399678e-02
    2.4500038147e+01   -3.4562300891e-02
    2.4600051880e+01   -3.5078901798e-02
    2.4699977875e+01   -3.5601299256e-02
    2.4799957275e+01   -3.6130599678e-02
    2.4899955750e+01   -3.6667000502e-02
    2.4999996185e+01   -3.7210900337e-02
    2.5099960327e+01   -3.7762001157e-02
    2.5200010300e+01   -3.8320899010e-02
    2.5299911499e+01   -3.8885999471e-02
    2.5400011063e+01   -3.9458401501e-02
    2.5500036240e+01   -4.0036398917e-02
    2.5599990845e+01   -4.0619399399e-02
    2.5700033188e+01   -4.1209101677e-02
    2.5800006866e+01   -4.1804198176e-02
    2.5899984360e+01   -4.2405501008e-02
    2.5999898911e+01   -4.3012600392e-02
    2.6100059509e+01   -4.3627098203e-02
    2.6199945450e+01   -4.4246099889e-02
    2.6299913406e+01   -4.4871900231e-02
    2.6400053024e+01   -4.5504998416e-02
    2.6500009537e+01   -4.6142999083e-02
    2.6599924088e+01   -4.6787101775e-02
    2.6700000763e+01   -4.7437898815e-02
    2.6799907684e+01   -4.8093698919e-02
    2.6899971008e+01   -4.8756498843e-02
    2.6999950409e+01   -4.9424599856e-02
    2.7099922180e+01   -5.0098899752e-02
    2.7199901581e+01   -5.0779201090e-02
    2.7299985886e+01   -5.1465898752e-02
    2.7400024414e+01   -5.2158299834e-02
    2.7499940872e+01   -5.2855700254e-02
    2.7599908829e+01   -5.3559098393e-02
    2.7699993134e+01   -5.4269101471e-02
    2.7799991608e+01   -5.4984100163e-02
    2.7899969101e+01   -5.5705100298e-02
    2.7999910355e+01   -5.6432098150e-02
    2.8100070953e+01   -5.7167198509e-02
    2.8199888229e+01   -5.7906601578e-02
    2.8300001144e+01   -5.8655101806e-02
    2.8399957657e+01   -5.9409100562e-02
    2.8500013351e+01   -6.0171000659e-02
    2.8599887848e+01   -6.0938298702e-02
    2.8700056076e+01   -6.1714798212e-02
    2.8800052643e+01   -6.2496699393e-02
    2.8899902344e+01   -6.3284300268e-02
    2.9000049591e+01   -6.4081497490e-02
    2.9100034714e+01   -6.4884603024e-02
    2.9199886322e+01   -6.5694302320e-02
    2.9299921036e+01   -6.6513098776e-02
    2.9399984360e+01   -6.7340202630e-02
    2.9499942780e+01   -6.8174302578e-02
    2.9599922180e+01   -6.9016799331e-02
    2.9700008392e+01   -6.9868102670e-02
    2.9800031662e+01   -7.0726796985e-02
    2.9900030136e+01   -7.1593001485e-02
    2.9999967575e+01   -7.2466202080e-02
    3.0099981308e+01   -7.3347896338e-02
    3.0200014114e+01   -7.4237398803e-02
    3.0299978256e+01   -7.5134098530e-02
    3.0400070190e+01   -7.6039202511e-02
    3.0499954224e+01   -7.6949998736e-02
    3.0600019455e+01   -7.7869601548e-02
    3.0699998856e+01   -7.8795902431e-02
    3.0799953461e+01   -7.9729102552e-02
    3.0899932861e+01   -8.0670699477e-02
    3.1000024796e+01   -8.1620998681e-02
    3.1099931717e+01   -8.2577399909e-02
    3.1200069427e+01   -8.3544097841e-02
    3.1299940109e+01   -8.4515802562e-02
    3.1400039673e+01   -8.5497796535e-02
    3.1500070572e+01   -8.6486503482e-02
    3.1600055695e+01   -8.7482802570e-02
    3.1699979782e+01   -8.8486000896e-02
    3.1799968719e+01   -8.9497797191e-02
    3.1900081635e+01   -9.0518198907e-02
    3.2000061035e+01   -9.1544799507e-02
    3.2100006104e+01   -9.2577703297e-02
    3.2200061798e+01   -9.3618698418e-02
    3.2300071716e+01   -9.4666197896e-02
    3.2400058746e+01   -9.5721200109e-02
    3.2499992371e+01   -9.6784099936e-02
    3.2599975586e+01   -9.7855798900e-02
    3.2700008392e+01   -9.8936699331e-02
    3.2800052643e+01   -1.0002599657e-01
    3.2899879456e+01   -1.0112100095e-01
    3.2999992371e+01   -1.0222800076e-01
    3.3099994659e+01   -1.0334300250e-01
    3.3199977875e+01   -1.0446900129e-01
    3.3300010681e+01   -1.0560400039e-01
    3.3399940491e+01   -1.0674700141e-01
    3.3499900818e+01   -1.0789900273e-01
    3.3599880219e+01   -1.0905899853e-01
    3.3700042725e+01   -1.1022800207e-01
    3.3800014496e+01   -1.1140300333e-01
    3.3899890900e+01   -1.1258500069e-01
    3.3999885559e+01   -1.1377699673e-01
    3.4099937439e+01   -1.1497800052e-01
    3.4200042725e+01   -1.1618900299e-01
    3.4299919128e+01   -1.1740799993e-01
    3.4399944305e+01   -1.1863999814e-01
    3.4499904633e+01   -1.1988099664e-01
    3.4600013733e+01   -1.2113499641e-01
    3.4699981689e+01   -1.2239799649e-01
    3.4799942017e+01   -1.2367200106e-01
    3.4900001526e+01   -1.2495999783e-01
    3.4999969482e+01   -1.2625899911e-01
    3.5099998474e+01   -1.2757299840e-01
    3.5199962616e+01   -1.2889899313e-01
    3.5299983978e+01   -1.3023899496e-01
    3.5399917603e+01   -1.3158999383e-01
    3.5499847412e+01   -1.3295200467e-01
    3.5599887848e+01   -1.3432599604e-01
    3.5699939728e+01   -1.3571299613e-01
    3.5799953461e+01   -1.3711099327e-01
    3.5899932861e+01   -1.3852000237e-01
    3.5999992371e+01   -1.3994300365e-01
    3.6099975586e+01   -1.4137600362e-01
    3.6199939728e+01   -1.4282099903e-01
    3.6299869537e+01   -1.4427599311e-01
    3.6399940491e+01   -1.4574700594e-01
    3.6499851227e+01   -1.4722600579e-01
    3.6599891663e+01   -1.4871799946e-01
    3.6700000763e+01   -1.5022300184e-01
    3.6799980164e+01   -1.5173700452e-01
    3.6899845123e+01   -1.5325999260e-01
    3.6999824524e+01   -1.5479600430e-01
    3.7099853516e+01   -1.5634499490e-01
    3.7199901581e+01   -1.5790499747e-01
    3.7299938202e+01   -1.5947799385e-01
    3.7399818420e+01   -1.6105900705e-01
    3.7499870300e+01   -1.6265399754e-01
    3.7599861145e+01   -1.6425800323e-01
    3.7699840546e+01   -1.6587300599e-01
    3.7799888611e+01   -1.6750000417e-01
    3.7899879456e+01   -1.6913799942e-01
    3.7999980927e+01   -1.7078900337e-01
    3.8099960327e+01   -1.7245100439e-01
    3.8199806213e+01   -1.7412300408e-01
    3.8299964905e+01   -1.7581300437e-01
    3.8399871826e+01   -1.7751100659e-01
    3.8499839783e+01   -1.7922300100e-01
    3.8599876404e+01   -1.8094800413e-01
    3.8699844360e+01   -1.8268400431e-01
    3.8799907684e+01   -1.8443299830e-01
    3.8899879456e+01   -1.8619200587e-01
    3.8999782562e+01   -1.8795999885e-01
    3.9099800110e+01   -1.8974199891e-01
    3.9199962616e+01   -1.9153800607e-01
    3.9299812317e+01   -1.9334000349e-01
    3.9399856567e+01   -1.9515800476e-01
    3.9499813080e+01   -1.9698700309e-01
    3.9599784851e+01   -1.9882899523e-01
    3.9699935913e+01   -2.0068700612e-01
    3.9799903870e+01   -2.0255500078e-01
    3.9899955750e+01   -2.0443700254e-01
    3.9999843597e+01   -2.0633000135e-01
    4.0099822998e+01   -2.0823800564e-01
    4.0199943542e+01   -2.1016299725e-01
    4.0299949646e+01   -2.1209900081e-01
    4.0399887085e+01   -2.1404799819e-01
    4.0499950409e+01   -2.1601200104e-01
    4.0599899292e+01   -2.1798700094e-01
    4.0699825287e+01   -2.1997499466e-01
    4.0799785614e+01   -2.2197799385e-01
    4.0899852753e+01   -2.2399699688e-01
    4.0999790192e+01   -2.2602799535e-01
    4.1099807739e+01   -2.2807599604e-01
    4.1199913025e+01   -2.3014099896e-01
    4.1299823761e+01   -2.3221699893e-01
    4.1399814606e+01   -2.3431000113e-01
    4.1499797821e+01   -2.3641699553e-01
    4.1599777222e+01   -2.3853899539e-01
    4.1699829102e+01   -2.4067799747e-01
    4.1799785614e+01   -2.4282999337e-01
    4.1899822235e+01   -2.4499699473e-01
    4.1999851227e+01   -2.4717800319e-01
    4.2099796295e+01   -2.4937100708e-01
    4.2199840546e+01   -2.5157800317e-01
    4.2299900055e+01   -2.5379899144e-01
    4.2399879456e+01   -2.5603300333e-01
    4.2499862671e+01   -2.5828200579e-01
    4.2599845886e+01   -2.6054498553e-01
    4.2699893951e+01   -2.6282599568e-01
    4.2799880981e+01   -2.6511898637e-01
    4.2899799347e+01   -2.6742699742e-01
    4.2999855042e+01   -2.6975399256e-01
    4.3099834442e+01   -2.7209600806e-01
    4.3199901581e+01   -2.7445998788e-01
    4.3299850464e+01   -2.7683699131e-01
    4.3399879456e+01   -2.7923399210e-01
    4.3499858856e+01   -2.8164499998e-01
    4.3599857330e+01   -2.8407201171e-01
    4.3699840546e+01   -2.8651401401e-01
    4.3799884796e+01   -2.8897300363e-01
    4.3899826050e+01   -2.9144400358e-01
    4.3999813080e+01   -2.9393300414e-01
    4.4099761963e+01   -2.9643800855e-01
    4.4199886322e+01   -2.9896500707e-01
    4.4299701691e+01   -3.0150398612e-01
    4.4399765015e+01   -3.0406799912e-01
    4.4499809265e+01   -3.0665200949e-01
    4.4599834442e+01   -3.0925399065e-01
    4.4699874878e+01   -3.1187701225e-01
    4.4799819946e+01   -3.1451800466e-01
    4.4899723053e+01   -3.1718000770e-01
    4.4999832153e+01   -3.1986901164e-01
    4.5099697113e+01   -3.2257500291e-01
    4.5199726105e+01   -3.2530799508e-01
    4.5299709320e+01   -3.2806101441e-01
    4.5399730682e+01   -3.3083501458e-01
    4.5499698639e+01   -3.3362698555e-01
    4.5599845886e+01   -3.3644300699e-01
    4.5699741364e+01   -3.3927199244e-01
    4.5799777985e+01   -3.4212398529e-01
    4.5899734497e+01   -3.4499400854e-01
    4.5999744415e+01   -3.4788501263e-01
    4.6099739075e+01   -3.5079601407e-01
    4.6199718475e+01   -3.5372599959e-01
    4.6299686432e+01   -3.5667601228e-01
    4.6399845123e+01   -3.5965201259e-01
    4.6499759674e+01   -3.6264100671e-01
    4.6599739075e+01   -3.6565101147e-01
    4.6699840546e+01   -3.6868500710e-01
    4.6799747467e+01   -3.7173101306e-01
    4.6899761200e+01   -3.7480100989e-01
    4.6999816895e+01   -3.7789100409e-01
    4.7099716187e+01   -3.8099598885e-01
    4.7199798584e+01   -3.8412600756e-01
    4.7299846649e+01   -3.8727501035e-01
    4.7399768829e+01   -3.9043900371e-01
    4.7499748230e+01   -3.9362299442e-01
    4.7599758148e+01   -3.9682701230e-01
    4.7699684143e+01   -4.0004700422e-01
    4.7799720764e+01   -4.0328800678e-01
    4.7899700165e+01   -4.0654700994e-01
    4.7999774933e+01   -4.0982800722e-01
    4.8099674225e+01   -4.1312500834e-01
    4.8199775696e+01   -4.1644901037e-01
    4.8299728394e+01   -4.1978898644e-01
    4.8399703979e+01   -4.2315098643e-01
    4.8499652863e+01   -4.2653301358e-01
    4.8599742889e+01   -4.2993998528e-01
    4.8699649811e+01   -4.3336099386e-01
    4.8799812317e+01   -4.3680998683e-01
    4.8899719238e+01   -4.4027000666e-01
    4.8999767303e+01   -4.4375500083e-01
    4.9099670410e+01   -4.4725498557e-01
    4.9199680328e+01   -4.5077899098e-01
    4.9299663544e+01   -4.5432400703e-01
    4.9399784088e+01   -4.5789599419e-01
    4.9499763489e+01   -4.6148699522e-01
    4.9599636078e+01   -4.6509599686e-01
    4.9699626923e+01   -4.6873301268e-01
    4.9799770355e+01   -4.7239801288e-01
    4.9899654388e+01   -4.7607898712e-01
    4.9999687195e+01   -4.7978800535e-01
    5.0099800110e+01   -4.8352500796e-01
    5.0199783325e+01   -4.8728099465e-01
    5.0299636841e+01   -4.9105599523e-01
    5.0399639130e+01   -4.9486100674e-01
    5.0499668121e+01   -4.9868899584e-01
    5.0599700928e+01   -5.0253999233e-01
    5.0699737549e+01   -5.0641399622e-01
    5.0799652100e+01   -5.1030701399e-01
    5.0899642944e+01   -5.1422798634e-01
    5.0999744415e+01   -5.1817697287e-01
    5.1099723816e+01   -5.2214699984e-01
    5.1199726105e+01   -5.2614301443e-01
    5.1299755096e+01   -5.3016501665e-01
    5.1399738312e+01   -5.3421002626e-01
    5.1499713898e+01   -5.3828001022e-01
    5.1599689484e+01   -5.4237502813e-01
    5.1699775696e+01   -5.4649901390e-01
    5.1799686432e+01   -5.5064100027e-01
    5.1899726868e+01   -5.5481302738e-01
    5.1999675751e+01   -5.5900400877e-01
    5.2099670410e+01   -5.6322097778e-01
    5.2199581146e+01   -5.6745797396e-01
    5.2299602509e+01   -5.7172197104e-01
    5.2399597168e+01   -5.7600998878e-01
    5.2499652863e+01   -5.8032500744e-01
    5.2599655151e+01   -5.8466398716e-01
    5.2699722290e+01   -5.8903002739e-01
    5.2799743652e+01   -5.9341901541e-01
    5.2899757385e+01   -5.9783399105e-01
    5.2999633789e+01   -6.0227000713e-01
    5.3099700928e+01   -6.0674297810e-01
    5.3199680328e+01   -6.1124199629e-01
    5.3299678802e+01   -6.1576902866e-01
    5.3399677277e+01   -6.2032401562e-01
    5.3499660492e+01   -6.2490499020e-01
    5.3599674225e+01   -6.2951201200e-01
    5.3699611664e+01   -6.3414198160e-01
    5.3799594879e+01   -6.3879901171e-01
    5.3899608612e+01   -6.4348399639e-01
    5.3999633789e+01   -6.4819598198e-01
    5.4099571228e+01   -6.5293097496e-01
    5.4199718475e+01   -6.5770399570e-01
    5.4299598694e+01   -6.6249400377e-01
    5.4399581909e+01   -6.6731899977e-01
    5.4499683380e+01   -6.7217999697e-01
    5.4599693298e+01   -6.7706602812e-01
    5.4699703217e+01   -6.8198299408e-01
    5.4799686432e+01   -6.8692898750e-01
    5.4899551392e+01   -6.9190198183e-01
    5.4999729156e+01   -6.9692498446e-01
    5.5099594116e+01   -7.0196700096e-01
    5.5199577332e+01   -7.0704901218e-01
    5.5299697876e+01   -7.1217197180e-01
    5.5399623871e+01   -7.1731597185e-01
    5.5499610901e+01   -7.2249299288e-01
    5.5599674225e+01   -7.2770398855e-01
    5.5699680328e+01   -7.3294299841e-01
    5.5799659729e+01   -7.3821097612e-01
    5.5899597168e+01   -7.4350899458e-01
    5.5999679565e+01   -7.4884599447e-01
    5.6099685669e+01   -7.5420999527e-01
    5.6199665070e+01   -7.5960600376e-01
    5.6299633026e+01   -7.6503300667e-01
    5.6399654388e+01   -7.7049601078e-01
    5.6499568939e+01   -7.7598500252e-01
    5.6599548340e+01   -7.8150898218e-01
    5.6699527740e+01   -7.8706502914e-01
    5.6799667358e+01   -7.9265999794e-01
    5.6899524689e+01   -7.9827100039e-01
    5.6999530792e+01   -8.0392301083e-01
    5.7099624634e+01   -8.0961102247e-01
    5.7199695587e+01   -8.1532901525e-01
    5.7299674988e+01   -8.2107400894e-01
    5.7399620056e+01   -8.2684797049e-01
    5.7499599457e+01   -8.3265501261e-01
    5.7599651337e+01   -8.3849501610e-01
    5.7699665070e+01   -8.4436398745e-01
    5.7799533844e+01   -8.5025501251e-01
    5.7899673462e+01   -8.5619300604e-01
    5.7999649048e+01   -8.6215400696e-01
    5.8099586487e+01   -8.6814600229e-01
    5.8199554443e+01   -8.7417399883e-01
    5.8299617767e+01   -8.8024300337e-01
    5.8399524689e+01   -8.8633602858e-01
    5.8499504089e+01   -8.9246898890e-01
    5.8599559784e+01   -8.9863997698e-01
    5.8699535370e+01   -9.0483897924e-01
    5.8799613953e+01   -9.1107702255e-01
    5.8899623871e+01   -9.1734397411e-01
    5.8999477386e+01   -9.2363297939e-01
    5.9099517822e+01   -9.2996799946e-01
    5.9199573517e+01   -9.3633902073e-01
    5.9299556732e+01   -9.4274002314e-01
    5.9399486542e+01   -9.4917500019e-01
    5.9499645233e+01   -9.5566099882e-01
    5.9599590302e+01   -9.6217000484e-01
    5.9699569702e+01   -9.6871799231e-01
    5.9799636841e+01   -9.7530800104e-01
    5.9899551392e+01   -9.8192501068e-01
    5.9999645233e+01   -9.8859101534e-01
    6.0099468231e+01   -9.9527698755e-01
    6.0199592590e+01   -1.0020200014e+00
    6.0299575806e+01   -1.0087900162e+00
    6.0399642944e+01   -1.0155999660e+00
    6.0499549866e+01   -1.0224399567e+00
    6.0599517822e+01   -1.0293200016e+00
    6.0699520111e+01   -1.0362299681e+00
    6.0799533844e+01   -1.0431799889e+00
    6.0899536133e+01   -1.0501699448e+00
    6.0999496460e+01   -1.0571899414e+00
    6.1099483490e+01   -1.0642600060e+00
    6.1199604034e+01   -1.0713700056e+00
    6.1299476624e+01   -1.0785000324e+00
    6.1399471283e+01   -1.0856900215e+00
    6.1499443054e+01   -1.0929000378e+00
    6.1599449158e+01   -1.1001600027e+00
    6.1699600220e+01   -1.1074700356e+00
    6.1799488068e+01   -1.1147999763e+00
    6.1899497986e+01   -1.1221699715e+00
    6.1999511719e+01   -1.1295800209e+00
    6.2099464417e+01   -1.1370300055e+00
    6.2199523926e+01   -1.1445200443e+00
    6.2299541473e+01   -1.1520400047e+00
    6.2399467468e+01   -1.1595900059e+00
    6.2499496460e+01   -1.1671899557e+00
    6.2599449158e+01   -1.1748199463e+00
    6.2699546814e+01   -1.1825000048e+00
    6.2799457550e+01   -1.1902099848e+00
    6.2899532318e+01   -1.1979700327e+00
    6.2999561310e+01   -1.2057600021e+00
    6.3099445343e+01   -1.2135900259e+00
    6.3199539185e+01   -1.2214800119e+00
    6.3299545288e+01   -1.2294000387e+00
    6.3399459839e+01   -1.2373600006e+00
    6.3499477386e+01   -1.2453600168e+00
    6.3599533081e+01   -1.2534199953e+00
    6.3699436188e+01   -1.2615000010e+00
    6.3799537659e+01   -1.2696399689e+00
    6.3899562836e+01   -1.2778099775e+00
    6.3999431610e+01   -1.2860100269e+00
    6.4099449158e+01   -1.2942700386e+00
    6.4199501038e+01   -1.3025799990e+00
    6.4299415588e+01   -1.3109200001e+00
    6.4399398804e+01   -1.3193199635e+00
    6.4499427795e+01   -1.3277599812e+00
    6.4599411011e+01   -1.3362499475e+00
    6.4699394226e+01   -1.3447899818e+00
    6.4799568176e+01   -1.3533799648e+00
    6.4899505615e+01   -1.3620100021e+00
    6.4999435425e+01   -1.3706899881e+00
    6.5099441528e+01   -1.3794200420e+00
    6.5199424744e+01   -1.3882100582e+00
    6.5299415588e+01   -1.3970500231e+00
    6.5399536133e+01   -1.4059400558e+00
    6.5499519348e+01   -1.4148700237e+00
    6.5599540710e+01   -1.4238500595e+00
    6.5699539185e+01   -1.4328800440e+00
    6.5799514771e+01   -1.4419499636e+00
    6.5899398804e+01   -1.4510500431e+00
    6.5999389648e+01   -1.4602199793e+00
    6.6099456787e+01   -1.4694399834e+00
    6.6199440002e+01   -1.4787100554e+00
    6.6299430847e+01   -1.4880199432e+00
    6.6399482727e+01   -1.4973900318e+00
    6.6499389648e+01   -1.5067900419e+00
    6.6599426270e+01   -1.5162600279e+00
    6.6699409485e+01   -1.5257600546e+00
    6.6799476624e+01   -1.5353200436e+00
    6.6899406433e+01   -1.5449199677e+00
    6.6999465942e+01   -1.5545699596e+00
    6.7099441528e+01   -1.5642700195e+00
    6.7199424744e+01   -1.5740200281e+00
    6.7299438477e+01   -1.5838099718e+00
    6.7399421692e+01   -1.5936599970e+00
    6.7499458313e+01   -1.6035499573e+00
    6.7599433899e+01   -1.6134899855e+00
    6.7699424744e+01   -1.6234699488e+00
    6.7799461365e+01   -1.6335099936e+00
    6.7899467468e+01   -1.6435899734e+00
    6.7999359131e+01   -1.6537100077e+00
    6.8099525452e+01   -1.6639100313e+00
    6.8199394226e+01   -1.6741199493e+00
    6.8299407959e+01   -1.6844099760e+00
    6.8399345398e+01   -1.6947400570e+00
    6.8499488831e+01   -1.7051399946e+00
    6.8599494934e+01   -1.7155799866e+00
    6.8699501038e+01   -1.7260600328e+00
    6.8799339294e+01   -1.7365800142e+00
    6.8899345398e+01   -1.7471699715e+00
    6.8999336243e+01   -1.7577999830e+00
    6.9099502563e+01   -1.7684999704e+00
    6.9199333191e+01   -1.7792199850e+00
    6.9299377441e+01   -1.7899999619e+00
    6.9399383545e+01   -1.8008400202e+00
    6.9499328613e+01   -1.8117300272e+00
    6.9599357605e+01   -1.8226699829e+00
    6.9699394226e+01   -1.8336700201e+00
    6.9799430847e+01   -1.8447200060e+00
    6.9899436951e+01   -1.8558199406e+00
    6.9999435425e+01   -1.8669799566e+00
    7.0099365234e+01   -1.8781800270e+00
    7.0199470520e+01   -1.8894499540e+00
    7.0299362183e+01   -1.9007600546e+00
    7.0399459839e+01   -1.9121299982e+00
    7.0499443054e+01   -1.9235500097e+00
    7.0599479675e+01   -1.9350299835e+00
    7.0699340820e+01   -1.9465399981e+00
    7.0799301147e+01   -1.9581099749e+00
    7.0899307251e+01   -1.9697500467e+00
    7.0999343872e+01   -1.9814599752e+00
    7.1099319458e+01   -1.9932299852e+00
    7.1199356079e+01   -2.0050899982e+00
    7.1299438477e+01   -2.0170300007e+00
    7.1399398804e+01   -2.0290501118e+00
    7.1499435425e+01   -2.0411601067e+00
    7.1599418640e+01   -2.0533599854e+00
    7.1699371338e+01   -2.0656499863e+00
    7.1799430847e+01   -2.0780599117e+00
    7.1899429321e+01   -2.0905599594e+00
    7.1999305725e+01   -2.1031401157e+00
    7.2099349976e+01   -2.1158499718e+00
    7.2199432373e+01   -2.1286599636e+00
    7.2299369812e+01   -2.1415400505e+00
    7.2399299622e+01   -2.1545300484e+00
    7.2499305725e+01   -2.1676099300e+00
    7.2599281311e+01   -2.1807799339e+00
    7.2699394226e+01   -2.1940500736e+00
    7.2799407959e+01   -2.2073800564e+00
    7.2899291992e+01   -2.2207798958e+00
    7.2999389648e+01   -2.2342898846e+00
    7.3099441528e+01   -2.2478599548e+00
    7.3199356079e+01   -2.2614800930e+00
    7.3299392700e+01   -2.2751901150e+00
    7.3399269104e+01   -2.2889399529e+00
    7.3499435425e+01   -2.3027999401e+00
    7.3599441528e+01   -2.3166999817e+00
    7.3699378967e+01   -2.3306400776e+00
    7.3799293518e+01   -2.3446500301e+00
    7.3899307251e+01   -2.3587300777e+00
    7.3999328613e+01   -2.3728599548e+00
    7.4099342346e+01   -2.3870699406e+00
    7.4199409485e+01   -2.4013400078e+00
    7.4299369812e+01   -2.4156599045e+00
    7.4399391174e+01   -2.4300498962e+00
    7.4499313354e+01   -2.4444899559e+00
    7.4599296570e+01   -2.4590001106e+00
    7.4699302673e+01   -2.4735701084e+00
    7.4799324036e+01   -2.4881999493e+00
    7.4899269104e+01   -2.5028901100e+00
    7.4999366760e+01   -2.5176699162e+00
    7.5099250793e+01   -2.5324800014e+00
    7.5199249268e+01   -2.5473699570e+00
    7.5299247742e+01   -2.5623199940e+00
    7.5399375916e+01   -2.5773499012e+00
    7.5499412537e+01   -2.5924398899e+00
    7.5599327087e+01   -2.6075699329e+00
    7.5699386597e+01   -2.6227900982e+00
    7.5799270630e+01   -2.6380600929e+00
    7.5899330139e+01   -2.6534299850e+00
    7.5999244690e+01   -2.6688699722e+00
    7.6099296570e+01   -2.6844100952e+00
    7.6199241638e+01   -2.7000401020e+00
    7.6299224854e+01   -2.7157599926e+00
    7.6399353027e+01   -2.7316100597e+00
    7.6499282837e+01   -2.7475399971e+00
    7.6599342346e+01   -2.7635900974e+00
    7.6699302673e+01   -2.7797300816e+00
    7.6799224854e+01   -2.7959699631e+00
    7.6899307251e+01   -2.8123600483e+00
    7.6999366760e+01   -2.8288500309e+00
    7.7099311829e+01   -2.8454399109e+00
    7.7199348450e+01   -2.8621499538e+00
    7.7299331665e+01   -2.8789598942e+00
    7.7399291992e+01   -2.8958799839e+00
    7.7499359131e+01   -2.9129099846e+00
    7.7599288940e+01   -2.9300200939e+00
    7.7699218750e+01   -2.9472200871e+00
    7.7799285889e+01   -2.9645299911e+00
    7.7899261475e+01   -2.9819200039e+00
    7.7999366760e+01   -2.9994099140e+00
    7.8099243164e+01   -3.0169401169e+00
    7.8199363708e+01   -3.0346100330e+00
    7.8299346924e+01   -3.0523200035e+00
    7.8399200439e+01   -3.0700900555e+00
    7.8499359131e+01   -3.0879800320e+00
    7.8599205017e+01   -3.1058900356e+00
    7.8699363708e+01   -3.1239299774e+00
    7.8799301147e+01   -3.1419899464e+00
    7.8899299622e+01   -3.1601300240e+00
    7.8999328613e+01   -3.1783499718e+00
    7.9099266052e+01   -3.1966099739e+00
    7.9199234009e+01   -3.2149500847e+00
    7.9299339294e+01   -3.2333900928e+00
    7.9399223328e+01   -3.2518599033e+00
    7.9499191284e+01   -3.2704100609e+00
    7.9599349976e+01   -3.2890799046e+00
    7.9699188232e+01   -3.3077800274e+00
    7.9799224854e+01   -3.3265900612e+00
    7.9899200439e+01   -3.3454799652e+00
    7.9999305725e+01   -3.3644900322e+00
    8.0099266052e+01   -3.3835599422e+00
    8.0199310303e+01   -3.4027500153e+00
    8.0299263000e+01   -3.4220199585e+00
    8.0399162292e+01   -3.4413900375e+00
    8.0499244690e+01   -3.4609100819e+00
    8.0599296570e+01   -3.4805300236e+00
    8.0699195862e+01   -3.5002501011e+00
    8.0799224854e+01   -3.5201098919e+00
    8.0899185181e+01   -3.5400900841e+00
    8.0999259949e+01   -3.5602400303e+00
    8.1099235535e+01   -3.5804901123e+00
    8.1199157715e+01   -3.6008799076e+00
    8.1299224854e+01   -3.6214299202e+00
    8.1399246216e+01   -3.6421198845e+00
    8.1499221802e+01   -3.6629300117e+00
    8.1599166870e+01   -3.6838800907e+00
    8.1699279785e+01   -3.7049999237e+00
    8.1799163818e+01   -3.7261900902e+00
    8.1899223328e+01   -3.7475600243e+00
    8.1999259949e+01   -3.7690401077e+00
    8.2099197388e+01   -3.7906100750e+00
    8.2199256897e+01   -3.8123300076e+00
    8.2299240112e+01   -3.8341400623e+00
    8.2399246216e+01   -3.8560700417e+00
    8.2499198914e+01   -3.8780899048e+00
    8.2599235535e+01   -3.9002299309e+00
    8.2699165344e+01   -3.9224500656e+00
    8.2799255371e+01   -3.9447999001e+00
    8.2899215698e+01   -3.9672300816e+00
    8.2999198914e+01   -3.9897599220e+00
    8.3099220276e+01   -4.0124001503e+00
    8.3199279785e+01   -4.0351600647e+00
    8.3299163818e+01   -4.0579700470e+00
    8.3399192810e+01   -4.0809202194e+00
    8.3499137878e+01   -4.1039500237e+00
    8.3599113464e+01   -4.1270899773e+00
    8.3699249268e+01   -4.1503601074e+00
    8.3799255371e+01   -4.1737098694e+00
    8.3899269104e+01   -4.1971597672e+00
    8.3999206543e+01   -4.2207098007e+00
    8.4099273682e+01   -4.2443900108e+00
    8.4199256897e+01   -4.2681698799e+00
    8.4299110413e+01   -4.2920298576e+00
    8.4399276733e+01   -4.3160901070e+00
    8.4499137878e+01   -4.3401999474e+00
    8.4599113464e+01   -4.3644499779e+00
    8.4699180603e+01   -4.3888502121e+00
    8.4799156189e+01   -4.4133501053e+00
    8.4899208069e+01   -4.4380002022e+00
    8.4999107361e+01   -4.4627499580e+00
    8.5099266052e+01   -4.4876899719e+00
    8.5199211121e+01   -4.5127201080e+00
    8.5299087524e+01   -4.5378599167e+00
    8.5399116516e+01   -4.5631799698e+00
    8.5499237061e+01   -4.5886402130e+00
    8.5599105835e+01   -4.6141700745e+00
    8.5699203491e+01   -4.6398801804e+00
    8.5799194336e+01   -4.6656999588e+00
    8.5899139404e+01   -4.6916298866e+00
    8.5999099731e+01   -4.7176899910e+00
    8.6099128723e+01   -4.7438998222e+00
    8.6199150085e+01   -4.7702298164e+00
    8.6299156189e+01   -4.7966899872e+00
    8.6399208069e+01   -4.8232798576e+00
    8.6499160767e+01   -4.8499798775e+00
    8.6599166870e+01   -4.8768100739e+00
    8.6699180603e+01   -4.9037699699e+00
    8.6799217224e+01   -4.9308600426e+00
    8.6899116516e+01   -4.9580497742e+00
    8.6999114990e+01   -4.9853901863e+00
    8.7099197388e+01   -5.0128898621e+00
    8.7199165344e+01   -5.0405001640e+00
    8.7299209595e+01   -5.0682702065e+00
    8.7399124146e+01   -5.0961399078e+00
    8.7499092102e+01   -5.1241698265e+00
    8.7599082947e+01   -5.1523599625e+00
    8.7699066162e+01   -5.1806898117e+00
    8.7799102783e+01   -5.2091798782e+00
    8.7899101257e+01   -5.2378201485e+00
    8.7999114990e+01   -5.2666201591e+00
    8.8099113464e+01   -5.2955698967e+00
    8.8199203491e+01   -5.3247098923e+00
    8.8299095154e+01   -5.3539400101e+00
    8.8399177551e+01   -5.3833999634e+00
    8.8499130249e+01   -5.4129600525e+00
    8.8599197388e+01   -5.4427199364e+00
    8.8699203491e+01   -5.4725999832e+00
    8.8799049377e+01   -5.5025801659e+00
    8.8899154663e+01   -5.5327801704e+00
    8.8999183655e+01   -5.5630898476e+00
    8.9099212646e+01   -5.5935401917e+00
    8.9199081421e+01   -5.6240701675e+00
    8.9299179077e+01   -5.6547999382e+00
    8.9399101257e+01   -5.6855998039e+00
    8.9499023438e+01   -5.7165298462e+00
    8.9599060059e+01   -5.7476100922e+00
    8.9699043274e+01   -5.7788000107e+00
    8.9799072266e+01   -5.8101100922e+00
    8.9899055481e+01   -5.8415298462e+00
    8.9999153137e+01   -5.8731098175e+00
    9.0099021912e+01   -5.9047298431e+00
    9.0199020386e+01   -5.9365000725e+00
    9.0299026489e+01   -5.9684000015e+00
    9.0399116516e+01   -6.0004501343e+00
    9.0499023438e+01   -6.0325598717e+00
    9.0599105835e+01   -6.0648598671e+00
    9.0699089050e+01   -6.0972499847e+00
    9.0799079895e+01   -6.1297798157e+00
    9.0899147034e+01   -6.1624798775e+00
    9.0999160767e+01   -6.1953101158e+00
    9.1099075317e+01   -6.2282600403e+00
    9.1199058533e+01   -6.2613902092e+00
    9.1299125671e+01   -6.2947101593e+00
    9.1399093628e+01   -6.3281598091e+00
    9.1499092102e+01   -6.3617901802e+00
    9.1599006653e+01   -6.3955597878e+00
    9.1699150085e+01   -6.4295902252e+00
    9.1799133301e+01   -6.4637398720e+00
    9.1899093628e+01   -6.4980502129e+00
    9.1999107361e+01   -6.5325598717e+00
    9.2099121094e+01   -6.5672402382e+00
    9.2199081421e+01   -6.6020598412e+00
    9.2299148560e+01   -6.6370801926e+00
    9.2399002075e+01   -6.6721901894e+00
    9.2499122620e+01   -6.7075500488e+00
    9.2599121094e+01   -6.7430100441e+00
    9.2699142456e+01   -6.7786197662e+00
    9.2799140930e+01   -6.8143601418e+00
    9.2899093628e+01   -6.8502202034e+00
    9.2998985291e+01   -6.8861899376e+00
    9.3099082947e+01   -6.9223499298e+00
    9.3199134827e+01   -6.9586300850e+00
    9.3299087524e+01   -6.9949898720e+00
    9.3399017334e+01   -7.0314598083e+00
    9.3499114990e+01   -7.0680999756e+00
    9.3599136353e+01   -7.1048398018e+00
    9.3699119568e+01   -7.1416702271e+00
    9.3799041748e+01   -7.1785898209e+00
    9.3899063110e+01   -7.2156600952e+00
    9.3999084473e+01   -7.2528500557e+00
    9.4099052429e+01   -7.2901401520e+00
    9.4198944092e+01   -7.3275399208e+00
    9.4299011230e+01   -7.3651299477e+00
    9.4398994446e+01   -7.4028401375e+00
    9.4498977661e+01   -7.4406900406e+00
    9.4598960876e+01   -7.4786901474e+00
    9.4699050903e+01   -7.5168800354e+00
    9.4799110413e+01   -7.5552401543e+00
    9.4899032593e+01   -7.5937199593e+00
    9.4999015808e+01   -7.6324000359e+00
    9.5099006653e+01   -7.6712899208e+00
    9.5199028015e+01   -7.7103900909e+00
    9.5298927307e+01   -7.7496500015e+00
    9.5399055481e+01   -7.7892098427e+00
    9.5499084473e+01   -7.8289399147e+00
    9.5599082947e+01   -7.8688697815e+00
    9.5699073792e+01   -7.9090199471e+00
    9.5798957825e+01   -7.9493498802e+00
    9.5898994446e+01   -7.9899501801e+00
    9.5999000549e+01   -8.0307598114e+00
    9.6099082947e+01   -8.0718097687e+00
    9.6199012756e+01   -8.1129999161e+00
    9.6298965454e+01   -8.1543998718e+00
    9.6398948669e+01   -8.1960000992e+00
    9.6498992920e+01   -8.2378101349e+00
    9.6598968506e+01   -8.2797803879e+00
    9.6699020386e+01   -8.3219499588e+00
    9.6799026489e+01   -8.3642597198e+00
    9.6898994446e+01   -8.4067201614e+00
    9.6999061584e+01   -8.4493904114e+00
    9.7099052429e+01   -8.4921798706e+00
    9.7198928833e+01   -8.5350799561e+00
    9.7298965454e+01   -8.5782098770e+00
    9.7398963928e+01   -8.6214704514e+00
    9.7498947144e+01   -8.6648702621e+00
    9.7598976135e+01   -8.7084503174e+00
    9.7698905945e+01   -8.7521295547e+00
    9.7798965454e+01   -8.7960195541e+00
    9.7899070740e+01   -8.8400897980e+00
    9.7998908997e+01   -8.8842000961e+00
    9.8098930359e+01   -8.9285497665e+00
    9.8199012756e+01   -8.9730901718e+00
    9.8298995972e+01   -9.0177602768e+00
    9.8398925781e+01   -9.0625696182e+00
    9.8498985291e+01   -9.1076097488e+00
    9.8598922729e+01   -9.1527595520e+00
    9.8699035645e+01   -9.1981601715e+00
    9.8798973083e+01   -9.2436504364e+00
    9.8898933411e+01   -9.2893199921e+00
    9.8998962402e+01   -9.3351898193e+00
    9.9098937988e+01   -9.3812103271e+00
    9.9198997498e+01   -9.4274196625e+00
    9.9299034119e+01   -9.4737901688e+00
    9.9399032593e+01   -9.5203104019e+00
    9.9499015808e+01   -9.5669803619e+00
    9.9599029541e+01   -9.6138296127e+00
    9.9698997498e+01   -9.6608200073e+00
    9.9798942566e+01   -9.7079496384e+00
    9.9899032593e+01   -9.7552995682e+00
    9.9999008179e+01   -9.8027496338e+00
    1.0009903717e+02   -9.8503799438e+00
    1.0019895172e+02   -9.8980998993e+00
    1.0029894257e+02   -9.9460096359e+00
    1.0039900208e+02   -9.9940996170e+00
    1.0049886322e+02   -1.0042200089e+01
    1.0059900665e+02   -1.0090700150e+01
    1.0069886017e+02   -1.0139100075e+01
    1.0079897308e+02   -1.0187800407e+01
    1.0089894104e+02   -1.0236700058e+01
    1.0099891663e+02   -1.0285599709e+01
    1.0109889221e+02   -1.0334799767e+01
    1.0119889832e+02   -1.0384099960e+01
    1.0129898071e+02   -1.0433699608e+01
    1.0139894104e+02   -1.0483300209e+01
    1.0149887848e+02   -1.0533200264e+01
    1.0159890747e+02   -1.0583200455e+01
    1.0169898224e+02   -1.0633500099e+01
    1.0179892731e+02   -1.0683899879e+01
    1.0189894104e+02   -1.0734499931e+01
    1.0199884033e+02   -1.0785300255e+01
    1.0209886169e+02   -1.0836299896e+01
    1.0219891357e+02   -1.0887499809e+01
    1.0229898071e+02   -1.0938899994e+01
    1.0239884186e+02   -1.0990400314e+01
    1.0249897003e+02   -1.1042200089e+01
    1.0259893799e+02   -1.1094099998e+01
    1.0269899750e+02   -1.1146200180e+01
    1.0279885101e+02   -1.1198300362e+01
    1.0289894104e+02   -1.1250800133e+01
    1.0299894714e+02   -1.1303299904e+01
    1.0309893036e+02   -1.1355999947e+01
    1.0319882965e+02   -1.1408800125e+01
    1.0329882812e+02   -1.1461799622e+01
    1.0339881897e+02   -1.1515000343e+01
    1.0349891663e+02   -1.1568400383e+01
    1.0359898376e+02   -1.1621899605e+01
    1.0369891357e+02   -1.1675499916e+01
    1.0379884338e+02   -1.1729200363e+01
    1.0389885712e+02   -1.1783200264e+01
    1.0399894714e+02   -1.1837400436e+01
    1.0409884644e+02   -1.1891599655e+01
    1.0419889069e+02   -1.1946100235e+01
    1.0429879761e+02   -1.2000699997e+01
    1.0439897156e+02   -1.2055600166e+01
    1.0449893951e+02   -1.2110600471e+01
    1.0459893799e+02   -1.2165800095e+01
    1.0469886017e+02   -1.2221199989e+01
    1.0479885101e+02   -1.2276900291e+01
    1.0489884186e+02   -1.2332699776e+01
    1.0499878693e+02   -1.2388799667e+01
    1.0509879303e+02   -1.2445199966e+01
    1.0519892883e+02   -1.2501899719e+01
    1.0529894257e+02   -1.2558799744e+01
    1.0539884186e+02   -1.2615799904e+01
    1.0549881744e+02   -1.2673199654e+01
    1.0559880829e+02   -1.2730799675e+01
    1.0569893646e+02   -1.2788700104e+01
    1.0579895020e+02   -1.2846799850e+01
    1.0589884186e+02   -1.2905099869e+01
    1.0599884796e+02   -1.2963700294e+01
    1.0609880066e+02   -1.3022500038e+01
    1.0619879913e+02   -1.3081500053e+01
    1.0629882812e+02   -1.3140700340e+01
    1.0639878082e+02   -1.3200099945e+01
    1.0649884796e+02   -1.3259699821e+01
    1.0659889984e+02   -1.3319499969e+01
    1.0669886780e+02   -1.3379400253e+01
    1.0679889679e+02   -1.3439499855e+01
    1.0689891815e+02   -1.3499799728e+01
    1.0699884796e+02   -1.3560099602e+01
    1.0709886932e+02   -1.3620699883e+01
    1.0719875336e+02   -1.3681400299e+01
    1.0729876709e+02   -1.3742199898e+01
    1.0739884186e+02   -1.3803299904e+01
    1.0749878693e+02   -1.3864399910e+01
    1.0759889221e+02   -1.3925800323e+01
    1.0769882965e+02   -1.3987299919e+01
    1.0779891205e+02   -1.4048999786e+01
    1.0789884949e+02   -1.4110699654e+01
    1.0799877930e+02   -1.4172599792e+01
    1.0809879303e+02   -1.4234700203e+01
    1.0819880676e+02   -1.4297100067e+01
    1.0829889679e+02   -1.4359600067e+01
    1.0839887238e+02   -1.4422200203e+01
    1.0849878693e+02   -1.4484999657e+01
    1.0859886932e+02   -1.4548000336e+01
    1.0869883728e+02   -1.4611200333e+01
    1.0879889679e+02   -1.4674599648e+01
    1.0889874268e+02   -1.4737999916e+01
    1.0899877167e+02   -1.4801699638e+01
    1.0909879303e+02   -1.4865599632e+01
    1.0919882965e+02   -1.4929699898e+01
    1.0929878998e+02   -1.4993900299e+01
    1.0939875793e+02   -1.5058300018e+01
    1.0949874115e+02   -1.5123000145e+01
    1.0959873199e+02   -1.5187700272e+01
    1.0969889069e+02   -1.5252799988e+01
    1.0979873657e+02   -1.5317899704e+01
    1.0989888763e+02   -1.5383299828e+01
    1.0999871826e+02   -1.5448699951e+01
    1.1009873199e+02   -1.5514300346e+01
    1.1019883728e+02   -1.5580200195e+01
    1.1029878998e+02   -1.5646200180e+01
    1.1039871979e+02   -1.5712300301e+01
    1.1049874878e+02   -1.5778699875e+01
    1.1059884644e+02   -1.5845299721e+01
    1.1069885254e+02   -1.5911999702e+01
    1.1079882050e+02   -1.5978899956e+01
    1.1089878845e+02   -1.6045900345e+01
    1.1099883270e+02   -1.6113199234e+01
    1.1109870148e+02   -1.6180500031e+01
    1.1119875336e+02   -1.6248199463e+01
    1.1129885101e+02   -1.6315999985e+01
    1.1139872742e+02   -1.6384000778e+01
    1.1149884033e+02   -1.6452299118e+01
    1.1159883881e+02   -1.6520700455e+01
    1.1169879150e+02   -1.6589300156e+01
    1.1179872131e+02   -1.6658100128e+01
    1.1189881897e+02   -1.6727199554e+01
    1.1199870300e+02   -1.6796400070e+01
    1.1209882355e+02   -1.6865900040e+01
    1.1219876099e+02   -1.6935499191e+01
    1.1229871368e+02   -1.7005300522e+01
    1.1239869690e+02   -1.7075300217e+01
    1.1249884033e+02   -1.7145700455e+01
    1.1259883118e+02   -1.7216100693e+01
    1.1269883728e+02   -1.7286699295e+01
    1.1279882812e+02   -1.7357500076e+01
    1.1289872742e+02   -1.7428300858e+01
    1.1299884033e+02   -1.7499599457e+01
    1.1309867859e+02   -1.7570800781e+01
    1.1319872284e+02   -1.7642299652e+01
    1.1329876709e+02   -1.7714000702e+01
    1.1339878082e+02   -1.7785800934e+01
    1.1349877167e+02   -1.7857900620e+01
    1.1359867859e+02   -1.7930000305e+01
    1.1369866943e+02   -1.8002399445e+01
    1.1379873657e+02   -1.8075000763e+01
    1.1389875031e+02   -1.8147699356e+01
    1.1399875641e+02   -1.8220600128e+01
    1.1409871674e+02   -1.8293699265e+01
    1.1419875336e+02   -1.8367000580e+01
    1.1429872894e+02   -1.8440399170e+01
    1.1439869690e+02   -1.8514099121e+01
    1.1449873352e+02   -1.8587999344e+01
    1.1459873962e+02   -1.8662000656e+01
    1.1469869232e+02   -1.8736299515e+01
    1.1479866791e+02   -1.8810800552e+01
    1.1489868927e+02   -1.8885599136e+01
    1.1499865723e+02   -1.8960500717e+01
    1.1509867096e+02   -1.9035699844e+01
    1.1519866180e+02   -1.9111200333e+01
    1.1529873657e+02   -1.9187000275e+01
    1.1539878082e+02   -1.9263000488e+01
    1.1549871063e+02   -1.9339199066e+01
    1.1559874725e+02   -1.9415700912e+01
    1.1569879150e+02   -1.9492399216e+01
    1.1579872131e+02   -1.9569299698e+01
    1.1589869690e+02   -1.9646400452e+01
    1.1599877930e+02   -1.9723899841e+01
    1.1609863281e+02   -1.9801399231e+01
    1.1619869232e+02   -1.9879199982e+01
    1.1629862213e+02   -1.9957199097e+01
    1.1639871979e+02   -2.0035400391e+01
    1.1649877930e+02   -2.0113800049e+01
    1.1659870911e+02   -2.0192300797e+01
    1.1669866943e+02   -2.0270999908e+01
    1.1679873657e+02   -2.0349899292e+01
    1.1689864349e+02   -2.0428800583e+01
    1.1699871063e+02   -2.0507999420e+01
    1.1709877014e+02   -2.0587400436e+01
    1.1719869995e+02   -2.0666799545e+01
    1.1729871368e+02   -2.0746400833e+01
    1.1739866638e+02   -2.0826099396e+01
    1.1749864197e+02   -2.0906000137e+01
    1.1759860992e+02   -2.0986000061e+01
    1.1769863129e+02   -2.1066200256e+01
    1.1779871368e+02   -2.1146600723e+01
    1.1789859772e+02   -2.1226999283e+01
    1.1799871063e+02   -2.1307699203e+01
    1.1809860992e+02   -2.1388399124e+01
    1.1819866180e+02   -2.1469400406e+01
    1.1829872894e+02   -2.1550600052e+01
    1.1839862823e+02   -2.1631799698e+01
    1.1849862671e+02   -2.1713199615e+01
    1.1859870911e+02   -2.1794900894e+01
    1.1869863129e+02   -2.1876699448e+01
    1.1879860687e+02   -2.1958599091e+01
    1.1889866638e+02   -2.2040800095e+01
    1.1899862671e+02   -2.2123199463e+01
    1.1909864044e+02   -2.2205699921e+01
    1.1919869995e+02   -2.2288499832e+01
    1.1929866028e+02   -2.2371400833e+01
    1.1939868927e+02   -2.2454599380e+01
    1.1949870300e+02   -2.2538000107e+01
    1.1959858704e+02   -2.2621500015e+01
    1.1969862366e+02   -2.2705299377e+01
    1.1979859924e+02   -2.2789400101e+01
    1.1989871216e+02   -2.2873699188e+01
    1.1999859619e+02   -2.2958000183e+01
    1.2009867096e+02   -2.3042800903e+01
    1.2019857788e+02   -2.3127599716e+01
    1.2029859161e+02   -2.3212600708e+01
    1.2039856720e+02   -2.3297899246e+01
    1.2049868774e+02   -2.3383399963e+01
    1.2059864044e+02   -2.3468999863e+01
    1.2069857025e+02   -2.3554800034e+01
    1.2079863739e+02   -2.3640800476e+01
    1.2089853668e+02   -2.3726900101e+01
    1.2099864960e+02   -2.3813400269e+01
    1.2109871674e+02   -2.3899999619e+01
    1.2119853973e+02   -2.3986600876e+01
    1.2129853821e+02   -2.4073499680e+01
    1.2139871216e+02   -2.4160699844e+01
    1.2149864960e+02   -2.4247900009e+01
    1.2159867096e+02   -2.4335399628e+01
    1.2169862366e+02   -2.4422899246e+01
    1.2179853058e+02   -2.4510599136e+01
    1.2189865875e+02   -2.4598699570e+01
    1.2199857330e+02   -2.4686700821e+01
    1.2209857178e+02   -2.4774999619e+01
    1.2219853973e+02   -2.4863399506e+01
    1.2229853821e+02   -2.4952100754e+01
    1.2239865875e+02   -2.5041000366e+01
    1.2249870300e+02   -2.5129999161e+01
    1.2259864044e+02   -2.5219100952e+01
    1.2269856262e+02   -2.5308399200e+01
    1.2279862213e+02   -2.5397899628e+01
    1.2289853668e+02   -2.5487499237e+01
    1.2299854279e+02   -2.5577400208e+01
    1.2309867096e+02   -2.5667499542e+01
    1.2319853210e+02   -2.5757600784e+01
    1.2329859161e+02   -2.5848100662e+01
    1.2339852905e+02   -2.5938600540e+01
    1.2349849701e+02   -2.6029399872e+01
    1.2359857941e+02   -2.6120399475e+01
    1.2369856262e+02   -2.6211500168e+01
    1.2379852295e+02   -2.6302799225e+01
    1.2389865875e+02   -2.6394500732e+01
    1.2399865723e+02   -2.6486200333e+01
    1.2409855652e+02   -2.6577999115e+01
    1.2419857025e+02   -2.6670099258e+01
    1.2429859924e+02   -2.6762300491e+01
    1.2439855957e+02   -2.6854799271e+01
    1.2449859619e+02   -2.6947399139e+01
    1.2459850311e+02   -2.7040199280e+01
    1.2469860840e+02   -2.7133300781e+01
    1.2479860687e+02   -2.7226499557e+01
    1.2489861298e+02   -2.7319900513e+01
    1.2499858093e+02   -2.7413400650e+01
    1.2509857941e+02   -2.7507200241e+01
    1.2519859314e+02   -2.7601200104e+01
    1.2529863739e+02   -2.7695400238e+01
    1.2539856720e+02   -2.7789800644e+01
    1.2549861908e+02   -2.7884399414e+01
    1.2559854889e+02   -2.7979099274e+01
    1.2569853210e+02   -2.8074100494e+01
    1.2579855347e+02   -2.8169300079e+01
    1.2589846802e+02   -2.8264699936e+01
    1.2599859619e+02   -2.8360399246e+01
    1.2609864807e+02   -2.8456300735e+01
    1.2619856262e+02   -2.8552299500e+01
    1.2629862976e+02   -2.8648599625e+01
    1.2639846039e+02   -2.8744800568e+01
    1.2649857330e+02   -2.8841499329e+01
    1.2659861755e+02   -2.8938400269e+01
    1.2669859314e+02   -2.9035299301e+01
    1.2679859924e+02   -2.9132499695e+01
    1.2689856720e+02   -2.9229799271e+01
    1.2699858093e+02   -2.9327199936e+01
    1.2709844208e+02   -2.9424800873e+01
    1.2719860840e+02   -2.9522800446e+01
    1.2729859924e+02   -2.9620700836e+01
    1.2739852905e+02   -2.9718799591e+01
    1.2749851227e+02   -2.9817100525e+01
    1.2759844208e+02   -2.9915500641e+01
    1.2769860077e+02   -3.0014299393e+01
    1.2779860687e+02   -3.0113100052e+01
    1.2789855957e+02   -3.0211999893e+01
    1.2799848175e+02   -3.0311000824e+01
    1.2809855652e+02   -3.0410299301e+01
    1.2819850159e+02   -3.0509700775e+01
    1.2829858398e+02   -3.0609300613e+01
    1.2839857483e+02   -3.0709100723e+01
    1.2849844360e+02   -3.0808799744e+01
    1.2859851074e+02   -3.0908899307e+01
    1.2869850159e+02   -3.1009099960e+01
    1.2879864502e+02   -3.1109600067e+01
    1.2889863586e+02   -3.1210100174e+01
    1.2899859619e+02   -3.1310699463e+01
    1.2909866333e+02   -3.1411600113e+01
    1.2919851685e+02   -3.1512399673e+01
    1.2929858398e+02   -3.1613599777e+01
    1.2939863586e+02   -3.1715000153e+01
    1.2949867249e+02   -3.1816499710e+01
    1.2959861755e+02   -3.1918100357e+01
    1.2969859314e+02   -3.2019901276e+01
    1.2979864502e+02   -3.2122001648e+01
    1.2989866638e+02   -3.2224201202e+01
    1.2999853516e+02   -3.2326499939e+01
    1.3009860229e+02   -3.2429100037e+01
    1.3019863892e+02   -3.2531898499e+01
    1.3029870605e+02   -3.2634899139e+01
    1.3039859009e+02   -3.2737998962e+01
    1.3049870300e+02   -3.2841400146e+01
    1.3059866333e+02   -3.2944900513e+01
    1.3069860840e+02   -3.3048599243e+01
    1.3079866028e+02   -3.3152500153e+01
    1.3089874268e+02   -3.3256698608e+01
    1.3099862671e+02   -3.3360801697e+01
    1.3109863281e+02   -3.3465301514e+01
    1.3119876099e+02   -3.3569999695e+01
    1.3129864502e+02   -3.3674701691e+01
    1.3139869690e+02   -3.3779701233e+01
    1.3149870300e+02   -3.3884899139e+01
    1.3159872437e+02   -3.3990200043e+01
    1.3169866943e+02   -3.4095600128e+01
    1.3179875183e+02   -3.4201301575e+01
    1.3189877319e+02   -3.4307098389e+01
    1.3199868774e+02   -3.4412899017e+01
    1.3209878540e+02   -3.4519001007e+01
    1.3219877625e+02   -3.4625198364e+01
    1.3229876709e+02   -3.4731601715e+01
    1.3239872742e+02   -3.4838100433e+01
    1.3249884033e+02   -3.4944900513e+01
    1.3259877014e+02   -3.5051601410e+01
    1.3269877625e+02   -3.5158599854e+01
    1.3279884338e+02   -3.5265800476e+01
    1.3289872742e+02   -3.5373001099e+01
    1.3299873352e+02   -3.5480400085e+01
    1.3309884644e+02   -3.5588100433e+01
    1.3319874573e+02   -3.5695800781e+01
    1.3329873657e+02   -3.5803699493e+01
    1.3339880371e+02   -3.5911899567e+01
    1.3349876404e+02   -3.6020099640e+01
    1.3359887695e+02   -3.6128700256e+01
    1.3369891357e+02   -3.6237300873e+01
    1.3379881287e+02   -3.6346000671e+01
    1.3389886475e+02   -3.6454898834e+01
    1.3399890137e+02   -3.6564098358e+01
    1.3409886169e+02   -3.6673301697e+01
    1.3419895935e+02   -3.6782798767e+01
    1.3429881287e+02   -3.6892200470e+01
    1.3439891052e+02   -3.7001998901e+01
    1.3449885559e+02   -3.7111801147e+01
    1.3459889221e+02   -3.7221900940e+01
    1.3469888306e+02   -3.7332000732e+01
    1.3479899597e+02   -3.7442501068e+01
    1.3489898682e+02   -3.7552898407e+01
    1.3499893188e+02   -3.7663501740e+01
    1.3509890747e+02   -3.7774299622e+01
    1.3519886780e+02   -3.7885200500e+01
    1.3529896545e+02   -3.7996398926e+01
    1.3539898682e+02   -3.8107700348e+01
    1.3549896240e+02   -3.8219100952e+01
    1.3559904480e+02   -3.8330799103e+01
    1.3569891357e+02   -3.8442401886e+01
    1.3579893494e+02   -3.8554298401e+01
    1.3589897156e+02   -3.8666400909e+01
    1.3599902344e+02   -3.8778701782e+01
    1.3609907532e+02   -3.8891101837e+01
    1.3619897461e+02   -3.9003501892e+01
    1.3629910278e+02   -3.9116401672e+01
    1.3639906311e+02   -3.9229198456e+01
    1.3649896240e+02   -3.9342098236e+01
    1.3659898376e+02   -3.9455299377e+01
    1.3669898987e+02   -3.9568698883e+01
    1.3679908752e+02   -3.9682300568e+01
    1.3689898682e+02   -3.9795799255e+01
    1.3699911499e+02   -3.9909698486e+01
    1.3709898376e+02   -4.0023601532e+01
    1.3719914246e+02   -4.0137901306e+01
    1.3729902649e+02   -4.0251998901e+01
    1.3739903259e+02   -4.0366500854e+01
    1.3749899292e+02   -4.0481098175e+01
    1.3759901428e+02   -4.0595901489e+01
    1.3769915771e+02   -4.0711101532e+01
    1.3779916382e+02   -4.0826198578e+01
    1.3789906311e+02   -4.0941398621e+01
    1.3799906921e+02   -4.1056900024e+01
    1.3809910583e+02   -4.1172599792e+01
    1.3819915771e+02   -4.1288501740e+01
    1.3829910278e+02   -4.1404399872e+01
    1.3839923096e+02   -4.1520698547e+01
    1.3849906921e+02   -4.1636901855e+01
    1.3859913635e+02   -4.1753398895e+01
    1.3869914246e+02   -4.1870098114e+01
    1.3879916382e+02   -4.1986900330e+01
    1.3889923096e+02   -4.2103900909e+01
    1.3899919128e+02   -4.2220901489e+01
    1.3909924316e+02   -4.2338199615e+01
    1.3919914246e+02   -4.2455398560e+01
    1.3929917908e+02   -4.2573001862e+01
    1.3939910889e+02   -4.2690498352e+01
    1.3949929810e+02   -4.2808498383e+01
    1.3959916687e+02   -4.2926300049e+01
    1.3969912720e+02   -4.3044399261e+01
    1.3979928589e+02   -4.3162799835e+01
    1.3989921570e+02   -4.3281101227e+01
    1.3999928284e+02   -4.3399700165e+01
    1.4009916687e+02   -4.3518299103e+01
    1.4019932556e+02   -4.3637298584e+01
    1.4029931641e+02   -4.3756198883e+01
    1.4039932251e+02   -4.3875301361e+01
    1.4049923706e+02   -4.3994499207e+01
    1.4059930420e+02   -4.4113998413e+01
    1.4069923401e+02   -4.4233398438e+01
    1.4079922485e+02   -4.4353099823e+01
    1.4089930725e+02   -4.4473098755e+01
    1.4099928284e+02   -4.4592998505e+01
    1.4109922791e+02   -4.4713100433e+01
    1.4119934082e+02   -4.4833499908e+01
    1.4129927063e+02   -4.4953899384e+01
    1.4139941406e+02   -4.5074699402e+01
    1.4149929810e+02   -4.5195301056e+01
    1.4159927368e+02   -4.5316200256e+01
    1.4169938660e+02   -4.5437400818e+01
    1.4179934692e+02   -4.5558601379e+01
    1.4189939880e+02   -4.5680000305e+01
    1.4199943542e+02   -4.5801601410e+01
    1.4209936523e+02   -4.5923198700e+01
    1.4219935608e+02   -4.6044998169e+01
    1.4229936218e+02   -4.6166999817e+01
    1.4239947510e+02   -4.6289299011e+01
    1.4249937439e+02   -4.6411399841e+01
    1.4259938049e+02   -4.6533798218e+01
    1.4269932556e+02   -4.6656299591e+01
    1.4279939270e+02   -4.6779098511e+01
    1.4289944458e+02   -4.6902000427e+01
    1.4299943542e+02   -4.7024898529e+01
    1.4309947205e+02   -4.7148101807e+01
    1.4319950867e+02   -4.7271400452e+01
    1.4329951477e+02   -4.7394798279e+01
    1.4339939880e+02   -4.7518199921e+01
    1.4349954224e+02   -4.7641998291e+01
    1.4359951782e+02   -4.7765899658e+01
    1.4369943237e+02   -4.7889701843e+01
    1.4379946899e+02   -4.8013900757e+01
    1.4389953613e+02   -4.8138301849e+01
    1.4399954224e+02   -4.8262699127e+01
    1.4409942627e+02   -4.8387100220e+01
    1.4419941711e+02   -4.8511798859e+01
    1.4429953003e+02   -4.8636798859e+01
    1.4439958191e+02   -4.8761798859e+01
    1.4449946594e+02   -4.8886798859e+01
    1.4459945679e+02   -4.9012001038e+01
    1.4469955444e+02   -4.9137500763e+01
    1.4479951477e+02   -4.9263000488e+01
    1.4489959717e+02   -4.9388801575e+01
    1.4499948120e+02   -4.9514400482e+01
    1.4509948730e+02   -4.9640300751e+01
    1.4519961548e+02   -4.9766601562e+01
    1.4529960632e+02   -4.9892799377e+01
    1.4539947510e+02   -5.0018901825e+01
    1.4549958801e+02   -5.0145599365e+01
    1.4559967041e+02   -5.0272300720e+01
    1.4569967651e+02   -5.0399101257e+01
    1.4579951477e+02   -5.0525798798e+01
    1.4589950562e+02   -5.0652801514e+01
    1.4599951172e+02   -5.0780101776e+01
    1.4609962463e+02   -5.0907501221e+01
    1.4619964600e+02   -5.1035099030e+01
    1.4629966736e+02   -5.1162799835e+01
    1.4639970398e+02   -5.1290599823e+01
    1.4649957275e+02   -5.1418300629e+01
    1.4659970093e+02   -5.1546600342e+01
    1.4669960022e+02   -5.1674598694e+01
    1.4679956055e+02   -5.1802898407e+01
    1.4689976501e+02   -5.1931701660e+01
    1.4699971008e+02   -5.2060199738e+01
    1.4709971619e+02   -5.2188999176e+01
    1.4719976807e+02   -5.2317901611e+01
    1.4729966736e+02   -5.2446800232e+01
    1.4739967346e+02   -5.2576000214e+01
    1.4749963379e+02   -5.2705200195e+01
    1.4759962463e+02   -5.2834598541e+01
    1.4769976807e+02   -5.2964401245e+01
    1.4779972839e+02   -5.3094001770e+01
    1.4789967346e+02   -5.3223701477e+01
    1.4799966431e+02   -5.3353599548e+01
    1.4809974670e+02   -5.3483798981e+01
    1.4819973755e+02   -5.3613899231e+01
    1.4829975891e+02   -5.3744300842e+01
    1.4839979553e+02   -5.3874698639e+01
    1.4849983215e+02   -5.4005298615e+01
    1.4859973145e+02   -5.4135898590e+01
    1.4869981384e+02   -5.4266799927e+01
    1.4879986572e+02   -5.4397701263e+01
    1.4889976501e+02   -5.4528701782e+01
    1.4899986267e+02   -5.4659900665e+01
    1.4909982300e+02   -5.4791198730e+01
    1.4919972229e+02   -5.4922401428e+01
    1.4929977417e+02   -5.5054000854e+01
    1.4939985657e+02   -5.5185699463e+01
    1.4949975586e+02   -5.5317298889e+01
    1.4959986877e+02   -5.5449298859e+01
    1.4969989014e+02   -5.5581298828e+01
    1.4979974365e+02   -5.5713199615e+01
    1.4989988708e+02   -5.5845699310e+01
    1.4999984741e+02   -5.5977901459e+01
    1.5009983826e+02   -5.6110401154e+01
    1.5019993591e+02   -5.6243099213e+01
    1.5029992676e+02   -5.6375801086e+01
    1.5039979553e+02   -5.6508399963e+01
    1.5049995422e+02   -5.6641498566e+01
    1.5059991455e+02   -5.6774501801e+01
    1.5069987488e+02   -5.6907600403e+01
    1.5079997253e+02   -5.7041000366e+01
    1.5089994812e+02   -5.7174301147e+01
    1.5099981689e+02   -5.7307598114e+01
    1.5109988403e+02   -5.7441299438e+01
    1.5119990540e+02   -5.7575000763e+01
    1.5129985046e+02   -5.7708801270e+01
    1.5139987183e+02   -5.7842700958e+01
    1.5149989319e+02   -5.7976799011e+01
    1.5159997559e+02   -5.8111099243e+01
    1.5169999695e+02   -5.8245399475e+01
    1.5180000305e+02   -5.8379798889e+01
    1.5190000916e+02   -5.8514400482e+01
    1.5199993896e+02   -5.8648899078e+01
    1.5209997559e+02   -5.8783699036e+01
    1.5219996643e+02   -5.8918498993e+01
    1.5230000305e+02   -5.9053501129e+01
    1.5240008545e+02   -5.9188701630e+01
    1.5250009155e+02   -5.9323898315e+01
    1.5259992981e+02   -5.9458900452e+01
    1.5269995117e+02   -5.9594398499e+01
    1.5280007935e+02   -5.9729999542e+01
    1.5290000916e+02   -5.9865501404e+01
    1.5299998474e+02   -6.0001201630e+01
    1.5310009766e+02   -6.0137100220e+01
    1.5320013428e+02   -6.0273101807e+01
    1.5330001831e+02   -6.0409000397e+01
    1.5339996338e+02   -6.0545101166e+01
    1.5350003052e+02   -6.0681499481e+01
    1.5360008240e+02   -6.0817901611e+01
    1.5370010376e+02   -6.0954498291e+01
    1.5380017090e+02   -6.1091201782e+01
    1.5390011597e+02   -6.1227901459e+01
    1.5400000000e+02   -6.1364700317e+01
    1.5410006714e+02   -6.1501701355e+01
    1.5420001221e+02   -6.1638801575e+01
    1.5430003357e+02   -6.1776000977e+01
    1.5440019226e+02   -6.1913600922e+01
    1.5450010681e+02   -6.2050998688e+01
    1.5460008240e+02   -6.2188499451e+01
    1.5470011902e+02   -6.2326198578e+01
    1.5480006409e+02   -6.2463901520e+01
    1.5490020752e+02   -6.2602100372e+01
    1.5500018311e+02   -6.2740100861e+01
    1.5510017395e+02   -6.2878200531e+01
    1.5520021057e+02   -6.3016498566e+01
    1.5530023193e+02   -6.3154899597e+01
    1.5540017700e+02   -6.3293300629e+01
    1.5550010681e+02   -6.3431800842e+01
    1.5560012817e+02   -6.3570598602e+01
    1.5570013428e+02   -6.3709400177e+01
    1.5580021667e+02   -6.3848499298e+01
    1.5590013123e+02   -6.3987400055e+01
    1.5600028992e+02   -6.4126800537e+01
    1.5610023499e+02   -6.4265998840e+01
    1.5620022583e+02   -6.4405403137e+01
    1.5630032349e+02   -6.4544998169e+01
    1.5640032959e+02   -6.4684700012e+01
    1.5650030518e+02   -6.4824401855e+01
    1.5660018921e+02   -6.4964103699e+01
    1.5670028687e+02   -6.5104103088e+01
    1.5680027771e+02   -6.5244201660e+01
    1.5690025330e+02   -6.5384300232e+01
    1.5700018311e+02   -6.5524398804e+01
    1.5710035706e+02   -6.5665000916e+01
    1.5720022583e+02   -6.5805297852e+01
    1.5730032349e+02   -6.5945899963e+01
    1.5740034485e+02   -6.6086601257e+01
    1.5750035095e+02   -6.6227401733e+01
    1.5760029602e+02   -6.6368202209e+01
    1.5770039368e+02   -6.6509201050e+01
    1.5780029297e+02   -6.6650100708e+01
    1.5790037537e+02   -6.6791397095e+01
    1.5800028992e+02   -6.6932502747e+01
    1.5810040283e+02   -6.7073898315e+01
    1.5820040894e+02   -6.7215400696e+01
    1.5830035400e+02   -6.7356796265e+01
    1.5840026855e+02   -6.7498298645e+01
    1.5850044250e+02   -6.7640197754e+01
    1.5860035706e+02   -6.7781898499e+01
    1.5870039368e+02   -6.7923797607e+01
    1.5880047607e+02   -6.8065803528e+01
    1.5890048218e+02   -6.8207901001e+01
    1.5900038147e+02   -6.8349899292e+01
    1.5910037231e+02   -6.8492103577e+01
    1.5920039368e+02   -6.8634399414e+01
    1.5930041504e+02   -6.8776802063e+01
    1.5940051270e+02   -6.8919502258e+01
    1.5950039673e+02   -6.9061798096e+01
    1.5960035706e+02   -6.9204498291e+01
    1.5970048523e+02   -6.9347396851e+01
    1.5980053711e+02   -6.9490303040e+01
    1.5990045166e+02   -6.9633102417e+01
    1.6000039673e+02   -6.9776000977e+01
    1.6010055542e+02   -6.9919296265e+01
    1.6020050049e+02   -7.0062400818e+01
    1.6030047607e+02   -7.0205596924e+01
    1.6040049744e+02   -7.0348899841e+01
    1.6050048828e+02   -7.0492301941e+01
    1.6060046387e+02   -7.0635696411e+01
    1.6070054626e+02   -7.0779403687e+01
    1.6080053711e+02   -7.0922996521e+01
    1.6090055847e+02   -7.1066703796e+01
    1.6100048828e+02   -7.1210403442e+01
    1.6110047913e+02   -7.1354202271e+01
    1.6120051575e+02   -7.1498199463e+01
    1.6130053711e+02   -7.1642303467e+01
    1.6140057373e+02   -7.1786399841e+01
    1.6150062561e+02   -7.1930702209e+01
    1.6160061646e+02   -7.2074897766e+01
    1.6170065308e+02   -7.2219299316e+01
    1.6180050659e+02   -7.2363403320e+01
    1.6190048218e+02   -7.2507896423e+01
    1.6200056458e+02   -7.2652496338e+01
    1.6210064697e+02   -7.2797302246e+01
    1.6220063782e+02   -7.2942001343e+01
    1.6230058289e+02   -7.3086700439e+01
    1.6240055847e+02   -7.3231597900e+01
    1.6250053406e+02   -7.3376403809e+01
    1.6260058594e+02   -7.3521499634e+01
    1.6270062256e+02   -7.3666603088e+01
    1.6280072021e+02   -7.3811996460e+01
    1.6290066528e+02   -7.3957099915e+01
    1.6300056458e+02   -7.4102203369e+01
    1.6310064697e+02   -7.4247703552e+01
    1.6320060730e+02   -7.4393096924e+01
    1.6330064392e+02   -7.4538597107e+01
    1.6340069580e+02   -7.4684303284e+01
    1.6350062561e+02   -7.4829902649e+01
    1.6360073853e+02   -7.4975799561e+01
    1.6370074463e+02   -7.5121696472e+01
    1.6380076599e+02   -7.5267601013e+01
    1.6390075684e+02   -7.5413597107e+01
    1.6400076294e+02   -7.5559700012e+01
    1.6410072327e+02   -7.5705802917e+01
    1.6420077515e+02   -7.5852096558e+01
    1.6430073547e+02   -7.5998397827e+01
    1.6440069580e+02   -7.6144699097e+01
    1.6450071716e+02   -7.6291198730e+01
    1.6460066223e+02   -7.6437599182e+01
    1.6470080566e+02   -7.6584396362e+01
    1.6480075073e+02   -7.6730903625e+01
    1.6490075684e+02   -7.6877601624e+01
    1.6500068665e+02   -7.7024200439e+01
    1.6510075378e+02   -7.7171096802e+01
    1.6520083618e+02   -7.7318099976e+01
    1.6530079651e+02   -7.7464897156e+01
    1.6540083313e+02   -7.7611999512e+01
    1.6550083923e+02   -7.7759002686e+01
    1.6560070801e+02   -7.7905899048e+01
    1.6570082092e+02   -7.8053199768e+01
    1.6580078125e+02   -7.8200401306e+01
    1.6590083313e+02   -7.8347702026e+01
    1.6600079346e+02   -7.8494903564e+01
    1.6610089111e+02   -7.8642501831e+01
    1.6620085144e+02   -7.8789802551e+01
    1.6630084229e+02   -7.8937301636e+01
    1.6640078735e+02   -7.9084800720e+01
    1.6650082397e+02   -7.9232398987e+01
    1.6660090637e+02   -7.9380203247e+01
    1.6670094299e+02   -7.9527999878e+01
    1.6680096436e+02   -7.9675697327e+01
    1.6690083313e+02   -7.9823303223e+01
    1.6700085449e+02   -7.9971199036e+01
    1.6710084534e+02   -8.0119003296e+01
    1.6720083618e+02   -8.0266998291e+01
    1.6730091858e+02   -8.0415100098e+01
    1.6740084839e+02   -8.0563003540e+01
    1.6750097656e+02   -8.0711303711e+01
    1.6760093689e+02   -8.0859298706e+01
    1.6770088196e+02   -8.1007400513e+01
    1.6780093384e+02   -8.1155700684e+01
    1.6790087891e+02   -8.1303901672e+01
    1.6800100708e+02   -8.1452400208e+01
    1.6810096741e+02   -8.1600700378e+01
    1.6820100403e+02   -8.1749099731e+01
    1.6830099487e+02   -8.1897499084e+01
    1.6840089417e+02   -8.2045898438e+01
    1.6850094604e+02   -8.2194503784e+01
    1.6860105896e+02   -8.2343200684e+01
    1.6870100403e+02   -8.2491798401e+01
    1.6880101013e+02   -8.2640403748e+01
    1.6890104675e+02   -8.2789199829e+01
    1.6900097656e+02   -8.2937797546e+01
    1.6910092163e+02   -8.3086502075e+01
    1.6920098877e+02   -8.3235397339e+01
    1.6930104065e+02   -8.3384399414e+01
    1.6940110779e+02   -8.3533401489e+01
    1.6950097656e+02   -8.3682098389e+01
    1.6960104370e+02   -8.3831199646e+01
    1.6970109558e+02   -8.3980300903e+01
    1.6980105591e+02   -8.4129302979e+01
    1.6990098572e+02   -8.4278297424e+01
    1.7000099182e+02   -8.4427398682e+01
    1.7010104370e+02   -8.4576698303e+01
    1.7020103455e+02   -8.4725898743e+01
    1.7030110168e+02   -8.4875198364e+01
    1.7040104675e+02   -8.5024398804e+01
    1.7050105286e+02   -8.5173698425e+01
    1.7060104370e+02   -8.5322998047e+01
    1.7070106506e+02   -8.5472396851e+01
    1.7080110168e+02   -8.5621803284e+01
    1.7090121460e+02   -8.5771301270e+01
    1.7100105286e+02   -8.5920501709e+01
    1.7110107422e+02   -8.6069900513e+01
    1.7120112610e+02   -8.6219497681e+01
    1.7130111694e+02   -8.6368896484e+01
    1.7140112305e+02   -8.6518501282e+01
    1.7150108337e+02   -8.6667999268e+01
    1.7160116577e+02   -8.6817596436e+01
    1.7170112610e+02   -8.6967201233e+01
    1.7180116272e+02   -8.7116798401e+01
    1.7190113831e+02   -8.7266403198e+01
    1.7200117493e+02   -8.7416099548e+01
    1.7210115051e+02   -8.7565803528e+01
    1.7220118713e+02   -8.7715499878e+01
    1.7230113220e+02   -8.7865196228e+01
    1.7240115356e+02   -8.8014999390e+01
    1.7250114441e+02   -8.8164802551e+01
    1.7260127258e+02   -8.8314796448e+01
    1.7270118713e+02   -8.8464500427e+01
    1.7280125427e+02   -8.8614501953e+01
    1.7290121460e+02   -8.8764297485e+01
    1.7300129700e+02   -8.8914199829e+01
    1.7310130310e+02   -8.9064102173e+01
    1.7320117188e+02   -8.9213897705e+01
    1.7330120850e+02   -8.9363899231e+01
    1.7340119934e+02   -8.9513801575e+01
    1.7350131226e+02   -8.9664001465e+01
    1.7360130310e+02   -8.9814102173e+01
    1.7370137024e+02   -8.9964202881e+01
    1.7380134583e+02   -9.0114303589e+01
    1.7390129089e+02   -9.0264297485e+01
    1.7400140381e+02   -9.0414596558e+01
    1.7410122681e+02   -9.0564498901e+01
    1.7420137024e+02   -9.0714897156e+01
    1.7430137634e+02   -9.0865097046e+01
    1.7440141296e+02   -9.1015403748e+01
    1.7450129700e+02   -9.1165496826e+01
    1.7460142517e+02   -9.1315902710e+01
    1.7470132446e+02   -9.1466003418e+01
    1.7480145264e+02   -9.1616500854e+01
    1.7490142822e+02   -9.1766700745e+01
    1.7500134277e+02   -9.1916801453e+01
    1.7510139465e+02   -9.2067199707e+01
    1.7520143127e+02   -9.2217597961e+01
    1.7530134583e+02   -9.2367698669e+01
    1.7540139771e+02   -9.2518203735e+01
    1.7550149536e+02   -9.2668601990e+01
    1.7560150146e+02   -9.2818901062e+01
    1.7570146179e+02   -9.2969200134e+01
    1.7580136108e+02   -9.3119400024e+01
    1.7590148926e+02   -9.3269897461e+01
    1.7600137329e+02   -9.3420097351e+01
    1.7610142517e+02   -9.3570602417e+01
    1.7620149231e+02   -9.3721000671e+01
    1.7630143738e+02   -9.3871299744e+01
    1.7640147400e+02   -9.4021797180e+01
    1.7650149536e+02   -9.4172203064e+01
    1.7660144043e+02   -9.4322502136e+01
    1.7670155334e+02   -9.4473098755e+01
    1.7680149841e+02   -9.4623397827e+01
    1.7690147400e+02   -9.4773696899e+01
    1.7700143433e+02   -9.4924003601e+01
    1.7710157776e+02   -9.5074600220e+01
    1.7720150757e+02   -9.5224899292e+01
    1.7730143738e+02   -9.5375198364e+01
    1.7740151978e+02   -9.5525703430e+01
    1.7750155640e+02   -9.5676200867e+01
    1.7760159302e+02   -9.5826698303e+01
    1.7770161438e+02   -9.5977096558e+01
    1.7780149841e+02   -9.6127296448e+01
    1.7790159607e+02   -9.6277900696e+01
    1.7800163269e+02   -9.6428298950e+01
    1.7810150146e+02   -9.6578498840e+01
    1.7820158386e+02   -9.6729103088e+01
    1.7830158997e+02   -9.6879501343e+01
    1.7840165710e+02   -9.7029998779e+01
    1.7850164795e+02   -9.7180397034e+01
    1.7860163879e+02   -9.7330802917e+01
    1.7870150757e+02   -9.7481002808e+01
    1.7880163574e+02   -9.7631500244e+01
    1.7890159607e+02   -9.7781898499e+01
    1.7900155640e+02   -9.7932197571e+01
    1.7910154724e+02   -9.8082496643e+01
    1.7920155334e+02   -9.8232803345e+01
    1.7930163574e+02   -9.8383201599e+01
    1.7940170288e+02   -9.8533599854e+01
    1.7950161743e+02   -9.8683700562e+01
    1.7960159302e+02   -9.8833900452e+01
    1.7970159912e+02   -9.8984199524e+01
    1.7980166626e+02   -9.9134498596e+01
    1.7990168762e+02   -9.9284698486e+01
    1.8000175476e+02   -9.9434997559e+01
    1.8010165405e+02   -9.9584999084e+01
    1.8020169067e+02   -9.9735198975e+01
    1.8030169678e+02   -9.9885299683e+01
    1.8040171814e+02   -1.0003500366e+02
    1.8050172424e+02   -1.0018499756e+02
    1.8060173035e+02   -1.0033499908e+02
    1.8070164490e+02   -1.0048500061e+02
    1.8080165100e+02   -1.0063500214e+02
    1.8090168762e+02   -1.0078500366e+02
    1.8100169373e+02   -1.0093499756e+02
    1.8110180664e+02   -1.0108499908e+02
    1.8120176697e+02   -1.0123400116e+02
    1.8130180359e+02   -1.0138400269e+02
    1.8140168762e+02   -1.0153399658e+02
    1.8150169373e+02   -1.0168299866e+02
    1.8160171509e+02   -1.0183300018e+02
    1.8170170593e+02   -1.0198300171e+02
    1.8180172729e+02   -1.0213200378e+02
    1.8190182495e+02   -1.0228199768e+02
    1.8200181580e+02   -1.0243099976e+02
    1.8210180664e+02   -1.0258100128e+02
    1.8220184326e+02   -1.0273000336e+02
    1.8230186462e+02   -1.0287999725e+02
    1.8240188599e+02   -1.0302899933e+02
    1.8250190735e+02   -1.0317800140e+02
    1.8260192871e+02   -1.0332800293e+02
    1.8270190430e+02   -1.0347699738e+02
    1.8280189514e+02   -1.0362599945e+02
    1.8290177917e+02   -1.0377500153e+02
    1.8300187683e+02   -1.0392400360e+02
    1.8310191345e+02   -1.0407299805e+02
    1.8320193481e+02   -1.0422100067e+02
    1.8330186462e+02   -1.0437000275e+02
    1.8340182495e+02   -1.0451899719e+02
    1.8350189209e+02   -1.0466699982e+02
    1.8360191345e+02   -1.0481600189e+02
    1.8370181274e+02   -1.0496399689e+02
    1.8380183411e+02   -1.0511299896e+02
    1.8390191650e+02   -1.0526100159e+02
    1.8400187683e+02   -1.0541000366e+02
    1.8410185242e+02   -1.0555799866e+02
    1.8420202637e+02   -1.0570600128e+02
    1.8430195618e+02   -1.0585399628e+02
    1.8440200806e+02   -1.0600199890e+02
    1.8450195312e+02   -1.0615000153e+02
    1.8460202026e+02   -1.0629799652e+02
    1.8470188904e+02   -1.0644599915e+02
    1.8480187988e+02   -1.0659400177e+02
    1.8490205383e+02   -1.0674099731e+02
    1.8500190735e+02   -1.0688899994e+02
    1.8510198975e+02   -1.0703600311e+02
    1.8520193481e+02   -1.0718399811e+02
    1.8530204773e+02   -1.0733100128e+02
    1.8540197754e+02   -1.0747799683e+02
    1.8550204468e+02   -1.0762599945e+02
    1.8560200500e+02   -1.0777300262e+02
    1.8570208740e+02   -1.0791999817e+02
    1.8580198669e+02   -1.0806700134e+02
    1.8590209961e+02   -1.0821399689e+02
    1.8600204468e+02   -1.0836000061e+02
    1.8610211182e+02   -1.0850700378e+02
    1.8620205688e+02   -1.0865399933e+02
    1.8630209351e+02   -1.0880000305e+02
    1.8640208435e+02   -1.0894699860e+02
    1.8650198364e+02   -1.0909300232e+02
    1.8660209656e+02   -1.0923899841e+02
    1.8670217896e+02   -1.0938600159e+02
    1.8680212402e+02   -1.0953199768e+02
    1.8690205383e+02   -1.0967800140e+02
    1.8700210571e+02   -1.0982399750e+02
    1.8710211182e+02   -1.0997000122e+02
    1.8720210266e+02   -1.1011499786e+02
    1.8730209351e+02   -1.1026100159e+02
    1.8740209961e+02   -1.1040699768e+02
    1.8750207520e+02   -1.1055200195e+02
    1.8760223389e+02   -1.1069799805e+02
    1.8770223999e+02   -1.1084300232e+02
    1.8780212402e+02   -1.1098799896e+02
    1.8790220642e+02   -1.1113300323e+02
    1.8800212097e+02   -1.1127799988e+02
    1.8810214233e+02   -1.1142199707e+02
    1.8820223999e+02   -1.1156700134e+02
    1.8830227661e+02   -1.1171199799e+02
    1.8840223694e+02   -1.1185600281e+02
    1.8850218201e+02   -1.1200099945e+02
    1.8860212708e+02   -1.1214499664e+02
    1.8870223999e+02   -1.1228900146e+02
    1.8880221558e+02   -1.1243299866e+02
    1.8890213013e+02   -1.1257700348e+02
    1.8900213623e+02   -1.1272000122e+02
    1.8910226440e+02   -1.1286399841e+02
    1.8920225525e+02   -1.1300700378e+02
    1.8930232239e+02   -1.1315100098e+02
    1.8940217590e+02   -1.1329299927e+02
    1.8950234985e+02   -1.1343699646e+02
    1.8960226440e+02   -1.1357900238e+02
    1.8970217896e+02   -1.1372200012e+02
    1.8980221558e+02   -1.1386399841e+02
    1.8990225220e+02   -1.1400599670e+02
    1.9000230408e+02   -1.1414800262e+02
    1.9010237122e+02   -1.1429000092e+02
    1.9020225525e+02   -1.1443199921e+02
    1.9030233765e+02   -1.1457399750e+02
    1.9040237427e+02   -1.1471499634e+02
    1.9050224304e+02   -1.1485600281e+02
    1.9060231018e+02   -1.1499700165e+02
    1.9070236206e+02   -1.1513700104e+02
    1.9080232239e+02   -1.1527700043e+02
    1.9090226746e+02   -1.1541799927e+02
    1.9100236511e+02   -1.1555799866e+02
    1.9110238647e+02   -1.1569699860e+02
    1.9120242310e+02   -1.1583699799e+02
    1.9130230713e+02   -1.1597599792e+02
    1.9140231323e+02   -1.1611499786e+02
    1.9150238037e+02   -1.1625399780e+02
    1.9160243225e+02   -1.1639199829e+02
    1.9170237732e+02   -1.1652999878e+02
    1.9180235291e+02   -1.1666799927e+02
    1.9190248108e+02   -1.1680599976e+02
    1.9200234985e+02   -1.1694400024e+02
    1.9210240173e+02   -1.1708100128e+02
    1.9220245361e+02   -1.1721800232e+02
    1.9230238342e+02   -1.1735500336e+02
    1.9240248108e+02   -1.1749099731e+02
    1.9250250244e+02   -1.1762799835e+02
    1.9260246277e+02   -1.1776300049e+02
    1.9270249939e+02   -1.1789900208e+02
    1.9280249023e+02   -1.1803500366e+02
    1.9290255737e+02   -1.1816999817e+02
    1.9300251770e+02   -1.1830500031e+02
    1.9310240173e+02   -1.1843900299e+02
    1.9320251465e+02   -1.1857299805e+02
    1.9330256653e+02   -1.1870700073e+02
    1.9340242004e+02   -1.1883999634e+02
    1.9350248718e+02   -1.1897399902e+02
    1.9360249329e+02   -1.1910700226e+02
    1.9370249939e+02   -1.1923899841e+02
    1.9380259705e+02   -1.1937100220e+02
    1.9390249634e+02   -1.1950299835e+02
    1.9400251770e+02   -1.1963500214e+02
    1.9410263062e+02   -1.1976599884e+02
    1.9420257568e+02   -1.1989700317e+02
    1.9430250549e+02   -1.2002700043e+02
    1.9440255737e+02   -1.2015699768e+02
[...]
    2.5130598450e+02   -1.3629299927e+02
    2.5140594482e+02   -1.3624499512e+02
    2.5150602722e+02   -1.3619599915e+02
    2.5160612488e+02   -1.3614599609e+02
    2.5170614624e+02   -1.3609599304e+02
    2.5180616760e+02   -1.3604600525e+02
    2.5190605164e+02   -1.3599499512e+02
    2.5200608826e+02   -1.3594299316e+02
    2.5210601807e+02   -1.3589199829e+02
    2.5220606995e+02   -1.3583900452e+02
    2.5230610657e+02   -1.3578700256e+02
    2.5240602112e+02   -1.3573399353e+02
    2.5250602722e+02   -1.3567999268e+02
    2.5260609436e+02   -1.3562600708e+02
    2.5270617676e+02   -1.3557099915e+02
    2.5280610657e+02   -1.3551699829e+02
    2.5290609741e+02   -1.3546099854e+02
    2.5300604248e+02   -1.3540600586e+02
    2.5310612488e+02   -1.3534899902e+02
    2.5320617676e+02   -1.3529299927e+02
    2.5330616760e+02   -1.3523500061e+02
    2.5340625000e+02   -1.3517799377e+02
    2.5350610352e+02   -1.3511999512e+02
    2.5360621643e+02   -1.3506199646e+02
    2.5370622253e+02   -1.3500300598e+02
    2.5380618286e+02   -1.3494400024e+02
    2.5390611267e+02   -1.3488400269e+02
    2.5400625610e+02   -1.3482400513e+02
    2.5410627747e+02   -1.3476400757e+02
    2.5420616150e+02   -1.3470300293e+02
    2.5430618286e+02   -1.3464199829e+02
    2.5440623474e+02   -1.3458000183e+02
    2.5450630188e+02   -1.3451800537e+02
    2.5460627747e+02   -1.3445599365e+02
    2.5470631409e+02   -1.3439300537e+02
    2.5480621338e+02   -1.3433000183e+02
    2.5490621948e+02   -1.3426699829e+02
    2.5500628662e+02   -1.3420300293e+02
    2.5510630798e+02   -1.3413900757e+02
    2.5520626831e+02   -1.3407400513e+02
    2.5530625916e+02   -1.3400900269e+02
    2.5540629578e+02   -1.3394400024e+02
    2.5550631714e+02   -1.3387800598e+02
    2.5560629272e+02   -1.3381199646e+02
    2.5570635986e+02   -1.3374499512e+02
    2.5580638123e+02   -1.3367799377e+02
    2.5590623474e+02   -1.3361099243e+02
    2.5600622559e+02   -1.3354400635e+02
    2.5610635376e+02   -1.3347500610e+02
    2.5620626831e+02   -1.3340699768e+02
    2.5630627441e+02   -1.3333799744e+02
    2.5640631104e+02   -1.3326899719e+02
    2.5650631714e+02   -1.3319999695e+02
    2.5660638428e+02   -1.3313000488e+02
    2.5670632935e+02   -1.3305900574e+02
    2.5680639648e+02   -1.3298899841e+02
    2.5690634155e+02   -1.3291799927e+02
    2.5700643921e+02   -1.3284599304e+02
    2.5710638428e+02   -1.3277499390e+02
    2.5720642090e+02   -1.3270199585e+02
    2.5730630493e+02   -1.3263000488e+02
    2.5740646362e+02   -1.3255700684e+02
    2.5750631714e+02   -1.3248399353e+02
    2.5760638428e+02   -1.3241000366e+02
    2.5770642090e+02   -1.3233599854e+02
    2.5780645752e+02   -1.3226199341e+02
    2.5790634155e+02   -1.3218699646e+02
    2.5800650024e+02   -1.3211199951e+02
    2.5810641479e+02   -1.3203700256e+02
    2.5820651245e+02   -1.3196099854e+02
    2.5830648804e+02   -1.3188499451e+02
    2.5840640259e+02   -1.3180900574e+02
    2.5850653076e+02   -1.3173199463e+02
    2.5860656738e+02   -1.3165499878e+02
    2.5870645142e+02   -1.3157800293e+02
    2.5880642700e+02   -1.3150000000e+02
    2.5890655518e+02   -1.3142199707e+02
    2.5900653076e+02   -1.3134399414e+02
    2.5910641479e+02   -1.3126499939e+02
    2.5920645142e+02   -1.3118699646e+02
    2.5930642700e+02   -1.3110699463e+02
    2.5940655518e+02   -1.3102799988e+02
    2.5950659180e+02   -1.3094799805e+02
    2.5960653687e+02   -1.3086799622e+02
    2.5970654297e+02   -1.3078799438e+02
    2.5980664062e+02   -1.3070700073e+02
    2.5990664673e+02   -1.3062600708e+02
    2.6000646973e+02   -1.3054499817e+02
    2.6010647583e+02   -1.3046400452e+02
    2.6020666504e+02   -1.3038200378e+02
    2.6030651855e+02   -1.3030000305e+02
    2.6040664673e+02   -1.3021800232e+02
    2.6050665283e+02   -1.3013499451e+02
    2.6060653687e+02   -1.3005299377e+02
    2.6070663452e+02   -1.2997000122e+02
    2.6080661011e+02   -1.2988600159e+02
    2.6090664673e+02   -1.2980299377e+02
    2.6100671387e+02   -1.2971899414e+02
    2.6110653687e+02   -1.2963499451e+02
    2.6120660400e+02   -1.2955099487e+02
    2.6130664062e+02   -1.2946600342e+02
    2.6140667725e+02   -1.2938099670e+02
    2.6150659180e+02   -1.2929600525e+02
    2.6160671997e+02   -1.2921099854e+02
    2.6170663452e+02   -1.2912500000e+02
    2.6180670166e+02   -1.2903900146e+02
    2.6190673828e+02   -1.2895300293e+02
    2.6200674438e+02   -1.2886700439e+02
    2.6210659790e+02   -1.2878100586e+02
    2.6220669556e+02   -1.2869400024e+02
    2.6230676270e+02   -1.2860699463e+02
    2.6240676880e+02   -1.2851899719e+02
    2.6250662231e+02   -1.2843200684e+02
    2.6260671997e+02   -1.2834399414e+02
    2.6270666504e+02   -1.2825700378e+02
    2.6280679321e+02   -1.2816799927e+02
    2.6290679932e+02   -1.2808000183e+02
    2.6300668335e+02   -1.2799199677e+02
    2.6310678101e+02   -1.2790299988e+02
    2.6320675659e+02   -1.2781400299e+02
    2.6330682373e+02   -1.2772499847e+02
    2.6340670776e+02   -1.2763600159e+02
    2.6350677490e+02   -1.2754599762e+02
    2.6360684204e+02   -1.2745700073e+02
    2.6370684814e+02   -1.2736699677e+02
    2.6380679321e+02   -1.2727700043e+02
    2.6390682983e+02   -1.2718699646e+02
    2.6400680542e+02   -1.2709700012e+02
    2.6410671997e+02   -1.2700599670e+02
    2.6420681763e+02   -1.2691600037e+02
    2.6430679321e+02   -1.2682499695e+02
    2.6440676880e+02   -1.2673400116e+02
    2.6450674438e+02   -1.2664399719e+02
    2.6460687256e+02   -1.2655200195e+02
    2.6470684814e+02   -1.2646099854e+02
    2.6480682373e+02   -1.2637000275e+02
    2.6490689087e+02   -1.2627899933e+02
    2.6500683594e+02   -1.2618699646e+02
    2.6510696411e+02   -1.2609500122e+02
    2.6520684814e+02   -1.2600399780e+02
    2.6530688477e+02   -1.2591200256e+02
    2.6540686035e+02   -1.2581999969e+02
    2.6550683594e+02   -1.2572799683e+02
    2.6560681152e+02   -1.2563600159e+02
    2.6570697021e+02   -1.2554399872e+02
    2.6580682373e+02   -1.2545200348e+02
    2.6590689087e+02   -1.2535900116e+02
    2.6600692749e+02   -1.2526599884e+02
    2.6610687256e+02   -1.2517400360e+02
    2.6620684814e+02   -1.2508100128e+02
    2.6630685425e+02   -1.2498799896e+02
    2.6640692139e+02   -1.2489499664e+02
    2.6650701904e+02   -1.2480200195e+02
    2.6660690308e+02   -1.2470899963e+02
    2.6670700073e+02   -1.2461599731e+02
    2.6680691528e+02   -1.2452300262e+02
    2.6690698242e+02   -1.2442900085e+02
    2.6700701904e+02   -1.2433599854e+02
    2.6710696411e+02   -1.2424199677e+02
    2.6720690918e+02   -1.2414900208e+02
    2.6730697632e+02   -1.2405500031e+02
    2.6740707397e+02   -1.2396099854e+02
    2.6750704956e+02   -1.2386699677e+02
    2.6760711670e+02   -1.2377300262e+02
    2.6770700073e+02   -1.2367900085e+02
    2.6780700684e+02   -1.2358499908e+02
    2.6790698242e+02   -1.2349099731e+02
    2.6800698853e+02   -1.2339700317e+02
    2.6810702515e+02   -1.2330300140e+02
    2.6820700073e+02   -1.2320800018e+02
    2.6830703735e+02   -1.2311399841e+02
    2.6840701294e+02   -1.2301899719e+02
    2.6850704956e+02   -1.2292500305e+02
    2.6860699463e+02   -1.2283000183e+02
    2.6870703125e+02   -1.2273600006e+02
    2.6880709839e+02   -1.2264099884e+02
    2.6890716553e+02   -1.2254599762e+02
    2.6900714111e+02   -1.2245099640e+02
    2.6910705566e+02   -1.2235700226e+02
    2.6920721436e+02   -1.2226200104e+02
    2.6930718994e+02   -1.2216699982e+02
    2.6940710449e+02   -1.2207199860e+02
    2.6950720215e+02   -1.2197699738e+02
    2.6960714722e+02   -1.2188200378e+02
    2.6970721436e+02   -1.2178600311e+02
    2.6980709839e+02   -1.2169100189e+02
    2.6990710449e+02   -1.2159600067e+02
    2.7000723267e+02   -1.2150099945e+02
    2.7010720825e+02   -1.2140499878e+02
    2.7020718384e+02   -1.2130999756e+02
    2.7030722046e+02   -1.2121399689e+02
    2.7040713501e+02   -1.2111900330e+02
    2.7050711060e+02   -1.2102300262e+02
    2.7060726929e+02   -1.2092800140e+02
    2.7070718384e+02   -1.2083200073e+02
    2.7080731201e+02   -1.2073600006e+02
    2.7090713501e+02   -1.2063999939e+02
    2.7100717163e+02   -1.2054399872e+02
    2.7110720825e+02   -1.2044799805e+02
    2.7120727539e+02   -1.2035199738e+02
    2.7130725098e+02   -1.2025599670e+02
    2.7140722656e+02   -1.2016000366e+02
    2.7150720215e+02   -1.2006400299e+02
    2.7160726929e+02   -1.1996700287e+02
    2.7170724487e+02   -1.1987100220e+02
    2.7180728149e+02   -1.1977400208e+02
    2.7190719604e+02   -1.1967800140e+02
    2.7200732422e+02   -1.1958100128e+02
    2.7210726929e+02   -1.1948400116e+02
    2.7220727539e+02   -1.1938700104e+02
    2.7230734253e+02   -1.1929000092e+02
    2.7240737915e+02   -1.1919300079e+02
    2.7250726318e+02   -1.1909600067e+02
    2.7260739136e+02   -1.1899900055e+02
    2.7270733643e+02   -1.1890200043e+02
    2.7280734253e+02   -1.1880400085e+02
    2.7290722656e+02   -1.1870700073e+02
    2.7300741577e+02   -1.1860900116e+02
    2.7310733032e+02   -1.1851100159e+02
    2.7320733643e+02   -1.1841400146e+02
    2.7330731201e+02   -1.1831600189e+02
    2.7340734863e+02   -1.1821800232e+02
    2.7350729370e+02   -1.1812000275e+02
    2.7360745239e+02   -1.1802200317e+02
    2.7370739746e+02   -1.1792400360e+02
    2.7380737305e+02   -1.1782499695e+02
    2.7390737915e+02   -1.1772699738e+02
    2.7400732422e+02   -1.1762899780e+02
    2.7410736084e+02   -1.1752999878e+02
    2.7420739746e+02   -1.1743199921e+02
    2.7430734253e+02   -1.1733300018e+02
    2.7440737915e+02   -1.1723400116e+02
    2.7450750732e+02   -1.1713500214e+02
    2.7460742188e+02   -1.1703600311e+02
    2.7470748901e+02   -1.1693699646e+02
    2.7480740356e+02   -1.1683799744e+02
    2.7490744019e+02   -1.1673899841e+02
    2.7500756836e+02   -1.1663999939e+02
    2.7510751343e+02   -1.1654100037e+02
    2.7520739746e+02   -1.1644100189e+02
    2.7530743408e+02   -1.1634200287e+02
    2.7540740967e+02   -1.1624199677e+02
    2.7550744629e+02   -1.1614199829e+02
    2.7560742188e+02   -1.1604199982e+02
    2.7570748901e+02   -1.1594200134e+02
    2.7580746460e+02   -1.1584200287e+02
    2.7590756226e+02   -1.1574199677e+02
    2.7600756836e+02   -1.1564199829e+02
    2.7610754395e+02   -1.1554100037e+02
    2.7620761108e+02   -1.1544100189e+02
    2.7630755615e+02   -1.1533999634e+02
    2.7640759277e+02   -1.1523899841e+02
    2.7650762939e+02   -1.1513800049e+02
    2.7660751343e+02   -1.1503800201e+02
    2.7670764160e+02   -1.1493599701e+02
    2.7680758667e+02   -1.1483499908e+02
    2.7690750122e+02   -1.1473400116e+02
    2.7700762939e+02   -1.1463200378e+02
    2.7710757446e+02   -1.1453099823e+02
    2.7720767212e+02   -1.1442900085e+02
    2.7730755615e+02   -1.1432700348e+02
    2.7740762329e+02   -1.1422499847e+02
    2.7750765991e+02   -1.1412300110e+02
    2.7760757446e+02   -1.1402100372e+02
    2.7770761108e+02   -1.1391899872e+02
    2.7780770874e+02   -1.1381600189e+02
    2.7790768433e+02   -1.1371399689e+02
    2.7800759888e+02   -1.1361100006e+02
    2.7810772705e+02   -1.1350800323e+02
    2.7820770264e+02   -1.1340499878e+02
    2.7830761719e+02   -1.1330200195e+02
    2.7840759277e+02   -1.1319899750e+02
    2.7850769043e+02   -1.1309600067e+02
    2.7860772705e+02   -1.1299199677e+02
    2.7870773315e+02   -1.1288899994e+02
    2.7880770874e+02   -1.1278500366e+02
    2.7890777588e+02   -1.1268199921e+02
    2.7900762939e+02   -1.1257800293e+02
    2.7910778809e+02   -1.1247399902e+02
    2.7920773315e+02   -1.1237000275e+02
    2.7930770874e+02   -1.1226599884e+02
    2.7940774536e+02   -1.1216200256e+02
    2.7950772095e+02   -1.1205699921e+02
    2.7960781860e+02   -1.1195200348e+02
    2.7970773315e+02   -1.1184799957e+02
    2.7980776978e+02   -1.1174299622e+02
    2.7990783691e+02   -1.1163800049e+02
    2.8000772095e+02   -1.1153299713e+02
    2.8010784912e+02   -1.1142800140e+02
    2.8020782471e+02   -1.1132199860e+02
    2.8030783081e+02   -1.1121700287e+02
    2.8040774536e+02   -1.1111100006e+02
    2.8050775146e+02   -1.1100599670e+02
    2.8060775757e+02   -1.1090000153e+02
    2.8070782471e+02   -1.1079399872e+02
    2.8080776978e+02   -1.1068699646e+02
    2.8090774536e+02   -1.1058100128e+02
    2.8100784302e+02   -1.1047399902e+02
    2.8110775757e+02   -1.1036799622e+02
    2.8120782471e+02   -1.1026100159e+02
    2.8130789185e+02   -1.1015399933e+02
    2.8140777588e+02   -1.1004699707e+02
    2.8150793457e+02   -1.0993900299e+02
    2.8160787964e+02   -1.0983200073e+02
    2.8170782471e+02   -1.0972499847e+02
    2.8180783081e+02   -1.0961699677e+02
    2.8190780640e+02   -1.0950900269e+02
    2.8200784302e+02   -1.0940100098e+02
    2.8210800171e+02   -1.0929299927e+02
    2.8220782471e+02   -1.0918499756e+02
    2.8230783081e+02   -1.0907599640e+02
    2.8240789795e+02   -1.0896700287e+02
    2.8250796509e+02   -1.0885900116e+02
    2.8260787964e+02   -1.0875000000e+02
    2.8270788574e+02   -1.0864099884e+02
    2.8280795288e+02   -1.0853199768e+02
    2.8290792847e+02   -1.0842299652e+02
    2.8300802612e+02   -1.0831300354e+02
    2.8310803223e+02   -1.0820300293e+02
    2.8320800781e+02   -1.0809400177e+02
    2.8330792236e+02   -1.0798400116e+02
    2.8340786743e+02   -1.0787400055e+02
    2.8350805664e+02   -1.0776399994e+02
    2.8360791016e+02   -1.0765399933e+02
    2.8370794678e+02   -1.0754299927e+02
    2.8380801392e+02   -1.0743199921e+02
    2.8390798950e+02   -1.0732199860e+02
    2.8400799561e+02   -1.0721099854e+02
    2.8410794067e+02   -1.0709999847e+02
    2.8420800781e+02   -1.0698899841e+02
    2.8430801392e+02   -1.0687699890e+02
    2.8440798950e+02   -1.0676599884e+02
    2.8450808716e+02   -1.0665399933e+02
    2.8460800171e+02   -1.0654199982e+02
    2.8470816040e+02   -1.0643000031e+02
    2.8480813599e+02   -1.0631800079e+02
    2.8490808105e+02   -1.0620600128e+02
    2.8500811768e+02   -1.0609300232e+02
    2.8510809326e+02   -1.0598100281e+02
    2.8520803833e+02   -1.0586799622e+02
    2.8530810547e+02   -1.0575499725e+02
    2.8540814209e+02   -1.0564199829e+02
    2.8550817871e+02   -1.0552899933e+02
    2.8560818481e+02   -1.0541500092e+02
    2.8570812988e+02   -1.0530200195e+02
    2.8580816650e+02   -1.0518800354e+02
    2.8590820312e+02   -1.0507399750e+02
    2.8600808716e+02   -1.0495999908e+02
    2.8610812378e+02   -1.0484500122e+02
    2.8620819092e+02   -1.0473100281e+02
    2.8630807495e+02   -1.0461599731e+02
    2.8640814209e+02   -1.0450199890e+02
    2.8650811768e+02   -1.0438700104e+02
    2.8660821533e+02   -1.0427100372e+02
    2.8670816040e+02   -1.0415599823e+02
    2.8680810547e+02   -1.0404100037e+02
    2.8690811157e+02   -1.0392500305e+02
    2.8700823975e+02   -1.0380899811e+02
    2.8710812378e+02   -1.0369300079e+02
    2.8720831299e+02   -1.0357700348e+02
    2.8730813599e+02   -1.0346099854e+02
    2.8740826416e+02   -1.0334400177e+02
    2.8750827026e+02   -1.0322799683e+02
    2.8760830688e+02   -1.0311100006e+02
    2.8770831299e+02   -1.0299400330e+02
    2.8780819702e+02   -1.0287699890e+02
    2.8790817261e+02   -1.0276000214e+02
    2.8800817871e+02   -1.0264299774e+02
    2.8810827637e+02   -1.0252500153e+02
    2.8820828247e+02   -1.0240799713e+02
    2.8830838013e+02   -1.0229000092e+02
    2.8840823364e+02   -1.0217199707e+02
    2.8850827026e+02   -1.0205400085e+02
    2.8860827637e+02   -1.0193599701e+02
    2.8870831299e+02   -1.0181700134e+02
    2.8880825806e+02   -1.0169899750e+02
    2.8890832520e+02   -1.0158000183e+02
    2.8900827026e+02   -1.0146099854e+02
    2.8910833740e+02   -1.0134200287e+02
    2.8920825195e+02   -1.0122299957e+02
    2.8930825806e+02   -1.0110399628e+02
    2.8940841675e+02   -1.0098500061e+02
    2.8950833130e+02   -1.0086499786e+02
    2.8960839844e+02   -1.0074500275e+02
    2.8970828247e+02   -1.0062599945e+02
    2.8980831909e+02   -1.0050499725e+02
    2.8990841675e+02   -1.0038500214e+02
    2.9000833130e+02   -1.0026499939e+02
    2.9010845947e+02   -1.0014399719e+02
    2.9020843506e+02   -1.0002300262e+02
    2.9030847168e+02   -9.9902397156e+01
    2.9040838623e+02   -9.9781402588e+01
    2.9050848389e+02   -9.9660102844e+01
    2.9060845947e+02   -9.9538696289e+01
    2.9070843506e+02   -9.9417198181e+01
    2.9080838013e+02   -9.9295501709e+01
    2.9090835571e+02   -9.9173698425e+01
    2.9100851440e+02   -9.9051399231e+01
    2.9110842896e+02   -9.8929397583e+01
    2.9120840454e+02   -9.8806999207e+01
    2.9130838013e+02   -9.8684600830e+01
    2.9140838623e+02   -9.8561897278e+01
    2.9150845337e+02   -9.8439102173e+01
    2.9160852051e+02   -9.8316001892e+01
    2.9170846558e+02   -9.8193000793e+01
    2.9180841064e+02   -9.8069900513e+01
    2.9190859985e+02   -9.7946296692e+01
    2.9200854492e+02   -9.7822799683e+01
    2.9210852051e+02   -9.7699203491e+01
    2.9220852661e+02   -9.7575302124e+01
    2.9230856323e+02   -9.7451301575e+01
    2.9240853882e+02   -9.7327201843e+01
    2.9250845337e+02   -9.7203102112e+01
    2.9260861206e+02   -9.7078498840e+01
    2.9270852661e+02   -9.6954002380e+01
    2.9280850220e+02   -9.6829399109e+01
    2.9290863037e+02   -9.6704399109e+01
    2.9300863647e+02   -9.6579399109e+01
    2.9310848999e+02   -9.6454399109e+01
    2.9320867920e+02   -9.6328903198e+01
    2.9330856323e+02   -9.6203598022e+01
    2.9340866089e+02   -9.6077796936e+01
    2.9350866699e+02   -9.5952003479e+01
    2.9360870361e+02   -9.5826103210e+01
    2.9370852661e+02   -9.5700202942e+01
    2.9380868530e+02   -9.5573699951e+01
    2.9390859985e+02   -9.5447502136e+01
    2.9400869751e+02   -9.5320800781e+01
    2.9410864258e+02   -9.5194198608e+01
    2.9420855713e+02   -9.5067497253e+01
    2.9430871582e+02   -9.4940399170e+01
    2.9440866089e+02   -9.4813400269e+01
    2.9450857544e+02   -9.4686302185e+01
    2.9460870361e+02   -9.4558799744e+01
    2.9470864868e+02   -9.4431396484e+01
    2.9480862427e+02   -9.4303802490e+01
    2.9490875244e+02   -9.4175903320e+01
    2.9500869751e+02   -9.4048103333e+01
    2.9510861206e+02   -9.3920196533e+01
    2.9520874023e+02   -9.3791801453e+01
    2.9530871582e+02   -9.3663497925e+01
    2.9540863037e+02   -9.3535202026e+01
    2.9550878906e+02   -9.3406402588e+01
    2.9560879517e+02   -9.3277603149e+01
    2.9570867920e+02   -9.3148902893e+01
    2.9580868530e+02   -9.3019798279e+01
    2.9590869141e+02   -9.2890602112e+01
    2.9600875854e+02   -9.2761199951e+01
    2.9610876465e+02   -9.2631698608e+01
    2.9620880127e+02   -9.2501998901e+01
    2.9630871582e+02   -9.2372299194e+01
    2.9640875244e+02   -9.2242301941e+01
    2.9650878906e+02   -9.2112197876e+01
    2.9660876465e+02   -9.1981903076e+01
    2.9670877075e+02   -9.1851501465e+01
    2.9680871582e+02   -9.1721099854e+01
    2.9690887451e+02   -9.1590202332e+01
    2.9700878906e+02   -9.1459503174e+01
    2.9710885620e+02   -9.1328399658e+01
    2.9720889282e+02   -9.1197196960e+01
    2.9730880737e+02   -9.1066101074e+01
    2.9740875244e+02   -9.0934700012e+01
    2.9750881958e+02   -9.0803001404e+01
    2.9760879517e+02   -9.0671302795e+01
    2.9770889282e+02   -9.0539398193e+01
    2.9780877686e+02   -9.0407501221e+01
    2.9790890503e+02   -9.0275100708e+01
    2.9800891113e+02   -9.0142898560e+01
    2.9810891724e+02   -9.0010398865e+01
    2.9820892334e+02   -8.9877799988e+01
    2.9830892944e+02   -8.9745002747e+01
    2.9840884399e+02   -8.9612197876e+01
    2.9850885010e+02   -8.9479103088e+01
    2.9860888672e+02   -8.9345901489e+01
    2.9870883179e+02   -8.9212600708e+01
    2.9880895996e+02   -8.9078903198e+01
    2.9890896606e+02   -8.8945297241e+01
    2.9900885010e+02   -8.8811698914e+01
    2.9910894775e+02   -8.8677597046e+01
    2.9920889282e+02   -8.8543601990e+01
    2.9930886841e+02   -8.8409500122e+01
    2.9940902710e+02   -8.8274902344e+01
    2.9950897217e+02   -8.8140502930e+01
    2.9960900879e+02   -8.8005798340e+01
    2.9970898438e+02   -8.7871101379e+01
    2.9980889893e+02   -8.7736297607e+01
    2.9990905762e+02   -8.7600997925e+01
endcurve
