Curveplot
LS-DYNA keyword deck by LS-PrePost
Abscissa
Ordinate
XY data
CHOP_NASX_mo-1 #pts=3000
* Minval=     0.0000000000e+00 at time=         0.0000000000
* Maxval=     4.9017005920e+01 at time=       172.7011871338
    0.0000000000e+00    0.0000000000e+00
    9.9978484213e-02    1.5629599802e-03
    1.9996924698e-01    3.1261199620e-03
    2.9999575019e-01    4.6898298897e-03
    3.9998039603e-01    6.2528895214e-03
    4.9986803532e-01    7.8144390136e-03
    5.9991192818e-01    9.3784201890e-03
    6.9995886087e-01    1.0942501947e-02
    7.9993838072e-01    1.2505404651e-02
    8.9995062351e-01    1.4068922959e-02
    9.9992913008e-01    1.5631934628e-02
    1.0998107195e+00    1.7193323001e-02
    1.1999957561e+00    1.8759526312e-02
    1.2999640703e+00    2.0322322845e-02
    1.3998620510e+00    2.1884065121e-02
    1.4998643398e+00    2.3447489366e-02
    1.5998389721e+00    2.5010451674e-02
    1.6999863386e+00    2.6576070115e-02
    1.7999671698e+00    2.8139038011e-02
    1.8999462128e+00    2.9702035710e-02
    1.9998190403e+00    3.1263362616e-02
    2.0998318195e+00    3.2827131450e-02
    2.1999120712e+00    3.4392062575e-02
    2.2999908924e+00    3.5957355052e-02
    2.3999950886e+00    3.7521183491e-02
    2.4998490810e+00    3.9082396775e-02
    2.5998566151e+00    4.0645498782e-02
    2.6998775005e+00    4.2208157480e-02
    2.7998862267e+00    4.3770186603e-02
    2.8999786377e+00    4.5333489776e-02
    2.9999771118e+00    4.6895373613e-02
    3.0998694897e+00    4.8456180841e-02
    3.1999659538e+00    5.0020933151e-02
    3.2999231815e+00    5.1584403962e-02
    3.3999369144e+00    5.3150158376e-02
    3.4999270439e+00    5.4716888815e-02
    3.5999314785e+00    5.6285250932e-02
    3.6998090744e+00    5.7852894068e-02
    3.7998888493e+00    5.9424981475e-02
    3.8999800682e+00    6.0997933149e-02
    3.9999651909e+00    6.2569908798e-02
    4.0998544693e+00    6.4140811563e-02
    4.1999692917e+00    6.5715357661e-02
    4.2999444008e+00    6.7287579179e-02
    4.3998169899e+00    6.8857692182e-02
    4.4998965263e+00    7.0430740714e-02
    4.5998468399e+00    7.2000883520e-02
    4.6999955177e+00    7.3573477566e-02
    4.7999196053e+00    7.5141385198e-02
    4.8998670578e+00    7.6708666980e-02
    4.9999299049e+00    7.8276351094e-02
    5.0999426842e+00    7.9842083156e-02
    5.1999893188e+00    8.1406980753e-02
    5.2999830246e+00    8.2969807088e-02
    5.3998517990e+00    8.4529384971e-02
    5.4999961853e+00    8.6091950536e-02
    5.5998907089e+00    8.7649621069e-02
    5.6999425888e+00    8.9208416641e-02
    5.7998881340e+00    9.0764470398e-02
    5.8998928070e+00    9.2320337892e-02
    5.9999957085e+00    9.3876987696e-02
    6.0998554230e+00    9.5428735018e-02
    6.1999573708e+00    9.6983671188e-02
    6.2999229431e+00    9.8535425961e-02
    6.3998460770e+00    1.0008610040e-01
    6.4999690056e+00    1.0163861513e-01
    6.5999045372e+00    1.0318767279e-01
    6.6998834610e+00    1.0473711789e-01
    6.7999844551e+00    1.0628823191e-01
    6.8999052048e+00    1.0783609748e-01
    6.9999651909e+00    1.0938555747e-01
    7.0999860764e+00    1.1093495786e-01
    7.1998958588e+00    1.1248186976e-01
    7.2998194695e+00    1.1402890831e-01
    7.3999600410e+00    1.1557957530e-01
    7.4999413490e+00    1.1712753773e-01
    7.5999202728e+00    1.1867528409e-01
    7.6998214722e+00    1.2022128701e-01
    7.7999825478e+00    1.2177219242e-01
    7.8999524117e+00    1.2332031131e-01
    7.9999160767e+00    1.2486866117e-01
    8.0999364853e+00    1.2641702592e-01
    8.1998634338e+00    1.2796470523e-01
    8.2999658585e+00    1.2951500714e-01
    8.3998365402e+00    1.3106244802e-01
    8.4998741150e+00    1.3261112571e-01
    8.5998420715e+00    1.3415762782e-01
    8.6999721527e+00    1.3570730388e-01
    8.7998924255e+00    1.3725271821e-01
    8.8998708725e+00    1.3879849017e-01
    8.9999132156e+00    1.4034491777e-01
    9.0998907089e+00    1.4189030230e-01
    9.1998729706e+00    1.4343580604e-01
    9.2999591827e+00    1.4498277009e-01
    9.3998889923e+00    1.4652784169e-01
    9.4999914169e+00    1.4807638526e-01
    9.5999307632e+00    1.4962275326e-01
    9.6998796463e+00    1.5116846561e-01
    9.7998456955e+00    1.5271474421e-01
    9.8998899460e+00    1.5426206589e-01
    9.9998445511e+00    1.5580770373e-01
    1.0099917412e+01    1.5984089673e-01
    1.0199895859e+01    1.6387332976e-01
    1.0299830437e+01    1.6790394485e-01
    1.0399949074e+01    1.7194056511e-01
    1.0499876022e+01    1.7596785724e-01
    1.0599975586e+01    1.8000206351e-01
    1.0699978828e+01    1.8402972817e-01
    1.0799916267e+01    1.8805426359e-01
    1.0899959564e+01    1.9208090007e-01
    1.0999827385e+01    1.9609923661e-01
    1.1099987030e+01    2.0012772083e-01
    1.1199858665e+01    2.0414301753e-01
    1.1299838066e+01    2.0816084743e-01
    1.1399964333e+01    2.1218442917e-01
    1.1499829292e+01    2.1619592607e-01
    1.1599967957e+01    2.2021618485e-01
    1.1699872971e+01    2.2422771156e-01
    1.1799877167e+01    2.2824120522e-01
    1.1899894714e+01    2.3225539923e-01
    1.1999987602e+01    2.3627211154e-01
    1.2099980354e+01    2.4028511345e-01
    1.2199988365e+01    2.4429893494e-01
    1.2299961090e+01    2.4831093848e-01
    1.2399939537e+01    2.5232329965e-01
    1.2499855042e+01    2.5633177161e-01
    1.2599958420e+01    2.6034578681e-01
    1.2699847221e+01    2.6435044408e-01
    1.2799872398e+01    2.6835906506e-01
    1.2899971962e+01    2.7237063646e-01
    1.2999979019e+01    2.7637696266e-01
    1.3099848747e+01    2.8037792444e-01
    1.3199970245e+01    2.8438916802e-01
    1.3299947739e+01    2.8839552402e-01
    1.3399851799e+01    2.9239869118e-01
    1.3500013351e+01    2.9641336203e-01
    1.3599904060e+01    3.0041804910e-01
    1.3699869156e+01    3.0442640185e-01
    1.3799922943e+01    3.0843812227e-01
    1.3899854660e+01    3.1244599819e-01
    1.3999905586e+01    3.1645733118e-01
    1.4099831581e+01    3.2046300173e-01
    1.4199877739e+01    3.2447296381e-01
    1.4299827576e+01    3.2847613096e-01
    1.4399900436e+01    3.3248147368e-01
    1.4499928474e+01    3.3648303151e-01
    1.4599974632e+01    3.4048113227e-01
    1.4699851036e+01    3.4446898103e-01
    1.4799844742e+01    3.4845790267e-01
    1.4899865150e+01    3.5244396329e-01
    1.4999941826e+01    3.5642901063e-01
    1.5099879265e+01    3.6040332913e-01
    1.5200014114e+01    3.6438298225e-01
    1.5299992561e+01    3.6835339665e-01
    1.5399872780e+01    3.7231612206e-01
    1.5499929428e+01    3.7628376484e-01
    1.5599972725e+01    3.8024809957e-01
    1.5699997902e+01    3.8420873880e-01
    1.5800017357e+01    3.8816726208e-01
    1.5900013924e+01    3.9212253690e-01
    1.5999876976e+01    3.9607134461e-01
    1.6099855423e+01    4.0002220869e-01
    1.6199890137e+01    4.0397426486e-01
    1.6299869537e+01    4.0792250633e-01
    1.6399835587e+01    4.1186708212e-01
    1.6499855042e+01    4.1581398249e-01
    1.6599964142e+01    4.1976115108e-01
    1.6699871063e+01    4.2370012403e-01
    1.6799943924e+01    4.2764344811e-01
    1.6899995804e+01    4.3158549070e-01
    1.7000028610e+01    4.3552416563e-01
    1.7099853516e+01    4.3945387006e-01
    1.7200014114e+01    4.4339570403e-01
    1.7299926758e+01    4.4732671976e-01
    1.7399890900e+01    4.5125848055e-01
    1.7499887466e+01    4.5519044995e-01
    1.7599851608e+01    4.5912072062e-01
    1.7699928284e+01    4.6305441856e-01
    1.7799875259e+01    4.6698299050e-01
    1.7899969101e+01    4.7091710567e-01
    1.8000001907e+01    4.7484922409e-01
    1.8099843979e+01    4.7877341509e-01
    1.8199890137e+01    4.8270511627e-01
    1.8299907684e+01    4.8663520813e-01
    1.8400011063e+01    4.9056839943e-01
    1.8499933243e+01    4.9449229240e-01
    1.8599889755e+01    4.9841555953e-01
    1.8699989319e+01    5.0234341621e-01
    1.8799970627e+01    5.0626325607e-01
    1.8899879456e+01    5.1017880440e-01
    1.8999954224e+01    5.1409792900e-01
    1.9099882126e+01    5.1801007986e-01
    1.9200035095e+01    5.2192801237e-01
    1.9299968719e+01    5.2583634853e-01
    1.9399879456e+01    5.2974051237e-01
    1.9500013351e+01    5.3365230560e-01
    1.9600021362e+01    5.3755688667e-01
    1.9700002670e+01    5.4145729542e-01
    1.9799850464e+01    5.4535043240e-01
    1.9900026321e+01    5.4925477505e-01
    1.9999965668e+01    5.5314695835e-01
    2.0100011826e+01    5.5973231792e-01
    2.0199968338e+01    5.6630879641e-01
    2.0299972534e+01    5.7288593054e-01
    2.0399957657e+01    5.7945859432e-01
    2.0499944687e+01    5.8602756262e-01
    2.0599990845e+01    5.9259682894e-01
    2.0699962616e+01    5.9915721416e-01
    2.0799880981e+01    6.0570997000e-01
    2.0899950027e+01    6.1226934195e-01
    2.0999872208e+01    6.1881428957e-01
    2.1099952698e+01    6.2536722422e-01
    2.1200006485e+01    6.3191390038e-01
    2.1299985886e+01    6.3845264912e-01
    2.1399873734e+01    6.4498394728e-01
    2.1500017166e+01    6.5152847767e-01
    2.1599948883e+01    6.5805721283e-01
    2.1699882507e+01    6.6458499432e-01
    2.1800001144e+01    6.7112141848e-01
    2.1900007248e+01    6.7765069008e-01
    2.2000038147e+01    6.8417859077e-01
    2.2100044250e+01    6.9070589542e-01
    2.2200023651e+01    6.9722908735e-01
    2.2299959183e+01    7.0374941826e-01
    2.2399948120e+01    7.1027070284e-01
    2.2499948502e+01    7.1678972244e-01
    2.2599941254e+01    7.2330695391e-01
    2.2699945450e+01    7.2982096672e-01
    2.2799953461e+01    7.3633199930e-01
    2.2899995804e+01    7.4284303188e-01
    2.2999944687e+01    7.4934452772e-01
    2.3099952698e+01    7.5584721565e-01
    2.3200033188e+01    7.6235342026e-01
    2.3299945831e+01    7.6884549856e-01
    2.3400026321e+01    7.7534621954e-01
    2.3499912262e+01    7.8183245659e-01
    2.3599893570e+01    7.8832399845e-01
    2.3699974060e+01    7.9481953382e-01
    2.3799993515e+01    8.0130940676e-01
    2.3900035858e+01    8.0779922009e-01
    2.3999940872e+01    8.1427681446e-01
    2.4100013733e+01    8.2076328993e-01
    2.4200021744e+01    8.2724171877e-01
    2.4299985886e+01    8.3371359110e-01
    2.4399887085e+01    8.4017819166e-01
    2.4500038147e+01    8.4665358067e-01
    2.4600051880e+01    8.5311400890e-01
    2.4699977875e+01    8.5956394672e-01
    2.4799957275e+01    8.6601066589e-01
    2.4899955750e+01    8.7245297432e-01
    2.4999996185e+01    8.7889182568e-01
    2.5099960327e+01    8.8531839848e-01
    2.5200010300e+01    8.9174467325e-01
    2.5299911499e+01    8.9815580845e-01
    2.5400011063e+01    9.0457528830e-01
    2.5500036240e+01    9.1098397970e-01
    2.5599990845e+01    9.1738474369e-01
    2.5700033188e+01    9.2378658056e-01
    2.5800006866e+01    9.3018019199e-01
    2.5899984360e+01    9.3657016754e-01
    2.5999898911e+01    9.4295340776e-01
    2.6100059509e+01    9.4934976101e-01
    2.6199945450e+01    9.5572513342e-01
    2.6299913406e+01    9.6210211515e-01
    2.6400053024e+01    9.6848815680e-01
    2.6500009537e+01    9.7485768795e-01
    2.6599924088e+01    9.8122698069e-01
    2.6700000763e+01    9.8758941889e-01
    2.6799907684e+01    9.9394941330e-01
    2.6899971008e+01    1.0003154278e+00
    2.6999950409e+01    1.0066683292e+00
    2.7099922180e+01    1.0130177736e+00
    2.7199901581e+01    1.0193736553e+00
    2.7299985886e+01    1.0257257223e+00
    2.7400024414e+01    1.0320647955e+00
    2.7499940872e+01    1.0384013653e+00
    2.7599908829e+01    1.0447349548e+00
    2.7699993134e+01    1.0510752201e+00
    2.7799991608e+01    1.0574132204e+00
    2.7899969101e+01    1.0637384653e+00
    2.7999910355e+01    1.0700613260e+00
    2.8100070953e+01    1.0763905048e+00
    2.8199888229e+01    1.0826982260e+00
    2.8300001144e+01    1.0890313387e+00
    2.8399957657e+01    1.0953410864e+00
    2.8500013351e+01    1.1016459465e+00
    2.8599887848e+01    1.1079465151e+00
    2.8700056076e+01    1.1142504215e+00
    2.8800052643e+01    1.1205493212e+00
    2.8899902344e+01    1.1268229485e+00
    2.9000049591e+01    1.1331191063e+00
    2.9100034714e+01    1.1393905878e+00
    2.9199886322e+01    1.1456465721e+00
    2.9299921036e+01    1.1519159079e+00
    2.9399984360e+01    1.1581790447e+00
    2.9499942780e+01    1.1644268036e+00
    2.9599922180e+01    1.1706686020e+00
    2.9700008392e+01    1.1769140959e+00
    2.9800031662e+01    1.1831443310e+00
    2.9900030136e+01    1.1893796921e+00
    2.9999967575e+01    1.1956006289e+00
    3.0099981308e+01    1.2078063488e+00
    3.0200014114e+01    1.2200074196e+00
    3.0299978256e+01    1.2321938276e+00
    3.0400070190e+01    1.2443947792e+00
    3.0499954224e+01    1.2565615177e+00
    3.0600019455e+01    1.2687520981e+00
    3.0699998856e+01    1.2809175253e+00
    3.0799953461e+01    1.2930877209e+00
    3.0899932861e+01    1.3052417040e+00
    3.1000024796e+01    1.3174090385e+00
    3.1099931717e+01    1.3295515776e+00
    3.1200069427e+01    1.3417069912e+00
    3.1299940109e+01    1.3538286686e+00
    3.1400039673e+01    1.3659837246e+00
    3.1500070572e+01    1.3781144619e+00
    3.1600055695e+01    1.3902305365e+00
    3.1699979782e+01    1.4023425579e+00
    3.1799968719e+01    1.4144595861e+00
    3.1900081635e+01    1.4265820980e+00
    3.2000061035e+01    1.4386919737e+00
    3.2100006104e+01    1.4507896900e+00
    3.2200061798e+01    1.4628939629e+00
    3.2300071716e+01    1.4749953747e+00
    3.2400058746e+01    1.4870926142e+00
    3.2499992371e+01    1.4991739988e+00
    3.2599975586e+01    1.5112481117e+00
    3.2700008392e+01    1.5233247280e+00
    3.2800052643e+01    1.5354045630e+00
    3.2899879456e+01    1.5474394560e+00
    3.2999992371e+01    1.5595170259e+00
    3.3099994659e+01    1.5715601444e+00
    3.3199977875e+01    1.5836091042e+00
    3.3300010681e+01    1.5956538916e+00
    3.3399940491e+01    1.6076862812e+00
    3.3499900818e+01    1.6197161674e+00
    3.3599880219e+01    1.6317536831e+00
    3.3700042725e+01    1.6438080072e+00
    3.3800014496e+01    1.6558306217e+00
    3.3899890900e+01    1.6678404808e+00
    3.3999885559e+01    1.6798653603e+00
    3.4099937439e+01    1.6918948889e+00
    3.4200042725e+01    1.7039179802e+00
    3.4299919128e+01    1.7159059048e+00
    3.4399944305e+01    1.7279045582e+00
    3.4499904633e+01    1.7398852110e+00
    3.4600013733e+01    1.7518748045e+00
    3.4699981689e+01    1.7638452053e+00
    3.4799942017e+01    1.7757945061e+00
    3.4900001526e+01    1.7877513170e+00
    3.4999969482e+01    1.7996767759e+00
    3.5099998474e+01    1.8115994930e+00
    3.5199962616e+01    1.8235110044e+00
    3.5299983978e+01    1.8354101181e+00
    3.5399917603e+01    1.8472890854e+00
    3.5499847412e+01    1.8591474295e+00
    3.5599887848e+01    1.8710244894e+00
    3.5699939728e+01    1.8828814030e+00
    3.5799953461e+01    1.8947292566e+00
    3.5899932861e+01    1.9065691233e+00
    3.5999992371e+01    1.9184008837e+00
    3.6099975586e+01    1.9302262068e+00
    3.6199939728e+01    1.9420341253e+00
    3.6299869537e+01    1.9538354874e+00
    3.6399940491e+01    1.9656478167e+00
    3.6499851227e+01    1.9774246216e+00
    3.6599891663e+01    1.9892228842e+00
    3.6700000763e+01    2.0010135174e+00
    3.6799980164e+01    2.0127778053e+00
    3.6899845123e+01    2.0245363712e+00
    3.6999824524e+01    2.0362863541e+00
    3.7099853516e+01    2.0480382442e+00
    3.7199901581e+01    2.0597913265e+00
    3.7299938202e+01    2.0715267658e+00
    3.7399818420e+01    2.0832355022e+00
    3.7499870300e+01    2.0949654579e+00
    3.7599861145e+01    2.1066684723e+00
    3.7699840546e+01    2.1183748245e+00
    3.7799888611e+01    2.1300733089e+00
    3.7899879456e+01    2.1417660713e+00
    3.7999980927e+01    2.1534609795e+00
    3.8099960327e+01    2.1651310921e+00
    3.8199806213e+01    2.1767849922e+00
    3.8299964905e+01    2.1884689331e+00
    3.8399871826e+01    2.2001178265e+00
    3.8499839783e+01    2.2117581367e+00
    3.8599876404e+01    2.2233970165e+00
    3.8699844360e+01    2.2350280285e+00
    3.8799907684e+01    2.2466468811e+00
    3.8899879456e+01    2.2582581043e+00
    3.8999782562e+01    2.2698388100e+00
    3.9099800110e+01    2.2814309597e+00
    3.9199962616e+01    2.2930328846e+00
    3.9299812317e+01    2.3045899868e+00
    3.9399856567e+01    2.3161568642e+00
    3.9499813080e+01    2.3277170658e+00
    3.9599784851e+01    2.3392570019e+00
    3.9699935913e+01    2.3508181572e+00
    3.9799903870e+01    2.3623418808e+00
    3.9899955750e+01    2.3738760948e+00
    3.9999843597e+01    2.3853750229e+00
    4.0099822998e+01    2.4046540260e+00
    4.0199943542e+01    2.4239621162e+00
    4.0299949646e+01    2.4432430267e+00
    4.0399887085e+01    2.4624950886e+00
    4.0499950409e+01    2.4817659855e+00
    4.0599899292e+01    2.5009968281e+00
    4.0699825287e+01    2.5202288628e+00
    4.0799785614e+01    2.5394380093e+00
    4.0899852753e+01    2.5586640835e+00
    4.0999790192e+01    2.5778601170e+00
    4.1099807739e+01    2.5970520973e+00
    4.1199913025e+01    2.6162400246e+00
    4.1299823761e+01    2.6353888512e+00
    4.1399814606e+01    2.6545348167e+00
    4.1499797821e+01    2.6736791134e+00
    4.1599777222e+01    2.6928019524e+00
    4.1699829102e+01    2.7119340897e+00
    4.1799785614e+01    2.7310268879e+00
    4.1899822235e+01    2.7501399517e+00
    4.1999851227e+01    2.7692358494e+00
    4.2099796295e+01    2.7883048058e+00
    4.2199840546e+01    2.8073971272e+00
    4.2299900055e+01    2.8264720440e+00
    4.2399879456e+01    2.8455390930e+00
    4.2499862671e+01    2.8645839691e+00
    4.2599845886e+01    2.8836178780e+00
    4.2699893951e+01    2.9026579857e+00
    4.2799880981e+01    2.9216659069e+00
    4.2899799347e+01    2.9406530857e+00
    4.2999855042e+01    2.9596571922e+00
    4.3099834442e+01    2.9786310196e+00
    4.3199901581e+01    2.9976129532e+00
    4.3299850464e+01    3.0165569782e+00
    4.3399879456e+01    3.0355210304e+00
    4.3499858856e+01    3.0544569492e+00
    4.3599857330e+01    3.0733850002e+00
    4.3699840546e+01    3.0923051834e+00
    4.3799884796e+01    3.1112360954e+00
    4.3899826050e+01    3.1301290989e+00
    4.3999813080e+01    3.1490299702e+00
    4.4099761963e+01    3.1679008007e+00
    4.4199886322e+01    3.1867959499e+00
    4.4299701691e+01    3.2056219578e+00
    4.4399765015e+01    3.2244780064e+00
    4.4499809265e+01    3.2433171272e+00
    4.4599834442e+01    3.2621290684e+00
    4.4699874878e+01    3.2809219360e+00
    4.4799819946e+01    3.2996869087e+00
    4.4899723053e+01    3.3184120655e+00
    4.4999832153e+01    3.3371632099e+00
    4.5099697113e+01    3.3558490276e+00
    4.5199726105e+01    3.3745410442e+00
    4.5299709320e+01    3.3932058811e+00
    4.5399730682e+01    3.4118618965e+00
    4.5499698639e+01    3.4304919243e+00
    4.5599845886e+01    3.4491419792e+00
    4.5699741364e+01    3.4677200317e+00
    4.5799777985e+01    3.4863200188e+00
    4.5899734497e+01    3.5048770905e+00
    4.5999744415e+01    3.5234398842e+00
    4.6099739075e+01    3.5419900417e+00
    4.6199718475e+01    3.5605158806e+00
    4.6299686432e+01    3.5790300369e+00
    4.6399845123e+01    3.5975649357e+00
    4.6499759674e+01    3.6160321236e+00
    4.6599739075e+01    3.6345140934e+00
    4.6699840546e+01    3.6529910564e+00
    4.6799747467e+01    3.6714279652e+00
    4.6899761200e+01    3.6898689270e+00
    4.6999816895e+01    3.7082958221e+00
    4.7099716187e+01    3.7266921997e+00
    4.7199798584e+01    3.7450990677e+00
    4.7299846649e+01    3.7634921074e+00
    4.7399768829e+01    3.7818431854e+00
    4.7499748230e+01    3.8001899719e+00
    4.7599758148e+01    3.8185322285e+00
    4.7699684143e+01    3.8368439674e+00
    4.7799720764e+01    3.8551611900e+00
    4.7899700165e+01    3.8734579086e+00
    4.7999774933e+01    3.8917710781e+00
    4.8099674225e+01    3.9100282192e+00
    4.8199775696e+01    3.9283180237e+00
    4.8299728394e+01    3.9465610981e+00
    4.8399703979e+01    3.9647998810e+00
    4.8499652863e+01    3.9830260277e+00
    4.8599742889e+01    4.0012536049e+00
    4.8699649811e+01    4.0194401741e+00
    4.8799812317e+01    4.0376529694e+00
    4.8899719238e+01    4.0558052063e+00
    4.8999767303e+01    4.0739583969e+00
    4.9099670410e+01    4.0920767784e+00
    4.9199680328e+01    4.1101980209e+00
    4.9299663544e+01    4.1282916069e+00
    4.9399784088e+01    4.1463971138e+00
    4.9499763489e+01    4.1644568443e+00
    4.9599636078e+01    4.1824817657e+00
    4.9699626923e+01    4.2005162239e+00
    4.9799770355e+01    4.2185487747e+00
    4.9899654388e+01    4.2365212440e+00
    4.9999687195e+01    4.2545118332e+00
    5.0099800110e+01    4.2820730209e+00
    5.0199783325e+01    4.3096098900e+00
    5.0299636841e+01    4.3370919228e+00
    5.0399639130e+01    4.3645906448e+00
    5.0499668121e+01    4.3920903206e+00
    5.0599700928e+01    4.4195690155e+00
    5.0699737549e+01    4.4470181465e+00
    5.0799652100e+01    4.4744186401e+00
    5.0899642944e+01    4.5018281937e+00
    5.0999744415e+01    4.5292310715e+00
    5.1099723816e+01    4.5565857887e+00
    5.1199726105e+01    4.5839290619e+00
    5.1299755096e+01    4.6112608910e+00
    5.1399738312e+01    4.6385450363e+00
    5.1499713898e+01    4.6658191681e+00
    5.1599689484e+01    4.6930747032e+00
    5.1699775696e+01    4.7203388214e+00
    5.1799686432e+01    4.7475414276e+00
    5.1899726868e+01    4.7747621536e+00
    5.1999675751e+01    4.8019409180e+00
    5.2099670410e+01    4.8291230202e+00
    5.2199581146e+01    4.8562650681e+00
    5.2299602509e+01    4.8834171295e+00
    5.2399597168e+01    4.9105439186e+00
    5.2499652863e+01    4.9376797676e+00
    5.2599655151e+01    4.9647669792e+00
    5.2699722290e+01    4.9918603897e+00
    5.2799743652e+01    5.0189132690e+00
    5.2899757385e+01    5.0459461212e+00
    5.2999633789e+01    5.0729236603e+00
    5.3099700928e+01    5.0999360085e+00
    5.3199680328e+01    5.1269021034e+00
    5.3299678802e+01    5.1538481712e+00
    5.3399677277e+01    5.1807870865e+00
    5.3499660492e+01    5.2077002525e+00
    5.3599674225e+01    5.2346062660e+00
    5.3699611664e+01    5.2614679337e+00
    5.3799594879e+01    5.2883338928e+00
    5.3899608612e+01    5.3151998520e+00
    5.3999633789e+01    5.3420391083e+00
    5.4099571228e+01    5.3688421249e+00
    5.4199718475e+01    5.3956770897e+00
    5.4299598694e+01    5.4224195480e+00
    5.4399581909e+01    5.4491653442e+00
    5.4499683380e+01    5.4759120941e+00
    5.4599693298e+01    5.5026159286e+00
    5.4699703217e+01    5.5292906761e+00
    5.4799686432e+01    5.5559291840e+00
    5.4899551392e+01    5.5825099945e+00
    5.4999729156e+01    5.6091389656e+00
    5.5099594116e+01    5.6356487274e+00
    5.5199577332e+01    5.6621623039e+00
    5.5299697876e+01    5.6886911392e+00
    5.5399623871e+01    5.7151288986e+00
    5.5499610901e+01    5.7415556908e+00
    5.5599674225e+01    5.7679829597e+00
    5.5699680328e+01    5.7943553925e+00
    5.5799659729e+01    5.8207020760e+00
    5.5899597168e+01    5.8470168114e+00
    5.5999679565e+01    5.8733439445e+00
    5.6099685669e+01    5.8996305466e+00
    5.6199665070e+01    5.9258861542e+00
    5.6299633026e+01    5.9521198273e+00
    5.6399654388e+01    5.9783377647e+00
    5.6499568939e+01    6.0045070648e+00
    5.6599548340e+01    6.0306711197e+00
    5.6699527740e+01    6.0568118095e+00
    5.6799667358e+01    6.0829739571e+00
    5.6899524689e+01    6.1090345383e+00
    5.6999530792e+01    6.1351161003e+00
    5.7099624634e+01    6.1611909866e+00
    5.7199695587e+01    6.1872420311e+00
    5.7299674988e+01    6.2132420540e+00
    5.7399620056e+01    6.2392110825e+00
    5.7499599457e+01    6.2651653290e+00
    5.7599651337e+01    6.2911138535e+00
    5.7699665070e+01    6.3170318604e+00
    5.7799533844e+01    6.3428950310e+00
    5.7899673462e+01    6.3687939644e+00
    5.7999649048e+01    6.3946380615e+00
    5.8099586487e+01    6.4204521179e+00
    5.8199554443e+01    6.4462528229e+00
    5.8299617767e+01    6.4720463753e+00
    5.8399524689e+01    6.4977822304e+00
    5.8499504089e+01    6.5235090256e+00
    5.8599559784e+01    6.5492248535e+00
    5.8699535370e+01    6.5748953819e+00
    5.8799613953e+01    6.6005620956e+00
    5.8899623871e+01    6.6261830330e+00
    5.8999477386e+01    6.6517319679e+00
    5.9099517822e+01    6.6773042679e+00
    5.9199573517e+01    6.7028450966e+00
    5.9299556732e+01    6.7283411026e+00
    5.9399486542e+01    6.7537989616e+00
    5.9499645233e+01    6.7792758942e+00
    5.9599590302e+01    6.8046722412e+00
    5.9699569702e+01    6.8300461769e+00
    5.9799636841e+01    6.8554172516e+00
    5.9899551392e+01    6.8807158470e+00
    5.9999645233e+01    6.9060277939e+00
    6.0099468231e+01    6.9424161911e+00
    6.0199592590e+01    6.9789299965e+00
    6.0299575806e+01    7.0153617859e+00
    6.0399642944e+01    7.0517911911e+00
    6.0499549866e+01    7.0881290436e+00
    6.0599517822e+01    7.1244640350e+00
    6.0699520111e+01    7.1607871056e+00
    6.0799533844e+01    7.1970782280e+00
    6.0899536133e+01    7.2333269119e+00
    6.0999496460e+01    7.2695341110e+00
    6.1099483490e+01    7.3057174683e+00
    6.1199604034e+01    7.3419098854e+00
    6.1299476624e+01    7.3779840469e+00
    6.1399471283e+01    7.4140696526e+00
    6.1499443054e+01    7.4501256943e+00
    6.1599449158e+01    7.4861488342e+00
    6.1699600220e+01    7.5222039223e+00
    6.1799488068e+01    7.5581350327e+00
    6.1899497986e+01    7.5940814018e+00
    6.1999511719e+01    7.6299910545e+00
    6.2099464417e+01    7.6658706665e+00
    6.2199523926e+01    7.7017588615e+00
    6.2299541473e+01    7.7376060486e+00
    6.2399467468e+01    7.7733898163e+00
    6.2499496460e+01    7.8091893196e+00
    6.2599449158e+01    7.8449192047e+00
    6.2699546814e+01    7.8806786537e+00
    6.2799457550e+01    7.9163265228e+00
    6.2899532318e+01    7.9520144463e+00
    6.2999561310e+01    7.9876418114e+00
    6.3099445343e+01    8.0231981277e+00
    6.3199539185e+01    8.0587902069e+00
    6.3299545288e+01    8.0943279266e+00
    6.3399459839e+01    8.1298007965e+00
    6.3499477386e+01    8.1652793884e+00
    6.3599533081e+01    8.2007484436e+00
    6.3699436188e+01    8.2361259460e+00
    6.3799537659e+01    8.2715539932e+00
    6.3899562836e+01    8.3069152832e+00
    6.3999431610e+01    8.3421964645e+00
    6.4099449158e+01    8.3774948120e+00
    6.4199501038e+01    8.4127740860e+00
    6.4299415588e+01    8.4479665756e+00
    6.4399398804e+01    8.4831361771e+00
    6.4499427795e+01    8.5182924271e+00
    6.4599411011e+01    8.5533905029e+00
    6.4699394226e+01    8.5884342194e+00
    6.4799568176e+01    8.6235113144e+00
    6.4899505615e+01    8.6584596634e+00
    6.4999435425e+01    8.6933488846e+00
    6.5099441528e+01    8.7282276154e+00
    6.5199424744e+01    8.7630386353e+00
    6.5299415588e+01    8.7978162766e+00
    6.5399536133e+01    8.8326005936e+00
    6.5499519348e+01    8.8672904968e+00
    6.5599540710e+01    8.9019441605e+00
    6.5699539185e+01    8.9365491867e+00
    6.5799514771e+01    8.9711046219e+00
    6.5899398804e+01    9.0056400299e+00
    6.5999389648e+01    9.0400905609e+00
    6.6099456787e+01    9.0746002197e+00
    6.6199440002e+01    9.1089801788e+00
    6.6299430847e+01    9.1433200836e+00
    6.6399482727e+01    9.1777200699e+00
    6.6499389648e+01    9.2119998932e+00
    6.6599426270e+01    9.2463302612e+00
    6.6699409485e+01    9.2805299759e+00
    6.6799476624e+01    9.3147897720e+00
    6.6899406433e+01    9.3489208221e+00
    6.6999465942e+01    9.3831005096e+00
    6.7099441528e+01    9.4171504974e+00
    6.7199424744e+01    9.4511699677e+00
    6.7299438477e+01    9.4852294922e+00
    6.7399421692e+01    9.5191593170e+00
    6.7499458313e+01    9.5531501770e+00
    6.7599433899e+01    9.5870103836e+00
    6.7699424744e+01    9.6209306717e+00
    6.7799461365e+01    9.6547002792e+00
    6.7899467468e+01    9.6885404587e+00
    6.7999359131e+01    9.7222595215e+00
    6.8099525452e+01    9.7560100555e+00
    6.8199394226e+01    9.7896499634e+00
    6.8299407959e+01    9.8232498169e+00
    6.8399345398e+01    9.8568105698e+00
    6.8499488831e+01    9.8904104233e+00
    6.8599494934e+01    9.9239807129e+00
    6.8699501038e+01    9.9574098587e+00
    6.8799339294e+01    9.9908103943e+00
    6.8899345398e+01    1.0024259567e+01
    6.8999336243e+01    1.0057559967e+01
    6.9099502563e+01    1.0090899467e+01
    6.9199333191e+01    1.0124130249e+01
    6.9299377441e+01    1.0157299995e+01
    6.9399383545e+01    1.0190520287e+01
    6.9499328613e+01    1.0223609924e+01
    6.9599357605e+01    1.0256750107e+01
    6.9699394226e+01    1.0289739609e+01
    6.9799430847e+01    1.0322779655e+01
    6.9899436951e+01    1.0355690002e+01
    6.9999435425e+01    1.0388650894e+01
    7.0099365234e+01    1.0432470322e+01
    7.0199470520e+01    1.0476439476e+01
    7.0299362183e+01    1.0520280838e+01
    7.0399459839e+01    1.0564160347e+01
    7.0499443054e+01    1.0607899666e+01
    7.0599479675e+01    1.0651700974e+01
    7.0699340820e+01    1.0695369720e+01
    7.0799301147e+01    1.0738979340e+01
    7.0899307251e+01    1.0782630920e+01
    7.0999343872e+01    1.0826129913e+01
    7.1099319458e+01    1.0869669914e+01
    7.1199356079e+01    1.0913050652e+01
    7.1299438477e+01    1.0956459999e+01
    7.1399398804e+01    1.0999710083e+01
    7.1499435425e+01    1.1042989731e+01
    7.1599418640e+01    1.1086100578e+01
    7.1699371338e+01    1.1129249573e+01
    7.1799430847e+01    1.1172209740e+01
    7.1899429321e+01    1.1215209961e+01
    7.1999305725e+01    1.1258039474e+01
    7.2099349976e+01    1.1300789833e+01
    7.2199432373e+01    1.1343570709e+01
    7.2299369812e+01    1.1386190414e+01
    7.2399299622e+01    1.1428839684e+01
    7.2499305725e+01    1.1471310616e+01
    7.2599281311e+01    1.1513710022e+01
    7.2699394226e+01    1.1556129456e+01
    7.2799407959e+01    1.1598490715e+01
    7.2899291992e+01    1.1640689850e+01
    7.2999389648e+01    1.1682899475e+01
    7.3099441528e+01    1.1724960327e+01
    7.3199356079e+01    1.1766980171e+01
    7.3299392700e+01    1.1809020042e+01
    7.3399269104e+01    1.1850920677e+01
    7.3499435425e+01    1.1892829895e+01
    7.3599441528e+01    1.1934709549e+01
    7.3699378967e+01    1.1976439476e+01
    7.3799293518e+01    1.2018119812e+01
    7.3899307251e+01    1.2059740067e+01
    7.3999328613e+01    1.2101409912e+01
    7.4099342346e+01    1.2143020630e+01
    7.4199409485e+01    1.2184479713e+01
    7.4299369812e+01    1.2225990295e+01
    7.4399391174e+01    1.2267340660e+01
    7.4499313354e+01    1.2308639526e+01
    7.4599296570e+01    1.2349979401e+01
    7.4699302673e+01    1.2391160011e+01
    7.4799324036e+01    1.2432370186e+01
    7.4899269104e+01    1.2473440170e+01
    7.4999366760e+01    1.2514530182e+01
    7.5099250793e+01    1.2555490494e+01
    7.5199249268e+01    1.2596369743e+01
    7.5299247742e+01    1.2637300491e+01
    7.5399375916e+01    1.2678150177e+01
    7.5499412537e+01    1.2718859673e+01
    7.5599327087e+01    1.2759520531e+01
    7.5699386597e+01    1.2800209999e+01
    7.5799270630e+01    1.2840760231e+01
    7.5899330139e+01    1.2881320000e+01
    7.5999244690e+01    1.2921740532e+01
    7.6099296570e+01    1.2962180138e+01
    7.6199241638e+01    1.3002470016e+01
    7.6299224854e+01    1.3042670250e+01
    7.6399353027e+01    1.3082889557e+01
    7.6499282837e+01    1.3122949600e+01
    7.6599342346e+01    1.3163020134e+01
    7.6699302673e+01    1.3202919960e+01
    7.6799224854e+01    1.3242750168e+01
    7.6899307251e+01    1.3282560349e+01
    7.6999366760e+01    1.3322299957e+01
    7.7099311829e+01    1.3361869812e+01
    7.7199348450e+01    1.3401429176e+01
    7.7299331665e+01    1.3440810204e+01
    7.7399291992e+01    1.3480209351e+01
    7.7499359131e+01    1.3519409180e+01
    7.7599288940e+01    1.3558540344e+01
    7.7699218750e+01    1.3597700119e+01
    7.7799285889e+01    1.3636659622e+01
    7.7899261475e+01    1.3675660133e+01
    7.7999366760e+01    1.3714559555e+01
    7.8099243164e+01    1.3753330231e+01
    7.8199363708e+01    1.3792089462e+01
    7.8299346924e+01    1.3830709457e+01
    7.8399200439e+01    1.3869280815e+01
    7.8499359131e+01    1.3907830238e+01
    7.8599205017e+01    1.3946269035e+01
    7.8699363708e+01    1.3984690666e+01
    7.8799301147e+01    1.4022969246e+01
    7.8899299622e+01    1.4061279297e+01
    7.8999328613e+01    1.4099419594e+01
    7.9099266052e+01    1.4137510300e+01
    7.9199234009e+01    1.4175630569e+01
    7.9299339294e+01    1.4213669777e+01
    7.9399223328e+01    1.4251469612e+01
    7.9499191284e+01    1.4289399147e+01
    7.9599349976e+01    1.4327220917e+01
    7.9699188232e+01    1.4364929199e+01
    7.9799224854e+01    1.4402540207e+01
    7.9899200439e+01    1.4440179825e+01
    7.9999305725e+01    1.4477739334e+01
    8.0099266052e+01    1.4526840210e+01
    8.0199310303e+01    1.4575949669e+01
    8.0299263000e+01    1.4624899864e+01
    8.0399162292e+01    1.4673869133e+01
    8.0499244690e+01    1.4722730637e+01
    8.0599296570e+01    1.4771598816e+01
    8.0699195862e+01    1.4820199013e+01
    8.0799224854e+01    1.4868770599e+01
    8.0899185181e+01    1.4917260170e+01
    8.0999259949e+01    1.4965609550e+01
    8.1099235535e+01    1.5013871193e+01
    8.1199157715e+01    1.5062020302e+01
    8.1299224854e+01    1.5110030174e+01
    8.1399246216e+01    1.5157938957e+01
    8.1499221802e+01    1.5205730438e+01
    8.1599166870e+01    1.5253410339e+01
    8.1699279785e+01    1.5300949097e+01
    8.1799163818e+01    1.5348320007e+01
    8.1899223328e+01    1.5395740509e+01
    8.1999259949e+01    1.5442959785e+01
    8.2099197388e+01    1.5490098953e+01
    8.2199256897e+01    1.5537110329e+01
    8.2299240112e+01    1.5584039688e+01
    8.2399246216e+01    1.5630868912e+01
    8.2499198914e+01    1.5677600861e+01
    8.2599235535e+01    1.5724220276e+01
    8.2699165344e+01    1.5770660400e+01
    8.2799255371e+01    1.5817169189e+01
    8.2899215698e+01    1.5863510132e+01
    8.2999198914e+01    1.5909660339e+01
    8.3099220276e+01    1.5955899239e+01
    8.3199279785e+01    1.6001951218e+01
    8.3299163818e+01    1.6047840118e+01
    8.3399192810e+01    1.6093719482e+01
    8.3499137878e+01    1.6139530182e+01
    8.3599113464e+01    1.6185239792e+01
    8.3699249268e+01    1.6230949402e+01
    8.3799255371e+01    1.6276489258e+01
    8.3899269104e+01    1.6321950912e+01
    8.3999206543e+01    1.6367238998e+01
    8.4099273682e+01    1.6412620544e+01
    8.4199256897e+01    1.6457818985e+01
    8.4299110413e+01    1.6502859116e+01
    8.4399276733e+01    1.6547939301e+01
    8.4499137878e+01    1.6592781067e+01
    8.4599113464e+01    1.6637609482e+01
    8.4699180603e+01    1.6682319641e+01
    8.4799156189e+01    1.6726940155e+01
    8.4899208069e+01    1.6771429062e+01
    8.4999107361e+01    1.6815750122e+01
    8.5099266052e+01    1.6860111237e+01
    8.5199211121e+01    1.6904289246e+01
    8.5299087524e+01    1.6948280334e+01
    8.5399116516e+01    1.6992219925e+01
    8.5499237061e+01    1.7036130905e+01
    8.5599105835e+01    1.7079780579e+01
    8.5699203491e+01    1.7123470306e+01
    8.5799194336e+01    1.7166971207e+01
    8.5899139404e+01    1.7210269928e+01
    8.5999099731e+01    1.7253549576e+01
    8.6099128723e+01    1.7296709061e+01
    8.6199150085e+01    1.7339759827e+01
    8.6299156189e+01    1.7382690430e+01
    8.6399208069e+01    1.7425609589e+01
    8.6499160767e+01    1.7468229294e+01
    8.6599166870e+01    1.7510820389e+01
    8.6699180603e+01    1.7553291321e+01
    8.6799217224e+01    1.7595741272e+01
    8.6899116516e+01    1.7637889862e+01
    8.6999114990e+01    1.7680009842e+01
    8.7099197388e+01    1.7721969604e+01
    8.7199165344e+01    1.7763839722e+01
    8.7299209595e+01    1.7805650711e+01
    8.7399124146e+01    1.7847160339e+01
    8.7499092102e+01    1.7888629913e+01
    8.7599082947e+01    1.7929958344e+01
    8.7699066162e+01    1.7971160889e+01
    8.7799102783e+01    1.8012210846e+01
    8.7899101257e+01    1.8053138733e+01
    8.7999114990e+01    1.8093931198e+01
    8.8099113464e+01    1.8134599686e+01
    8.8199203491e+01    1.8175109863e+01
    8.8299095154e+01    1.8215538025e+01
    8.8399177551e+01    1.8255790710e+01
    8.8499130249e+01    1.8295949936e+01
    8.8599197388e+01    1.8335948944e+01
    8.8699203491e+01    1.8375850677e+01
    8.8799049377e+01    1.8415550232e+01
    8.8899154663e+01    1.8455280304e+01
    8.8999183655e+01    1.8494800568e+01
    8.9099212646e+01    1.8534210205e+01
    8.9199081421e+01    1.8573440552e+01
    8.9299179077e+01    1.8612709045e+01
    8.9399101257e+01    1.8651699066e+01
    8.9499023438e+01    1.8690681458e+01
    8.9599060059e+01    1.8729530334e+01
    8.9699043274e+01    1.8768280029e+01
    8.9799072266e+01    1.8806900024e+01
    8.9899055481e+01    1.8845430374e+01
    8.9999153137e+01    1.8883918762e+01
    9.0099021912e+01    1.8936569214e+01
    9.0199020386e+01    1.8989259720e+01
    9.0299026489e+01    1.9041851044e+01
    9.0399116516e+01    1.9094390869e+01
    9.0499023438e+01    1.9146759033e+01
    9.0599105835e+01    1.9199058533e+01
    9.0699089050e+01    1.9251171112e+01
    9.0799079895e+01    1.9303241730e+01
    9.0899147034e+01    1.9355049133e+01
    9.0999160767e+01    1.9406841278e+01
    9.1099075317e+01    1.9458408356e+01
    9.1199058533e+01    1.9509811401e+01
    9.1299125671e+01    1.9561130524e+01
    9.1399093628e+01    1.9612228394e+01
    9.1499092102e+01    1.9663169861e+01
    9.1599006653e+01    1.9713970184e+01
    9.1699150085e+01    1.9764650345e+01
    9.1799133301e+01    1.9815120697e+01
    9.1899093628e+01    1.9865428925e+01
    9.1999107361e+01    1.9915679932e+01
    9.2099121094e+01    1.9965679169e+01
    9.2199081421e+01    2.0015541077e+01
    9.2299148560e+01    2.0065340042e+01
    9.2399002075e+01    2.0114950180e+01
    9.2499122620e+01    2.0164440155e+01
    9.2599121094e+01    2.0213729858e+01
    9.2699142456e+01    2.0262979507e+01
    9.2799140930e+01    2.0312000275e+01
    9.2899093628e+01    2.0360908508e+01
    9.2998985291e+01    2.0409608841e+01
    9.3099082947e+01    2.0458440781e+01
    9.3199134827e+01    2.0506969452e+01
    9.3299087524e+01    2.0555419922e+01
    9.3399017334e+01    2.0603769302e+01
    9.3499114990e+01    2.0652059555e+01
    9.3599136353e+01    2.0700279236e+01
    9.3699119568e+01    2.0748310089e+01
    9.3799041748e+01    2.0796249390e+01
    9.3899063110e+01    2.0844058990e+01
    9.3999084473e+01    2.0891859055e+01
    9.4099052429e+01    2.0939460754e+01
    9.4198944092e+01    2.0986869812e+01
    9.4299011230e+01    2.1034311295e+01
    9.4398994446e+01    2.1081539154e+01
    9.4498977661e+01    2.1128740311e+01
    9.4598960876e+01    2.1175689697e+01
    9.4699050903e+01    2.1222568512e+01
    9.4799110413e+01    2.1269289017e+01
    9.4899032593e+01    2.1315689087e+01
    9.4999015808e+01    2.1362110138e+01
    9.5099006653e+01    2.1408241272e+01
    9.5199028015e+01    2.1454170227e+01
    9.5298927307e+01    2.1499950409e+01
    9.5399055481e+01    2.1545558929e+01
    9.5499084473e+01    2.1591009140e+01
    9.5599082947e+01    2.1636159897e+01
    9.5699073792e+01    2.1681209564e+01
    9.5798957825e+01    2.1725891113e+01
    9.5898994446e+01    2.1770521164e+01
    9.5999000549e+01    2.1814859390e+01
    9.6099082947e+01    2.1859069824e+01
    9.6199012756e+01    2.1903038025e+01
    9.6298965454e+01    2.1946819305e+01
    9.6398948669e+01    2.1990388870e+01
    9.6498992920e+01    2.2033870697e+01
    9.6598968506e+01    2.2077091217e+01
    9.6699020386e+01    2.2120210648e+01
    9.6799026489e+01    2.2163080215e+01
    9.6898994446e+01    2.2205801010e+01
    9.6999061584e+01    2.2248418808e+01
    9.7099052429e+01    2.2290809631e+01
    9.7198928833e+01    2.2333080292e+01
    9.7298965454e+01    2.2375129700e+01
    9.7398963928e+01    2.2417140961e+01
    9.7498947144e+01    2.2458909988e+01
    9.7598976135e+01    2.2500499725e+01
    9.7698905945e+01    2.2541990280e+01
    9.7798965454e+01    2.2583379745e+01
    9.7899070740e+01    2.2624599457e+01
    9.7998908997e+01    2.2665580750e+01
    9.8098930359e+01    2.2706539154e+01
    9.8199012756e+01    2.2747329712e+01
    9.8298995972e+01    2.2787910461e+01
    9.8398925781e+01    2.2828361511e+01
    9.8498985291e+01    2.2868701935e+01
    9.8598922729e+01    2.2908830643e+01
    9.8699035645e+01    2.2948841095e+01
    9.8798973083e+01    2.2988649368e+01
    9.8898933411e+01    2.3028301239e+01
    9.8998962402e+01    2.3067770004e+01
    9.9098937988e+01    2.3107089996e+01
    9.9198997498e+01    2.3146331787e+01
    9.9299034119e+01    2.3185420990e+01
    9.9399032593e+01    2.3224269867e+01
    9.9499015808e+01    2.3262960434e+01
    9.9599029541e+01    2.3301578522e+01
    9.9698997498e+01    2.3339960098e+01
    9.9798942566e+01    2.3378200531e+01
    9.9899032593e+01    2.3416318893e+01
    9.9999008179e+01    2.3454219818e+01
    1.0009903717e+02    2.3509449005e+01
    1.0019895172e+02    2.3564571381e+01
    1.0029894257e+02    2.3619600296e+01
    1.0039900208e+02    2.3674530029e+01
    1.0049886322e+02    2.3729190826e+01
    1.0059900665e+02    2.3783859253e+01
    1.0069886017e+02    2.3838180542e+01
    1.0079897308e+02    2.3892431259e+01
    1.0089894104e+02    2.3946470261e+01
    1.0099891663e+02    2.4000320435e+01
    1.0109889221e+02    2.4054000854e+01
    1.0119889832e+02    2.4107467651e+01
    1.0129898071e+02    2.4160829544e+01
    1.0139894104e+02    2.4213951111e+01
    1.0149887848e+02    2.4266889572e+01
    1.0159890747e+02    2.4319602966e+01
    1.0169898224e+02    2.4372200012e+01
    1.0179892731e+02    2.4424571991e+01
    1.0189894104e+02    2.4476709366e+01
    1.0199884033e+02    2.4528720856e+01
    1.0209886169e+02    2.4580490112e+01
    1.0219891357e+02    2.4632171631e+01
    1.0229898071e+02    2.4683658600e+01
    1.0239884186e+02    2.4734870911e+01
    1.0249897003e+02    2.4785987854e+01
    1.0259893799e+02    2.4836900711e+01
    1.0269899750e+02    2.4887702942e+01
    1.0279885101e+02    2.4938220978e+01
    1.0289894104e+02    2.4988668442e+01
    1.0299894714e+02    2.5038900375e+01
    1.0309893036e+02    2.5088977814e+01
    1.0319882965e+02    2.5138961792e+01
    1.0329882812e+02    2.5188728333e+01
    1.0339881897e+02    2.5238361359e+01
    1.0349891663e+02    2.5287887573e+01
    1.0359898376e+02    2.5337289810e+01
    1.0369891357e+02    2.5386501312e+01
    1.0379884338e+02    2.5435451508e+01
    1.0389885712e+02    2.5484411240e+01
    1.0399894714e+02    2.5533168793e+01
    1.0409884644e+02    2.5581651688e+01
    1.0419889069e+02    2.5630069733e+01
    1.0429879761e+02    2.5678169250e+01
    1.0439897156e+02    2.5726249695e+01
    1.0449893951e+02    2.5774021149e+01
    1.0459893799e+02    2.5821559906e+01
    1.0469886017e+02    2.5868911743e+01
    1.0479885101e+02    2.5915988922e+01
    1.0489884186e+02    2.5962800980e+01
    1.0499878693e+02    2.6009399414e+01
    1.0509879303e+02    2.6055801392e+01
    1.0519892883e+02    2.6102001190e+01
    1.0529894257e+02    2.6147701263e+01
    1.0539884186e+02    2.6193199158e+01
    1.0549881744e+02    2.6238502502e+01
    1.0559880829e+02    2.6283599854e+01
    1.0569893646e+02    2.6328399658e+01
    1.0579895020e+02    2.6372802734e+01
    1.0589884186e+02    2.6417098999e+01
    1.0599884796e+02    2.6461097717e+01
    1.0609880066e+02    2.6504798889e+01
    1.0619879913e+02    2.6548297882e+01
    1.0629882812e+02    2.6591699600e+01
    1.0639878082e+02    2.6634698868e+01
    1.0649884796e+02    2.6677600861e+01
    1.0659889984e+02    2.6720401764e+01
    1.0669886780e+02    2.6762899399e+01
    1.0679889679e+02    2.6805301666e+01
    1.0689891815e+02    2.6847398758e+01
    1.0699884796e+02    2.6889400482e+01
    1.0709886932e+02    2.6931098938e+01
    1.0719875336e+02    2.6972698212e+01
    1.0729876709e+02    2.7014198303e+01
    1.0739884186e+02    2.7055500031e+01
    1.0749878693e+02    2.7096500397e+01
    1.0759889221e+02    2.7137599945e+01
    1.0769882965e+02    2.7178298950e+01
    1.0779891205e+02    2.7218999863e+01
    1.0789884949e+02    2.7259399414e+01
    1.0799877930e+02    2.7299701691e+01
    1.0809879303e+02    2.7339797974e+01
    1.0819880676e+02    2.7379699707e+01
    1.0829889679e+02    2.7419498444e+01
    1.0839887238e+02    2.7459098816e+01
    1.0849878693e+02    2.7498497009e+01
    1.0859886932e+02    2.7537799835e+01
    1.0869883728e+02    2.7576801300e+01
    1.0879889679e+02    2.7615598679e+01
    1.0889874268e+02    2.7654098511e+01
    1.0899877167e+02    2.7692600250e+01
    1.0909879303e+02    2.7730798721e+01
    1.0919882965e+02    2.7768899918e+01
    1.0929878998e+02    2.7806701660e+01
    1.0939875793e+02    2.7844299316e+01
    1.0949874115e+02    2.7881702423e+01
    1.0959873199e+02    2.7918800354e+01
    1.0969889069e+02    2.7955900192e+01
    1.0979873657e+02    2.7992599487e+01
    1.0989888763e+02    2.8029201508e+01
    1.0999871826e+02    2.8065498352e+01
    1.1009873199e+02    2.8122800827e+01
    1.1019883728e+02    2.8180202484e+01
    1.1029878998e+02    2.8237201691e+01
    1.1039871979e+02    2.8294101715e+01
    1.1049874878e+02    2.8350799561e+01
    1.1059884644e+02    2.8407299042e+01
    1.1069885254e+02    2.8463499069e+01
    1.1079882050e+02    2.8519599915e+01
    1.1089878845e+02    2.8575401306e+01
    1.1099883270e+02    2.8630897522e+01
    1.1109870148e+02    2.8686199188e+01
    1.1119875336e+02    2.8741199493e+01
    1.1129885101e+02    2.8796098709e+01
    1.1139872742e+02    2.8850700378e+01
    1.1149884033e+02    2.8905199051e+01
    1.1159883881e+02    2.8959400177e+01
    1.1169879150e+02    2.9013200760e+01
    1.1179872131e+02    2.9066900253e+01
    1.1189881897e+02    2.9120502472e+01
    1.1199870300e+02    2.9173601151e+01
    1.1209882355e+02    2.9226699829e+01
    1.1219876099e+02    2.9279502869e+01
    1.1229871368e+02    2.9332099915e+01
    1.1239869690e+02    2.9384399414e+01
    1.1249884033e+02    2.9436700821e+01
    1.1259883118e+02    2.9488599777e+01
    1.1269883728e+02    2.9540397644e+01
    1.1279882812e+02    2.9591899872e+01
    1.1289872742e+02    2.9643199921e+01
    1.1299884033e+02    2.9694499969e+01
    1.1309867859e+02    2.9745300293e+01
    1.1319872284e+02    2.9795999527e+01
    1.1329876709e+02    2.9846601486e+01
    1.1339878082e+02    2.9896900177e+01
    1.1349877167e+02    2.9946998596e+01
    1.1359867859e+02    2.9996898651e+01
    1.1369866943e+02    3.0046699524e+01
    1.1379873657e+02    3.0096199036e+01
    1.1389875031e+02    3.0145500183e+01
    1.1399875641e+02    3.0194599152e+01
    1.1409871674e+02    3.0243499756e+01
    1.1419875336e+02    3.0292201996e+01
    1.1429872894e+02    3.0340599060e+01
    1.1439869690e+02    3.0388698578e+01
    1.1449873352e+02    3.0436599731e+01
    1.1459873962e+02    3.0484199524e+01
    1.1469869232e+02    3.0531597137e+01
    1.1479866791e+02    3.0578701019e+01
    1.1489868927e+02    3.0625398636e+01
    1.1499865723e+02    3.0671901703e+01
    1.1509867096e+02    3.0718099594e+01
    1.1519866180e+02    3.0763999939e+01
    1.1529873657e+02    3.0809600830e+01
    1.1539878082e+02    3.0854799271e+01
    1.1549871063e+02    3.0899698257e+01
    1.1559874725e+02    3.0944400787e+01
    1.1569879150e+02    3.0988798141e+01
    1.1579872131e+02    3.1032802582e+01
    1.1589869690e+02    3.1076700211e+01
    1.1599877930e+02    3.1120199203e+01
    1.1609863281e+02    3.1163398743e+01
    1.1619869232e+02    3.1206501007e+01
    1.1629862213e+02    3.1249198914e+01
    1.1639871979e+02    3.1291801453e+01
    1.1649877930e+02    3.1334199905e+01
    1.1659870911e+02    3.1376298904e+01
    1.1669866943e+02    3.1418201447e+01
    1.1679873657e+02    3.1459999084e+01
    1.1689864349e+02    3.1501499176e+01
    1.1699871063e+02    3.1542800903e+01
    1.1709877014e+02    3.1583898544e+01
    1.1719869995e+02    3.1624801636e+01
    1.1729871368e+02    3.1665599823e+01
    1.1739866638e+02    3.1705999374e+01
    1.1749864197e+02    3.1746398926e+01
    1.1759860992e+02    3.1786500931e+01
    1.1769863129e+02    3.1826499939e+01
    1.1779871368e+02    3.1866300583e+01
    1.1789859772e+02    3.1905900955e+01
    1.1799871063e+02    3.1945299149e+01
    1.1809860992e+02    3.1984500885e+01
    1.1819866180e+02    3.2023498535e+01
    1.1829872894e+02    3.2062400818e+01
    1.1839862823e+02    3.2100898743e+01
    1.1849862671e+02    3.2139297485e+01
    1.1859870911e+02    3.2177501678e+01
    1.1869863129e+02    3.2215301514e+01
    1.1879860687e+02    3.2252899170e+01
    1.1889866638e+02    3.2290401459e+01
    1.1899862671e+02    3.2327598572e+01
    1.1909864044e+02    3.2364498138e+01
    1.1919869995e+02    3.2401100159e+01
    1.1929866028e+02    3.2437400818e+01
    1.1939868927e+02    3.2473602295e+01
    1.1949870300e+02    3.2509399414e+01
    1.1959858704e+02    3.2544898987e+01
    1.1969862366e+02    3.2580101013e+01
    1.1979859924e+02    3.2615100861e+01
    1.1989871216e+02    3.2649696350e+01
    1.1999859619e+02    3.2684097290e+01
    1.2009867096e+02    3.2741500854e+01
    1.2019857788e+02    3.2798797607e+01
    1.2029859161e+02    3.2855895996e+01
    1.2039856720e+02    3.2912796021e+01
    1.2049868774e+02    3.2969398499e+01
    1.2059864044e+02    3.3025596619e+01
    1.2069857025e+02    3.3081600189e+01
    1.2079863739e+02    3.3137298584e+01
    1.2089853668e+02    3.3192802429e+01
    1.2099864960e+02    3.3248100281e+01
    1.2109871674e+02    3.3303100586e+01
    1.2119853973e+02    3.3357597351e+01
    1.2129853821e+02    3.3412101746e+01
    1.2139871216e+02    3.3466400146e+01
    1.2149864960e+02    3.3520298004e+01
    1.2159867096e+02    3.3573997498e+01
    1.2169862366e+02    3.3627502441e+01
    1.2179853058e+02    3.3680702209e+01
    1.2189865875e+02    3.3733699799e+01
    1.2199857330e+02    3.3786499023e+01
    1.2209857178e+02    3.3838996887e+01
    1.2219853973e+02    3.3891399384e+01
    1.2229853821e+02    3.3943496704e+01
    1.2239865875e+02    3.3995498657e+01
    1.2249870300e+02    3.4047096252e+01
    1.2259864044e+02    3.4098499298e+01
    1.2269856262e+02    3.4149700165e+01
    1.2279862213e+02    3.4200698853e+01
    1.2289853668e+02    3.4251296997e+01
    1.2299854279e+02    3.4301795959e+01
    1.2309867096e+02    3.4352100372e+01
    1.2319853210e+02    3.4401901245e+01
    1.2329859161e+02    3.4451698303e+01
    1.2339852905e+02    3.4501197815e+01
    1.2349849701e+02    3.4550399780e+01
    1.2359857941e+02    3.4599399567e+01
    1.2369856262e+02    3.4648200989e+01
    1.2379852295e+02    3.4696601868e+01
    1.2389865875e+02    3.4745002747e+01
    1.2399865723e+02    3.4792900085e+01
    1.2409855652e+02    3.4840599060e+01
    1.2419857025e+02    3.4888000488e+01
    1.2429859924e+02    3.4935195923e+01
    1.2439855957e+02    3.4982002258e+01
    1.2449859619e+02    3.5028602600e+01
    1.2459850311e+02    3.5074901581e+01
    1.2469860840e+02    3.5120903015e+01
    1.2479860687e+02    3.5166702271e+01
    1.2489861298e+02    3.5212001801e+01
    1.2499858093e+02    3.5257102966e+01
    1.2509857941e+02    3.5301898956e+01
    1.2519859314e+02    3.5346397400e+01
    1.2529863739e+02    3.5390598297e+01
    1.2539856720e+02    3.5434402466e+01
    1.2549861908e+02    3.5477897644e+01
    1.2559854889e+02    3.5521202087e+01
    1.2569853210e+02    3.5564102173e+01
    1.2579855347e+02    3.5606803894e+01
    1.2589846802e+02    3.5649002075e+01
    1.2599859619e+02    3.5691200256e+01
    1.2609864807e+02    3.5732902527e+01
    1.2619856262e+02    3.5774398804e+01
    1.2629862976e+02    3.5815696716e+01
    1.2639846039e+02    3.5856498718e+01
    1.2649857330e+02    3.5897201538e+01
    1.2659861755e+02    3.5937599182e+01
    1.2669859314e+02    3.5977699280e+01
    1.2679859924e+02    3.6017601013e+01
    1.2689856720e+02    3.6057197571e+01
    1.2699858093e+02    3.6096496582e+01
    1.2709844208e+02    3.6135601044e+01
    1.2719860840e+02    3.6174598694e+01
    1.2729859924e+02    3.6213199615e+01
    1.2739852905e+02    3.6251602173e+01
    1.2749851227e+02    3.6289600372e+01
    1.2759844208e+02    3.6327499390e+01
    1.2769860077e+02    3.6365200043e+01
    1.2779860687e+02    3.6402702332e+01
    1.2789855957e+02    3.6439796448e+01
    1.2799848175e+02    3.6476699829e+01
    1.2809855652e+02    3.6513397217e+01
    1.2819850159e+02    3.6549797058e+01
    1.2829858398e+02    3.6586097717e+01
    1.2839857483e+02    3.6622104645e+01
    1.2849844360e+02    3.6657802582e+01
    1.2859851074e+02    3.6693199158e+01
    1.2869850159e+02    3.6728401184e+01
    1.2879864502e+02    3.6763397217e+01
    1.2889863586e+02    3.6798000336e+01
    1.2899859619e+02    3.6832397461e+01
    1.2909866333e+02    3.6866401672e+01
    1.2919851685e+02    3.6900199890e+01
    1.2929858398e+02    3.6933803558e+01
    1.2939863586e+02    3.6966999054e+01
    1.2949867249e+02    3.7000102997e+01
    1.2959861755e+02    3.7032699585e+01
    1.2969859314e+02    3.7064994812e+01
    1.2979864502e+02    3.7097099304e+01
    1.2989866638e+02    3.7128898621e+01
    1.2999853516e+02    3.7160400391e+01
    1.3009860229e+02    3.7216796875e+01
    1.3019863892e+02    3.7273300171e+01
    1.3029870605e+02    3.7329498291e+01
    1.3039859009e+02    3.7385299683e+01
    1.3049870300e+02    3.7440998077e+01
    1.3059866333e+02    3.7496200562e+01
    1.3069860840e+02    3.7551101685e+01
    1.3079866028e+02    3.7605800629e+01
    1.3089874268e+02    3.7660102844e+01
    1.3099862671e+02    3.7714202881e+01
    1.3109863281e+02    3.7767902374e+01
    1.3119876099e+02    3.7821403503e+01
    1.3129864502e+02    3.7874397278e+01
    1.3139869690e+02    3.7927295685e+01
    1.3149870300e+02    3.7979896545e+01
    1.3159872437e+02    3.8032295227e+01
    1.3169866943e+02    3.8084297180e+01
    1.3179875183e+02    3.8136100769e+01
    1.3189877319e+02    3.8187698364e+01
    1.3199868774e+02    3.8238899231e+01
    1.3209878540e+02    3.8290000916e+01
    1.3219877625e+02    3.8340900421e+01
    1.3229876709e+02    3.8391399384e+01
    1.3239872742e+02    3.8441799164e+01
    1.3249884033e+02    3.8491901398e+01
    1.3259877014e+02    3.8541603088e+01
    1.3269877625e+02    3.8591201782e+01
    1.3279884338e+02    3.8640403748e+01
    1.3289872742e+02    3.8689296722e+01
    1.3299873352e+02    3.8737998962e+01
    1.3309884644e+02    3.8786502838e+01
    1.3319874573e+02    3.8834697723e+01
    1.3329873657e+02    3.8882598877e+01
    1.3339880371e+02    3.8930198669e+01
    1.3349876404e+02    3.8977500916e+01
    1.3359887695e+02    3.9024597168e+01
    1.3369891357e+02    3.9071498871e+01
    1.3379881287e+02    3.9117900848e+01
    1.3389886475e+02    3.9164199829e+01
    1.3399890137e+02    3.9210201263e+01
    1.3409886169e+02    3.9255901337e+01
    1.3419895935e+02    3.9301300049e+01
    1.3429881287e+02    3.9346302032e+01
    1.3439891052e+02    3.9391201019e+01
    1.3449885559e+02    3.9435703278e+01
    1.3459889221e+02    3.9480003357e+01
    1.3469888306e+02    3.9523796082e+01
    1.3479899597e+02    3.9567504883e+01
    1.3489898682e+02    3.9610904694e+01
    1.3499893188e+02    3.9653896332e+01
    1.3509890747e+02    3.9696498871e+01
    1.3519886780e+02    3.9738899231e+01
    1.3529896545e+02    3.9781097412e+01
    1.3539898682e+02    3.9822799683e+01
    1.3549896240e+02    3.9864299774e+01
    1.3559904480e+02    3.9905498505e+01
    1.3569891357e+02    3.9946403503e+01
    1.3579893494e+02    3.9987003326e+01
    1.3589897156e+02    4.0027301788e+01
    1.3599902344e+02    4.0067302704e+01
    1.3609907532e+02    4.0107101440e+01
    1.3619897461e+02    4.0146602631e+01
    1.3629910278e+02    4.0185802460e+01
    1.3639906311e+02    4.0224704742e+01
    1.3649896240e+02    4.0263397217e+01
    1.3659898376e+02    4.0301696777e+01
    1.3669898987e+02    4.0339698792e+01
    1.3679908752e+02    4.0377597809e+01
    1.3689898682e+02    4.0415199280e+01
    1.3699911499e+02    4.0452499390e+01
    1.3709898376e+02    4.0489299774e+01
    1.3719914246e+02    4.0526100159e+01
    1.3729902649e+02    4.0562400818e+01
    1.3739903259e+02    4.0598400116e+01
    1.3749899292e+02    4.0634201050e+01
    1.3759901428e+02    4.0669601440e+01
    1.3769915771e+02    4.0704700470e+01
    1.3779916382e+02    4.0739501953e+01
    1.3789906311e+02    4.0773998260e+01
    1.3799906921e+02    4.0808197021e+01
    1.3809910583e+02    4.0842098236e+01
    1.3819915771e+02    4.0875698090e+01
    1.3829910278e+02    4.0908996582e+01
    1.3839923096e+02    4.0941898346e+01
    1.3849906921e+02    4.0974597931e+01
    1.3859913635e+02    4.1006900787e+01
    1.3869914246e+02    4.1038898468e+01
    1.3879916382e+02    4.1070697784e+01
    1.3889923096e+02    4.1102100372e+01
    1.3899919128e+02    4.1133102417e+01
    1.3909924316e+02    4.1163902283e+01
    1.3919914246e+02    4.1194400787e+01
    1.3929917908e+02    4.1224502563e+01
    1.3939910889e+02    4.1254398346e+01
    1.3949929810e+02    4.1284000397e+01
    1.3959916687e+02    4.1313098907e+01
    1.3969912720e+02    4.1342098236e+01
    1.3979928589e+02    4.1370803833e+01
    1.3989921570e+02    4.1399097443e+01
    1.3999928284e+02    4.1426998138e+01
    1.4009916687e+02    4.1479404449e+01
    1.4019932556e+02    4.1531795502e+01
    1.4029931641e+02    4.1583797455e+01
    1.4039932251e+02    4.1635601044e+01
    1.4049923706e+02    4.1686897278e+01
    1.4059930420e+02    4.1737998962e+01
    1.4069923401e+02    4.1788803101e+01
    1.4079922485e+02    4.1839298248e+01
    1.4089930725e+02    4.1889400482e+01
    1.4099928284e+02    4.1939296722e+01
    1.4109922791e+02    4.1988800049e+01
    1.4119934082e+02    4.2038101196e+01
    1.4129927063e+02    4.2086799622e+01
    1.4139941406e+02    4.2135498047e+01
    1.4149929810e+02    4.2183601379e+01
    1.4159927368e+02    4.2231597900e+01
    1.4169938660e+02    4.2279197693e+01
    1.4179934692e+02    4.2326503754e+01
    1.4189939880e+02    4.2373497009e+01
    1.4199943542e+02    4.2420200348e+01
    1.4209936523e+02    4.2466602325e+01
    1.4219935608e+02    4.2512699127e+01
    1.4229936218e+02    4.2558502197e+01
    1.4239947510e+02    4.2604003906e+01
    1.4249937439e+02    4.2649200439e+01
    1.4259938049e+02    4.2694000244e+01
    1.4269932556e+02    4.2738597870e+01
    1.4279939270e+02    4.2782897949e+01
    1.4289944458e+02    4.2826801300e+01
    1.4299943542e+02    4.2870395660e+01
    1.4309947205e+02    4.2913799286e+01
    1.4319950867e+02    4.2956802368e+01
    1.4329951477e+02    4.2999397278e+01
    1.4339939880e+02    4.3041702271e+01
    1.4349954224e+02    4.3083801270e+01
    1.4359951782e+02    4.3125598907e+01
    1.4369943237e+02    4.3166900635e+01
    1.4379946899e+02    4.3208003998e+01
    1.4389953613e+02    4.3248897552e+01
    1.4399954224e+02    4.3289299011e+01
    1.4409942627e+02    4.3329399109e+01
    1.4419941711e+02    4.3369201660e+01
    1.4429953003e+02    4.3408702850e+01
    1.4439958191e+02    4.3447895050e+01
    1.4449946594e+02    4.3486701965e+01
    1.4459945679e+02    4.3525196075e+01
    1.4469955444e+02    4.3563495636e+01
    1.4479951477e+02    4.3601299286e+01
    1.4489959717e+02    4.3638900757e+01
    1.4499948120e+02    4.3675998688e+01
    1.4509948730e+02    4.3712802887e+01
    1.4519961548e+02    4.3749301910e+01
    1.4529960632e+02    4.3785499573e+01
    1.4539947510e+02    4.3821201324e+01
    1.4549958801e+02    4.3856803894e+01
    1.4559967041e+02    4.3891998291e+01
    1.4569967651e+02    4.3926799774e+01
    1.4579951477e+02    4.3961196899e+01
    1.4589950562e+02    4.3995399475e+01
    1.4599951172e+02    4.4029197693e+01
    1.4609962463e+02    4.4062797546e+01
    1.4619964600e+02    4.4095901489e+01
    1.4629966736e+02    4.4128803253e+01
    1.4639970398e+02    4.4161396027e+01
    1.4649957275e+02    4.4193603516e+01
    1.4659970093e+02    4.4225601196e+01
    1.4669960022e+02    4.4257099152e+01
    1.4679956055e+02    4.4288501740e+01
    1.4689976501e+02    4.4319503784e+01
    1.4699971008e+02    4.4350097656e+01
    1.4709971619e+02    4.4380302429e+01
    1.4719976807e+02    4.4410404205e+01
    1.4729966736e+02    4.4439899445e+01
    1.4739967346e+02    4.4469203949e+01
    1.4749963379e+02    4.4498199463e+01
    1.4759962463e+02    4.4526802063e+01
    1.4769976807e+02    4.4555103302e+01
    1.4779972839e+02    4.4582996368e+01
    1.4789967346e+02    4.4610603333e+01
    1.4799966431e+02    4.4637798309e+01
    1.4809974670e+02    4.4664798737e+01
    1.4819973755e+02    4.4691501617e+01
    1.4829975891e+02    4.4717803955e+01
    1.4839979553e+02    4.4743797302e+01
    1.4849983215e+02    4.4769401550e+01
    1.4859973145e+02    4.4794795990e+01
    1.4869981384e+02    4.4819698334e+01
    1.4879986572e+02    4.4844501495e+01
    1.4889976501e+02    4.4869102478e+01
    1.4899986267e+02    4.4893104553e+01
    1.4909982300e+02    4.4915897369e+01
    1.4919972229e+02    4.4939598083e+01
    1.4929977417e+02    4.4962600708e+01
    1.4939985657e+02    4.4985202789e+01
    1.4949975586e+02    4.5006805420e+01
    1.4959986877e+02    4.5029697418e+01
    1.4969989014e+02    4.5050399780e+01
    1.4979974365e+02    4.5071998596e+01
    1.4989988708e+02    4.5092800140e+01
    1.4999984741e+02    4.5113601685e+01
    1.5009983826e+02    4.5156997681e+01
    1.5019993591e+02    4.5200901031e+01
    1.5029992676e+02    4.5244598389e+01
    1.5039979553e+02    4.5288303375e+01
    1.5049995422e+02    4.5331096649e+01
    1.5059991455e+02    4.5373901367e+01
    1.5069987488e+02    4.5415397644e+01
    1.5079997253e+02    4.5457401276e+01
    1.5089994812e+02    4.5499195099e+01
    1.5099981689e+02    4.5539798737e+01
    1.5109988403e+02    4.5580802917e+01
    1.5119990540e+02    4.5621498108e+01
    1.5129985046e+02    4.5662002563e+01
    1.5139987183e+02    4.5701999664e+01
    1.5149989319e+02    4.5740604401e+01
    1.5159997559e+02    4.5779899597e+01
    1.5169999695e+02    4.5818801880e+01
    1.5180000305e+02    4.5857498169e+01
    1.5190000916e+02    4.5895801544e+01
    1.5199993896e+02    4.5932998657e+01
    1.5209997559e+02    4.5970600128e+01
    1.5219996643e+02    4.6007896423e+01
    1.5230000305e+02    4.6044898987e+01
    1.5240008545e+02    4.6081504822e+01
    1.5250009155e+02    4.6117797852e+01
    1.5259992981e+02    4.6153102875e+01
    1.5269995117e+02    4.6188800812e+01
    1.5280007935e+02    4.6223903656e+01
    1.5290000916e+02    4.6257999420e+01
    1.5299998474e+02    4.6292701721e+01
    1.5310009766e+02    4.6326797485e+01
    1.5320013428e+02    4.6360599518e+01
    1.5330001831e+02    4.6394397736e+01
    1.5339996338e+02    4.6426700592e+01
    1.5350003052e+02    4.6459495544e+01
    1.5360008240e+02    4.6491901398e+01
    1.5370010376e+02    4.6524002075e+01
    1.5380017090e+02    4.6555603027e+01
    1.5390011597e+02    4.6586105347e+01
    1.5400000000e+02    4.6617401123e+01
    1.5410006714e+02    4.6648002625e+01
    1.5420001221e+02    4.6677398682e+01
    1.5430003357e+02    4.6707305908e+01
    1.5440019226e+02    4.6736595154e+01
    1.5450010681e+02    4.6765998840e+01
    1.5460008240e+02    4.6794898987e+01
    1.5470011902e+02    4.6823303223e+01
    1.5480006409e+02    4.6850593567e+01
    1.5490020752e+02    4.6877998352e+01
    1.5500018311e+02    4.6905395508e+01
    1.5510017395e+02    4.6932403564e+01
    1.5520021057e+02    4.6958900452e+01
    1.5530023193e+02    4.6984100342e+01
    1.5540017700e+02    4.7010002136e+01
    1.5550010681e+02    4.7035499573e+01
    1.5560012817e+02    4.7059501648e+01
    1.5570013428e+02    4.7084098816e+01
    1.5580021667e+02    4.7108200073e+01
    1.5590013123e+02    4.7132194519e+01
    1.5600028992e+02    4.7155403137e+01
    1.5610023499e+02    4.7178695679e+01
    1.5620022583e+02    4.7200500488e+01
    1.5630032349e+02    4.7222694397e+01
    1.5640032959e+02    4.7244697571e+01
    1.5650030518e+02    4.7266403198e+01
    1.5660018921e+02    4.7286903381e+01
    1.5670028687e+02    4.7307601929e+01
    1.5680027771e+02    4.7328201294e+01
    1.5690025330e+02    4.7348503113e+01
    1.5700018311e+02    4.7367500305e+01
    1.5710035706e+02    4.7387603760e+01
    1.5720022583e+02    4.7405899048e+01
    1.5730032349e+02    4.7424499512e+01
    1.5740034485e+02    4.7442794800e+01
    1.5750035095e+02    4.7460700989e+01
    1.5760029602e+02    4.7477394104e+01
    1.5770039368e+02    4.7494400024e+01
    1.5780029297e+02    4.7511398315e+01
    1.5790037537e+02    4.7527801514e+01
    1.5800028992e+02    4.7543106079e+01
    1.5810040283e+02    4.7558601379e+01
    1.5820040894e+02    4.7574005127e+01
    1.5830035400e+02    4.7589096069e+01
    1.5840026855e+02    4.7603004456e+01
    1.5850044250e+02    4.7617897034e+01
    1.5860035706e+02    4.7631004333e+01
    1.5870039368e+02    4.7644500732e+01
    1.5880047607e+02    4.7657600403e+01
    1.5890048218e+02    4.7670394897e+01
    1.5900038147e+02    4.7681999207e+01
    1.5910037231e+02    4.7694099426e+01
    1.5920039368e+02    4.7705703735e+01
    1.5930041504e+02    4.7717002869e+01
    1.5940051270e+02    4.7727798462e+01
    1.5950039673e+02    4.7737602234e+01
    1.5960035706e+02    4.7747901917e+01
    1.5970048523e+02    4.7757400513e+01
    1.5980053711e+02    4.7766700745e+01
    1.5990045166e+02    4.7775001526e+01
    1.6000039673e+02    4.7783798218e+01
    1.6010055542e+02    4.7813796997e+01
    1.6020050049e+02    4.7843902588e+01
    1.6030047607e+02    4.7872505188e+01
    1.6040049744e+02    4.7901702881e+01
    1.6050048828e+02    4.7930603027e+01
    1.6060046387e+02    4.7958198547e+01
    1.6070054626e+02    4.7986198425e+01
    1.6080053711e+02    4.8013999939e+01
    1.6090055847e+02    4.8041297913e+01
    1.6100048828e+02    4.8067497253e+01
    1.6110047913e+02    4.8094100952e+01
    1.6120051575e+02    4.8119300842e+01
    1.6130053711e+02    4.8145004272e+01
    1.6140057373e+02    4.8170402527e+01
    1.6150062561e+02    4.8195297241e+01
    1.6160061646e+02    4.8219009399e+01
    1.6170065308e+02    4.8243194580e+01
    1.6180050659e+02    4.8266395569e+01
    1.6190048218e+02    4.8289901733e+01
    1.6200056458e+02    4.8312797546e+01
    1.6210064697e+02    4.8335304260e+01
    1.6220063782e+02    4.8357597351e+01
    1.6230058289e+02    4.8378692627e+01
    1.6240055847e+02    4.8400299072e+01
    1.6250053406e+02    4.8420501709e+01
    1.6260058594e+02    4.8441207886e+01
    1.6270062256e+02    4.8461494446e+01
    1.6280072021e+02    4.8481300354e+01
    1.6290066528e+02    4.8500000000e+01
    1.6300056458e+02    4.8519493103e+01
    1.6310064697e+02    4.8538101196e+01
    1.6320060730e+02    4.8555702209e+01
    1.6330064392e+02    4.8573707581e+01
    1.6340069580e+02    4.8591201782e+01
    1.6350062561e+02    4.8607597351e+01
    1.6360073853e+02    4.8624305725e+01
    1.6370074463e+02    4.8640693665e+01
    1.6380076599e+02    4.8656799316e+01
    1.6390075684e+02    4.8671501160e+01
    1.6400076294e+02    4.8686691284e+01
    1.6410072327e+02    4.8701797485e+01
    1.6420077515e+02    4.8715202332e+01
    1.6430073547e+02    4.8729309082e+01
    1.6440069580e+02    4.8742202759e+01
    1.6450071716e+02    4.8755500793e+01
    1.6460066223e+02    4.8768501282e+01
    1.6470080566e+02    4.8780693054e+01
    1.6480075073e+02    4.8791992188e+01
    1.6490075684e+02    4.8803802490e+01
    1.6500068665e+02    4.8815193176e+01
    1.6510075378e+02    4.8825004578e+01
    1.6520083618e+02    4.8835395813e+01
    1.6530079651e+02    4.8845603943e+01
    1.6540083313e+02    4.8855293274e+01
    1.6550083923e+02    4.8863594055e+01
    1.6560070801e+02    4.8872802734e+01
    1.6570082092e+02    4.8881095886e+01
    1.6580078125e+02    4.8888191223e+01
    1.6590083313e+02    4.8895896912e+01
    1.6600079346e+02    4.8903305054e+01
    1.6610089111e+02    4.8908905029e+01
    1.6620085144e+02    4.8915596008e+01
    1.6630084229e+02    4.8921707153e+01
    1.6640078735e+02    4.8926605225e+01
    1.6650082397e+02    4.8931892395e+01
    1.6660090637e+02    4.8936698914e+01
    1.6670094299e+02    4.8941192627e+01
    1.6680096436e+02    4.8944404602e+01
    1.6690083313e+02    4.8948600769e+01
    1.6700085449e+02    4.8951904297e+01
    1.6710084534e+02    4.8954101562e+01
    1.6720083618e+02    4.8956695557e+01
    1.6730091858e+02    4.8958801270e+01
    1.6740084839e+02    4.8959899902e+01
    1.6750097656e+02    4.8960990906e+01
    1.6760093689e+02    4.8962203979e+01
    1.6770088196e+02    4.8962097168e+01
    1.6780093384e+02    4.8962203979e+01
    1.6790087891e+02    4.8962196350e+01
    1.6800100708e+02    4.8961402893e+01
    1.6810096741e+02    4.8959602356e+01
    1.6820100403e+02    4.8958297729e+01
    1.6830099487e+02    4.8956703186e+01
    1.6840089417e+02    4.8953903198e+01
    1.6850094604e+02    4.8951293945e+01
    1.6860105896e+02    4.8948196411e+01
    1.6870100403e+02    4.8944099426e+01
    1.6880101013e+02    4.8940406799e+01
    1.6890104675e+02    4.8936294556e+01
    1.6900097656e+02    4.8931098938e+01
    1.6910092163e+02    4.8926399231e+01
    1.6920098877e+02    4.8920997620e+01
    1.6930104065e+02    4.8914291382e+01
    1.6940110779e+02    4.8908103943e+01
    1.6950097656e+02    4.8901908875e+01
    1.6960104370e+02    4.8893905640e+01
    1.6970109558e+02    4.8886497498e+01
    1.6980105591e+02    4.8878906250e+01
    1.6990098572e+02    4.8870002747e+01
    1.7000099182e+02    4.8861495972e+01
    1.7010104370e+02    4.8872406006e+01
    1.7020103455e+02    4.8883102417e+01
    1.7030110168e+02    4.8894203186e+01
    1.7040104675e+02    4.8902992249e+01
    1.7050105286e+02    4.8913993835e+01
    1.7060104370e+02    4.8923004150e+01
    1.7070106506e+02    4.8930999756e+01
    1.7080110168e+02    4.8938995361e+01
    1.7090121460e+02    4.8946990967e+01
    1.7100105286e+02    4.8955001831e+01
    1.7110107422e+02    4.8961997986e+01
    1.7120112610e+02    4.8967994690e+01
    1.7130111694e+02    4.8974006653e+01
    1.7140112305e+02    4.8980003357e+01
    1.7150108337e+02    4.8985000610e+01
    1.7160116577e+02    4.8989990234e+01
    1.7170112610e+02    4.8995002747e+01
    1.7180116272e+02    4.8999000549e+01
    1.7190113831e+02    4.9001991272e+01
    1.7200117493e+02    4.9005004883e+01
    1.7210115051e+02    4.9008003235e+01
    1.7220118713e+02    4.9010993958e+01
    1.7230113220e+02    4.9012992859e+01
    1.7240115356e+02    4.9013999939e+01
    1.7250114441e+02    4.9015998840e+01
    1.7260127258e+02    4.9016998291e+01
    1.7270118713e+02    4.9017005920e+01
    1.7280125427e+02    4.9016990662e+01
    1.7290121460e+02    4.9017005920e+01
    1.7300129700e+02    4.9015998840e+01
    1.7310130310e+02    4.9014991760e+01
    1.7320117188e+02    4.9013000488e+01
    1.7330120850e+02    4.9012001038e+01
    1.7340119934e+02    4.9008995056e+01
    1.7350131226e+02    4.9005989075e+01
    1.7360130310e+02    4.9003005981e+01
    1.7370137024e+02    4.8999000549e+01
    1.7380134583e+02    4.8994995117e+01
    1.7390129089e+02    4.8991004944e+01
    1.7400140381e+02    4.8986000061e+01
    1.7410122681e+02    4.8980995178e+01
    1.7420137024e+02    4.8974990845e+01
    1.7430137634e+02    4.8969001770e+01
    1.7440141296e+02    4.8961997986e+01
    1.7450129700e+02    4.8954994202e+01
    1.7460142517e+02    4.8948005676e+01
    1.7470132446e+02    4.8940002441e+01
    1.7480145264e+02    4.8933006287e+01
    1.7490142822e+02    4.8923995972e+01
    1.7500134277e+02    4.8914001465e+01
    1.7510139465e+02    4.8903999329e+01
    1.7520143127e+02    4.8895004272e+01
    1.7530134583e+02    4.8884002686e+01
    1.7540139771e+02    4.8873992920e+01
    1.7550149536e+02    4.8863006592e+01
    1.7560150146e+02    4.8850997925e+01
    1.7570146179e+02    4.8838996887e+01
    1.7580136108e+02    4.8827003479e+01
    1.7590148926e+02    4.8813003540e+01
    1.7600137329e+02    4.8799995422e+01
    1.7610142517e+02    4.8785995483e+01
    1.7620149231e+02    4.8771003723e+01
    1.7630143738e+02    4.8756996155e+01
    1.7640147400e+02    4.8740997314e+01
    1.7650149536e+02    4.8726005554e+01
    1.7660144043e+02    4.8709999084e+01
    1.7670155334e+02    4.8692993164e+01
    1.7680149841e+02    4.8676010132e+01
    1.7690147400e+02    4.8659004211e+01
    1.7700143433e+02    4.8640998840e+01
    1.7710157776e+02    4.8621994019e+01
    1.7720150757e+02    4.8604003906e+01
    1.7730143738e+02    4.8584999084e+01
    1.7740151978e+02    4.8564994812e+01
    1.7750155640e+02    4.8545005798e+01
    1.7760159302e+02    4.8525993347e+01
    1.7770161438e+02    4.8505004883e+01
    1.7780149841e+02    4.8482994080e+01
    1.7790159607e+02    4.8461997986e+01
    1.7800163269e+02    4.8440010071e+01
    1.7810150146e+02    4.8416999817e+01
    1.7820158386e+02    4.8393997192e+01
    1.7830158997e+02    4.8370994568e+01
    1.7840165710e+02    4.8347007751e+01
    1.7850164795e+02    4.8322998047e+01
    1.7860163879e+02    4.8297996521e+01
    1.7870150757e+02    4.8274009705e+01
    1.7880163574e+02    4.8248001099e+01
    1.7890159607e+02    4.8222000122e+01
    1.7900155640e+02    4.8195991516e+01
    1.7910154724e+02    4.8169006348e+01
    1.7920155334e+02    4.8141998291e+01
    1.7930163574e+02    4.8113998413e+01
    1.7940170288e+02    4.8086006165e+01
    1.7950161743e+02    4.8058006287e+01
    1.7960159302e+02    4.8028999329e+01
    1.7970159912e+02    4.7999992371e+01
    1.7980166626e+02    4.7970001221e+01
    1.7990168762e+02    4.7940002441e+01
    1.8000175476e+02    4.7910003662e+01
    1.8010165405e+02    4.7895996094e+01
    1.8020169067e+02    4.7882995605e+01
    1.8030169678e+02    4.7868003845e+01
    1.8040171814e+02    4.7853004456e+01
    1.8050172424e+02    4.7838005066e+01
    1.8060173035e+02    4.7821998596e+01
    1.8070164490e+02    4.7806999207e+01
    1.8080165100e+02    4.7790008545e+01
    1.8090168762e+02    4.7773010254e+01
    1.8100169373e+02    4.7755004883e+01
    1.8110180664e+02    4.7738006592e+01
    1.8120176697e+02    4.7718994141e+01
    1.8130180359e+02    4.7701004028e+01
    1.8140168762e+02    4.7682006836e+01
    1.8150169373e+02    4.7662002563e+01
    1.8160171509e+02    4.7643005371e+01
    1.8170170593e+02    4.7621994019e+01
    1.8180172729e+02    4.7601989746e+01
    1.8190182495e+02    4.7580001831e+01
    1.8200181580e+02    4.7559005737e+01
    1.8210180664e+02    4.7535995483e+01
    1.8220184326e+02    4.7514007568e+01
    1.8230186462e+02    4.7490997314e+01
    1.8240188599e+02    4.7468002319e+01
    1.8250190735e+02    4.7444000244e+01
    1.8260192871e+02    4.7419998169e+01
    1.8270190430e+02    4.7395004272e+01
    1.8280189514e+02    4.7371002197e+01
    1.8290177917e+02    4.7345993042e+01
    1.8300187683e+02    4.7320999146e+01
    1.8310191345e+02    4.7294006348e+01
    1.8320193481e+02    4.7269012451e+01
    1.8330186462e+02    4.7242004395e+01
    1.8340182495e+02    4.7214996338e+01
    1.8350189209e+02    4.7187988281e+01
    1.8360191345e+02    4.7158996582e+01
    1.8370181274e+02    4.7132003784e+01
    1.8380183411e+02    4.7102996826e+01
    1.8390191650e+02    4.7074005127e+01
    1.8400187683e+02    4.7044998169e+01
    1.8410185242e+02    4.7014999390e+01
    1.8420202637e+02    4.6985000610e+01
    1.8430195618e+02    4.6955001831e+01
    1.8440200806e+02    4.6923995972e+01
    1.8450195312e+02    4.6892013550e+01
    1.8460202026e+02    4.6860992432e+01
    1.8470188904e+02    4.6828994751e+01
    1.8480187988e+02    4.6796997070e+01
    1.8490205383e+02    4.6764007568e+01
    1.8500190735e+02    4.6731002808e+01
    1.8510198975e+02    4.6697006226e+01
    1.8520193481e+02    4.6662994385e+01
    1.8530204773e+02    4.6628005981e+01
    1.8540197754e+02    4.6593002319e+01
    1.8550204468e+02    4.6557998657e+01
    1.8560200500e+02    4.6522003174e+01
    1.8570208740e+02    4.6486007690e+01
    1.8580198669e+02    4.6449005127e+01
    1.8590209961e+02    4.6412002563e+01
    1.8600204468e+02    4.6375000000e+01
    1.8610211182e+02    4.6336990356e+01
    1.8620205688e+02    4.6299011230e+01
    1.8630209351e+02    4.6261001587e+01
    1.8640208435e+02    4.6221008301e+01
    1.8650198364e+02    4.6182998657e+01
    1.8660209656e+02    4.6141998291e+01
    1.8670217896e+02    4.6102996826e+01
    1.8680212402e+02    4.6062011719e+01
    1.8690205383e+02    4.6020996094e+01
    1.8700210571e+02    4.5979995728e+01
    1.8710211182e+02    4.5937988281e+01
    1.8720210266e+02    4.5897003174e+01
    1.8730209351e+02    4.5854003906e+01
    1.8740209961e+02    4.5812011719e+01
    1.8750207520e+02    4.5768997192e+01
    1.8760223389e+02    4.5725997925e+01
    1.8770223999e+02    4.5682998657e+01
    1.8780212402e+02    4.5638992310e+01
    1.8790220642e+02    4.5594009399e+01
    1.8800212097e+02    4.5550003052e+01
    1.8810214233e+02    4.5505004883e+01
    1.8820223999e+02    4.5460006714e+01
    1.8830227661e+02    4.5414001465e+01
    1.8840223694e+02    4.5368988037e+01
    1.8850218201e+02    4.5322006226e+01
    1.8860212708e+02    4.5274993896e+01
    1.8870223999e+02    4.5229003906e+01
    1.8880221558e+02    4.5180999756e+01
    1.8890213013e+02    4.5133987427e+01
    1.8900213623e+02    4.5085998535e+01
    1.8910226440e+02    4.5038009644e+01
    1.8920225525e+02    4.4990005493e+01
    1.8930232239e+02    4.4940994263e+01
    1.8940217590e+02    4.4892990112e+01
    1.8950234985e+02    4.4842987061e+01
    1.8960226440e+02    4.4794006348e+01
    1.8970217896e+02    4.4744003296e+01
    1.8980221558e+02    4.4694000244e+01
    1.8990225220e+02    4.4643005371e+01
    1.9000230408e+02    4.4592987061e+01
    1.9010237122e+02    4.4557998657e+01
    1.9020225525e+02    4.4520996094e+01
    1.9030233765e+02    4.4485000610e+01
    1.9040237427e+02    4.4447998047e+01
    1.9050224304e+02    4.4410995483e+01
    1.9060231018e+02    4.4374008179e+01
    1.9070236206e+02    4.4335998535e+01
    1.9080232239e+02    4.4299011230e+01
    1.9090226746e+02    4.4261001587e+01
    1.9100236511e+02    4.4223999023e+01
    1.9110238647e+02    4.4184997559e+01
    1.9120242310e+02    4.4147003174e+01
    1.9130230713e+02    4.4108993530e+01
    1.9140231323e+02    4.4070007324e+01
    1.9150238037e+02    4.4030990601e+01
    1.9160243225e+02    4.3992996216e+01
    1.9170237732e+02    4.3954010010e+01
    1.9180235291e+02    4.3914993286e+01
    1.9190248108e+02    4.3875000000e+01
    1.9200234985e+02    4.3835998535e+01
    1.9210240173e+02    4.3795989990e+01
    1.9220245361e+02    4.3756988525e+01
    1.9230238342e+02    4.3716995239e+01
    1.9240248108e+02    4.3677993774e+01
    1.9250250244e+02    4.3638000488e+01
    1.9260246277e+02    4.3597991943e+01
    1.9270249939e+02    4.3557998657e+01
    1.9280249023e+02    4.3518005371e+01
    1.9290255737e+02    4.3479003906e+01
    1.9300251770e+02    4.3438995361e+01
    1.9310240173e+02    4.3397994995e+01
    1.9320251465e+02    4.3358993530e+01
    1.9330256653e+02    4.3319000244e+01
    1.9340242004e+02    4.3279998779e+01
    1.9350248718e+02    4.3240005493e+01
    1.9360249329e+02    4.3199996948e+01
    1.9370249939e+02    4.3162002563e+01
    1.9380259705e+02    4.3121994019e+01
    1.9390249634e+02    4.3083007812e+01
    1.9400251770e+02    4.3043991089e+01
    1.9410263062e+02    4.3005004883e+01
    1.9420257568e+02    4.2966003418e+01
    1.9430250549e+02    4.2928009033e+01
    1.9440255737e+02    4.2889999390e+01
[...]
    2.5130598450e+02    4.2912994385e+01
    2.5140594482e+02    4.2906005859e+01
    2.5150602722e+02    4.2899993896e+01
    2.5160612488e+02    4.2894989014e+01
    2.5170614624e+02    4.2888000488e+01
    2.5180616760e+02    4.2881988525e+01
    2.5190605164e+02    4.2876007080e+01
    2.5200608826e+02    4.2869995117e+01
    2.5210601807e+02    4.2863006592e+01
    2.5220606995e+02    4.2855987549e+01
    2.5230610657e+02    4.2850006104e+01
    2.5240602112e+02    4.2842987061e+01
    2.5250602722e+02    4.2837005615e+01
    2.5260609436e+02    4.2829986572e+01
    2.5270617676e+02    4.2822998047e+01
    2.5280610657e+02    4.2815002441e+01
    2.5290609741e+02    4.2807983398e+01
    2.5300604248e+02    4.2800994873e+01
    2.5310612488e+02    4.2794006348e+01
    2.5320617676e+02    4.2786987305e+01
    2.5330616760e+02    4.2778991699e+01
    2.5340625000e+02    4.2772003174e+01
    2.5350610352e+02    4.2763977051e+01
    2.5360621643e+02    4.2755981445e+01
    2.5370622253e+02    4.2747985840e+01
    2.5380618286e+02    4.2739990234e+01
    2.5390611267e+02    4.2733001709e+01
    2.5400625610e+02    4.2723999023e+01
    2.5410627747e+02    4.2716003418e+01
    2.5420616150e+02    4.2707000732e+01
    2.5430618286e+02    4.2698974609e+01
    2.5440623474e+02    4.2690002441e+01
    2.5450630188e+02    4.2680999756e+01
    2.5460627747e+02    4.2673004150e+01
    2.5470631409e+02    4.2664001465e+01
    2.5480621338e+02    4.2654022217e+01
    2.5490621948e+02    4.2644989014e+01
    2.5500628662e+02    4.2635986328e+01
    2.5510630798e+02    4.2626983643e+01
    2.5520626831e+02    4.2617980957e+01
    2.5530625916e+02    4.2608978271e+01
    2.5540629578e+02    4.2599975586e+01
    2.5550631714e+02    4.2589019775e+01
    2.5560629272e+02    4.2580017090e+01
    2.5570635986e+02    4.2570007324e+01
    2.5580638123e+02    4.2560974121e+01
    2.5590623474e+02    4.2550994873e+01
    2.5600622559e+02    4.2541015625e+01
    2.5610635376e+02    4.2531005859e+01
    2.5620626831e+02    4.2520996094e+01
    2.5630627441e+02    4.2511016846e+01
    2.5640631104e+02    4.2501007080e+01
    2.5650631714e+02    4.2491027832e+01
    2.5660638428e+02    4.2480010986e+01
    2.5670632935e+02    4.2468994141e+01
    2.5680639648e+02    4.2459014893e+01
    2.5690634155e+02    4.2447998047e+01
    2.5700643921e+02    4.2437011719e+01
    2.5710638428e+02    4.2427001953e+01
    2.5720642090e+02    4.2416015625e+01
    2.5730630493e+02    4.2403991699e+01
    2.5740646362e+02    4.2394012451e+01
    2.5750631714e+02    4.2382019043e+01
    2.5760638428e+02    4.2371002197e+01
    2.5770642090e+02    4.2360015869e+01
    2.5780645752e+02    4.2348022461e+01
    2.5790634155e+02    4.2335998535e+01
    2.5800650024e+02    4.2325012207e+01
    2.5810641479e+02    4.2313018799e+01
    2.5820651245e+02    4.2300994873e+01
    2.5830648804e+02    4.2290008545e+01
    2.5840640259e+02    4.2278991699e+01
    2.5850653076e+02    4.2266021729e+01
    2.5860656738e+02    4.2255004883e+01
    2.5870645142e+02    4.2242004395e+01
    2.5880642700e+02    4.2230010986e+01
    2.5890655518e+02    4.2218017578e+01
    2.5900653076e+02    4.2205993652e+01
    2.5910641479e+02    4.2195007324e+01
    2.5920645142e+02    4.2182006836e+01
    2.5930642700e+02    4.2170013428e+01
    2.5940655518e+02    4.2157989502e+01
    2.5950659180e+02    4.2144989014e+01
    2.5960653687e+02    4.2134002686e+01
    2.5970654297e+02    4.2121002197e+01
    2.5980664062e+02    4.2109008789e+01
    2.5990664673e+02    4.2097015381e+01
    2.6000646973e+02    4.2083984375e+01
    2.6010647583e+02    4.2072998047e+01
    2.6020666504e+02    4.2061004639e+01
    2.6030651855e+02    4.2049011230e+01
    2.6040664673e+02    4.2036987305e+01
    2.6050665283e+02    4.2024993896e+01
    2.6060653687e+02    4.2014007568e+01
    2.6070663452e+02    4.2001007080e+01
    2.6080661011e+02    4.1989013672e+01
    2.6090664673e+02    4.1978027344e+01
    2.6100671387e+02    4.1964996338e+01
    2.6110653687e+02    4.1951995850e+01
    2.6120660400e+02    4.1940002441e+01
    2.6130664062e+02    4.1928009033e+01
    2.6140667725e+02    4.1915008545e+01
    2.6150659180e+02    4.1903015137e+01
    2.6160671997e+02    4.1890991211e+01
    2.6170663452e+02    4.1877990723e+01
    2.6180670166e+02    4.1864990234e+01
    2.6190673828e+02    4.1851989746e+01
    2.6200674438e+02    4.1839019775e+01
    2.6210659790e+02    4.1826019287e+01
    2.6220669556e+02    4.1813018799e+01
    2.6230676270e+02    4.1800018311e+01
    2.6240676880e+02    4.1786987305e+01
    2.6250662231e+02    4.1772979736e+01
    2.6260671997e+02    4.1760009766e+01
    2.6270666504e+02    4.1746002197e+01
    2.6280679321e+02    4.1731994629e+01
    2.6290679932e+02    4.1718994141e+01
    2.6300668335e+02    4.1703979492e+01
    2.6310678101e+02    4.1690002441e+01
    2.6320675659e+02    4.1674987793e+01
    2.6330682373e+02    4.1661010742e+01
    2.6340670776e+02    4.1647003174e+01
    2.6350677490e+02    4.1632019043e+01
    2.6360684204e+02    4.1616973877e+01
    2.6370684814e+02    4.1601989746e+01
    2.6380679321e+02    4.1587005615e+01
    2.6390682983e+02    4.1570983887e+01
    2.6400680542e+02    4.1555999756e+01
    2.6410671997e+02    4.1540008545e+01
    2.6420681763e+02    4.1525024414e+01
    2.6430679321e+02    4.1508026123e+01
    2.6440676880e+02    4.1492980957e+01
    2.6450674438e+02    4.1475982666e+01
    2.6460687256e+02    4.1459014893e+01
    2.6470684814e+02    4.1443023682e+01
    2.6480682373e+02    4.1425994873e+01
    2.6490689087e+02    4.1408996582e+01
    2.6500683594e+02    4.1391998291e+01
    2.6510696411e+02    4.1373992920e+01
    2.6520684814e+02    4.1356994629e+01
    2.6530688477e+02    4.1338989258e+01
    2.6540686035e+02    4.1321014404e+01
    2.6550683594e+02    4.1302001953e+01
    2.6560681152e+02    4.1283996582e+01
    2.6570697021e+02    4.1264984131e+01
    2.6580682373e+02    4.1246002197e+01
    2.6590689087e+02    4.1226013184e+01
    2.6600692749e+02    4.1207000732e+01
    2.6610687256e+02    4.1186004639e+01
    2.6620684814e+02    4.1167022705e+01
    2.6630685425e+02    4.1145996094e+01
    2.6640692139e+02    4.1125000000e+01
    2.6650701904e+02    4.1104003906e+01
    2.6660690308e+02    4.1083007812e+01
    2.6670700073e+02    4.1061004639e+01
    2.6680691528e+02    4.1039001465e+01
    2.6690698242e+02    4.1016998291e+01
    2.6700701904e+02    4.0994995117e+01
    2.6710696411e+02    4.0971984863e+01
    2.6720690918e+02    4.0949005127e+01
    2.6730697632e+02    4.0925018311e+01
    2.6740707397e+02    4.0901000977e+01
    2.6750704956e+02    4.0877990723e+01
    2.6760711670e+02    4.0852996826e+01
    2.6770700073e+02    4.0829010010e+01
    2.6780700684e+02    4.0803985596e+01
    2.6790698242e+02    4.0778991699e+01
    2.6800698853e+02    4.0753021240e+01
    2.6810702515e+02    4.0726989746e+01
    2.6820700073e+02    4.0700988770e+01
    2.6830703735e+02    4.0673980713e+01
    2.6840701294e+02    4.0647003174e+01
    2.6850704956e+02    4.0619995117e+01
    2.6860699463e+02    4.0593017578e+01
    2.6870703125e+02    4.0565002441e+01
    2.6880709839e+02    4.0536987305e+01
    2.6890716553e+02    4.0509002686e+01
    2.6900714111e+02    4.0480010986e+01
    2.6910705566e+02    4.0450988770e+01
    2.6920721436e+02    4.0420989990e+01
    2.6930718994e+02    4.0391998291e+01
    2.6940710449e+02    4.0361999512e+01
    2.6950720215e+02    4.0332000732e+01
    2.6960714722e+02    4.0300994873e+01
    2.6970721436e+02    4.0269989014e+01
    2.6980709839e+02    4.0238006592e+01
    2.6990710449e+02    4.0207000732e+01
    2.7000723267e+02    4.0174987793e+01
    2.7010720825e+02    4.0141998291e+01
    2.7020718384e+02    4.0106994629e+01
    2.7030722046e+02    4.0071990967e+01
    2.7040713501e+02    4.0038024902e+01
    2.7050711060e+02    4.0003021240e+01
    2.7060726929e+02    3.9967010498e+01
    2.7070718384e+02    3.9930999756e+01
    2.7080731201e+02    3.9894989014e+01
    2.7090713501e+02    3.9858001709e+01
    2.7100717163e+02    3.9820983887e+01
    2.7110720825e+02    3.9783996582e+01
    2.7120727539e+02    3.9746978760e+01
    2.7130725098e+02    3.9708007812e+01
    2.7140722656e+02    3.9670013428e+01
    2.7150720215e+02    3.9631988525e+01
    2.7160726929e+02    3.9592987061e+01
    2.7170724487e+02    3.9553985596e+01
    2.7180728149e+02    3.9515014648e+01
    2.7190719604e+02    3.9476013184e+01
    2.7200732422e+02    3.9434997559e+01
    2.7210726929e+02    3.9394989014e+01
    2.7220727539e+02    3.9354003906e+01
    2.7230734253e+02    3.9313995361e+01
    2.7240737915e+02    3.9273010254e+01
    2.7250726318e+02    3.9230987549e+01
    2.7260739136e+02    3.9190002441e+01
    2.7270733643e+02    3.9147003174e+01
    2.7280734253e+02    3.9105010986e+01
    2.7290722656e+02    3.9061981201e+01
    2.7300741577e+02    3.9018981934e+01
    2.7310733032e+02    3.8976013184e+01
    2.7320733643e+02    3.8933013916e+01
    2.7330731201e+02    3.8889007568e+01
    2.7340734863e+02    3.8845001221e+01
    2.7350729370e+02    3.8800994873e+01
    2.7360745239e+02    3.8757019043e+01
    2.7370739746e+02    3.8710998535e+01
    2.7380737305e+02    3.8665985107e+01
    2.7390737915e+02    3.8621002197e+01
    2.7400732422e+02    3.8576019287e+01
    2.7410736084e+02    3.8531005859e+01
    2.7420739746e+02    3.8484985352e+01
    2.7430734253e+02    3.8438995361e+01
    2.7440737915e+02    3.8391998291e+01
    2.7450750732e+02    3.8345001221e+01
    2.7460742188e+02    3.8299011230e+01
    2.7470748901e+02    3.8251007080e+01
    2.7480740356e+02    3.8203002930e+01
    2.7490744019e+02    3.8154998779e+01
    2.7500756836e+02    3.8108001709e+01
    2.7510751343e+02    3.8058990479e+01
    2.7520739746e+02    3.8010986328e+01
    2.7530743408e+02    3.7962005615e+01
    2.7540740967e+02    3.7914001465e+01
    2.7550744629e+02    3.7863983154e+01
    2.7560742188e+02    3.7815002441e+01
    2.7570748901e+02    3.7765014648e+01
    2.7580746460e+02    3.7713989258e+01
    2.7590756226e+02    3.7665008545e+01
    2.7600756836e+02    3.7614990234e+01
    2.7610754395e+02    3.7563018799e+01
    2.7620761108e+02    3.7513000488e+01
    2.7630755615e+02    3.7460998535e+01
    2.7640759277e+02    3.7410003662e+01
    2.7650762939e+02    3.7358001709e+01
    2.7660751343e+02    3.7307006836e+01
    2.7670764160e+02    3.7255004883e+01
    2.7680758667e+02    3.7203002930e+01
    2.7690750122e+02    3.7151000977e+01
    2.7700762939e+02    3.7097991943e+01
    2.7710757446e+02    3.7045013428e+01
    2.7720767212e+02    3.6992004395e+01
    2.7730755615e+02    3.6937988281e+01
    2.7740762329e+02    3.6884002686e+01
    2.7750765991e+02    3.6830017090e+01
    2.7760757446e+02    3.6777008057e+01
    2.7770761108e+02    3.6721984863e+01
    2.7780770874e+02    3.6667999268e+01
    2.7790768433e+02    3.6613006592e+01
    2.7800759888e+02    3.6559020996e+01
    2.7810772705e+02    3.6502990723e+01
    2.7820770264e+02    3.6447998047e+01
    2.7830761719e+02    3.6391998291e+01
    2.7840759277e+02    3.6335998535e+01
    2.7850769043e+02    3.6281005859e+01
    2.7860772705e+02    3.6225006104e+01
    2.7870773315e+02    3.6167999268e+01
    2.7880770874e+02    3.6111022949e+01
    2.7890777588e+02    3.6054016113e+01
    2.7900762939e+02    3.5997985840e+01
    2.7910778809e+02    3.5940002441e+01
    2.7920773315e+02    3.5882995605e+01
    2.7930770874e+02    3.5826019287e+01
    2.7940774536e+02    3.5769012451e+01
    2.7950772095e+02    3.5710998535e+01
    2.7960781860e+02    3.5652984619e+01
    2.7970773315e+02    3.5593994141e+01
    2.7980776978e+02    3.5536010742e+01
    2.7990783691e+02    3.5477996826e+01
    2.8000772095e+02    3.5418975830e+01
    2.8010784912e+02    3.5356994629e+01
    2.8020782471e+02    3.5293975830e+01
    2.8030783081e+02    3.5231018066e+01
    2.8040774536e+02    3.5167999268e+01
    2.8050775146e+02    3.5105010986e+01
    2.8060775757e+02    3.5042022705e+01
    2.8070782471e+02    3.4977996826e+01
    2.8080776978e+02    3.4915008545e+01
    2.8090774536e+02    3.4851989746e+01
    2.8100784302e+02    3.4786987305e+01
    2.8110775757e+02    3.4722991943e+01
    2.8120782471e+02    3.4660003662e+01
    2.8130789185e+02    3.4595001221e+01
    2.8140777588e+02    3.4529998779e+01
    2.8150793457e+02    3.4464996338e+01
    2.8160787964e+02    3.4399993896e+01
    2.8170782471e+02    3.4335021973e+01
    2.8180783081e+02    3.4269989014e+01
    2.8190780640e+02    3.4205017090e+01
    2.8200784302e+02    3.4139007568e+01
    2.8210800171e+02    3.4072998047e+01
    2.8220782471e+02    3.4007995605e+01
    2.8230783081e+02    3.3941009521e+01
    2.8240789795e+02    3.3876007080e+01
    2.8250796509e+02    3.3808990479e+01
    2.8260787964e+02    3.3743011475e+01
    2.8270788574e+02    3.3675994873e+01
    2.8280795288e+02    3.3609985352e+01
    2.8290792847e+02    3.3544006348e+01
    2.8300802612e+02    3.3476989746e+01
    2.8310803223e+02    3.3410980225e+01
    2.8320800781e+02    3.3343994141e+01
    2.8330792236e+02    3.3277008057e+01
    2.8340786743e+02    3.3210021973e+01
    2.8350805664e+02    3.3144012451e+01
    2.8360791016e+02    3.3076995850e+01
    2.8370794678e+02    3.3011016846e+01
    2.8380801392e+02    3.2944000244e+01
    2.8390798950e+02    3.2876007080e+01
    2.8400799561e+02    3.2809997559e+01
    2.8410794067e+02    3.2743011475e+01
    2.8420800781e+02    3.2674987793e+01
    2.8430801392e+02    3.2609008789e+01
    2.8440798950e+02    3.2541992188e+01
    2.8450808716e+02    3.2473999023e+01
    2.8460800171e+02    3.2405975342e+01
    2.8470816040e+02    3.2338989258e+01
    2.8480813599e+02    3.2272003174e+01
    2.8490808105e+02    3.2203979492e+01
    2.8500811768e+02    3.2135986328e+01
    2.8510809326e+02    3.2068023682e+01
    2.8520803833e+02    3.2000000000e+01
    2.8530810547e+02    3.1932006836e+01
    2.8540814209e+02    3.1864013672e+01
    2.8550817871e+02    3.1796020508e+01
    2.8560818481e+02    3.1727996826e+01
    2.8570812988e+02    3.1658996582e+01
    2.8580816650e+02    3.1591003418e+01
    2.8590820312e+02    3.1522003174e+01
    2.8600808716e+02    3.1454010010e+01
    2.8610812378e+02    3.1384002686e+01
    2.8620819092e+02    3.1316009521e+01
    2.8630807495e+02    3.1246978760e+01
    2.8640814209e+02    3.1177978516e+01
    2.8650811768e+02    3.1108001709e+01
    2.8660821533e+02    3.1039978027e+01
    2.8670816040e+02    3.0970001221e+01
    2.8680810547e+02    3.0901000977e+01
    2.8690811157e+02    3.0832000732e+01
    2.8700823975e+02    3.0761993408e+01
    2.8710812378e+02    3.0692993164e+01
    2.8720831299e+02    3.0622985840e+01
    2.8730813599e+02    3.0554016113e+01
    2.8740826416e+02    3.0484008789e+01
    2.8750827026e+02    3.0414031982e+01
    2.8760830688e+02    3.0343994141e+01
    2.8770831299e+02    3.0274993896e+01
    2.8780819702e+02    3.0205017090e+01
    2.8790817261e+02    3.0134979248e+01
    2.8800817871e+02    3.0065002441e+01
    2.8810827637e+02    2.9996032715e+01
    2.8820828247e+02    2.9924987793e+01
    2.8830838013e+02    2.9855987549e+01
    2.8840823364e+02    2.9784973145e+01
    2.8850827026e+02    2.9715972900e+01
    2.8860827637e+02    2.9645996094e+01
    2.8870831299e+02    2.9576995850e+01
    2.8880825806e+02    2.9506988525e+01
    2.8890832520e+02    2.9436004639e+01
    2.8900827026e+02    2.9366027832e+01
    2.8910833740e+02    2.9297027588e+01
    2.8920825195e+02    2.9226989746e+01
    2.8930825806e+02    2.9157012939e+01
    2.8940841675e+02    2.9087036133e+01
    2.8950833130e+02    2.9016998291e+01
    2.8960839844e+02    2.8947998047e+01
    2.8970828247e+02    2.8877990723e+01
    2.8980831909e+02    2.8807983398e+01
    2.8990841675e+02    2.8738006592e+01
    2.9000833130e+02    2.8668975830e+01
    2.9010845947e+02    2.8593963623e+01
    2.9020843506e+02    2.8518981934e+01
    2.9030847168e+02    2.8445007324e+01
    2.9040838623e+02    2.8371002197e+01
    2.9050848389e+02    2.8294982910e+01
    2.9060845947e+02    2.8220001221e+01
    2.9070843506e+02    2.8147003174e+01
    2.9080838013e+02    2.8072021484e+01
    2.9090835571e+02    2.7996978760e+01
    2.9100851440e+02    2.7921966553e+01
    2.9110842896e+02    2.7846984863e+01
    2.9120840454e+02    2.7772003174e+01
    2.9130838013e+02    2.7696990967e+01
    2.9140838623e+02    2.7622985840e+01
    2.9150845337e+02    2.7548004150e+01
    2.9160852051e+02    2.7472991943e+01
    2.9170846558e+02    2.7398010254e+01
    2.9180841064e+02    2.7322967529e+01
    2.9190859985e+02    2.7247985840e+01
    2.9200854492e+02    2.7171997070e+01
    2.9210852051e+02    2.7097991943e+01
    2.9220852661e+02    2.7023010254e+01
    2.9230856323e+02    2.6946990967e+01
    2.9240853882e+02    2.6872985840e+01
    2.9250845337e+02    2.6798004150e+01
    2.9260861206e+02    2.6723999023e+01
    2.9270852661e+02    2.6649017334e+01
    2.9280850220e+02    2.6573974609e+01
    2.9290863037e+02    2.6498992920e+01
    2.9300863647e+02    2.6424987793e+01
    2.9310848999e+02    2.6351013184e+01
    2.9320867920e+02    2.6276000977e+01
    2.9330856323e+02    2.6201965332e+01
    2.9340866089e+02    2.6127990723e+01
    2.9350866699e+02    2.6053985596e+01
    2.9360870361e+02    2.5980010986e+01
    2.9370852661e+02    2.5906982422e+01
    2.9380868530e+02    2.5832977295e+01
    2.9390859985e+02    2.5759002686e+01
    2.9400869751e+02    2.5685028076e+01
    2.9410864258e+02    2.5611968994e+01
    2.9420855713e+02    2.5537994385e+01
    2.9430871582e+02    2.5464996338e+01
    2.9440866089e+02    2.5393005371e+01
    2.9450857544e+02    2.5320007324e+01
    2.9460870361e+02    2.5245971680e+01
    2.9470864868e+02    2.5171997070e+01
    2.9480862427e+02    2.5100006104e+01
    2.9490875244e+02    2.5026000977e+01
    2.9500869751e+02    2.4954040527e+01
    2.9510861206e+02    2.4880981445e+01
    2.9520874023e+02    2.4807006836e+01
    2.9530871582e+02    2.4734008789e+01
    2.9540863037e+02    2.4662048340e+01
    2.9550878906e+02    2.4588989258e+01
    2.9560879517e+02    2.4514953613e+01
    2.9570867920e+02    2.4442993164e+01
    2.9580868530e+02    2.4369018555e+01
    2.9590869141e+02    2.4295959473e+01
    2.9600875854e+02    2.4223999023e+01
    2.9610876465e+02    2.4151000977e+01
    2.9620880127e+02    2.4078979492e+01
    2.9630871582e+02    2.4007019043e+01
    2.9640875244e+02    2.3933959961e+01
    2.9650878906e+02    2.3861999512e+01
    2.9660876465e+02    2.3789001465e+01
    2.9670877075e+02    2.3717041016e+01
    2.9680871582e+02    2.3645996094e+01
    2.9690887451e+02    2.3572998047e+01
    2.9700878906e+02    2.3500976562e+01
    2.9710885620e+02    2.3429992676e+01
    2.9720889282e+02    2.3358032227e+01
    2.9730880737e+02    2.3286987305e+01
    2.9740875244e+02    2.3216979980e+01
    2.9750881958e+02    2.3145019531e+01
    2.9760879517e+02    2.3074035645e+01
    2.9770889282e+02    2.3004028320e+01
    2.9780877686e+02    2.2932983398e+01
    2.9790890503e+02    2.2862976074e+01
    2.9800891113e+02    2.2791992188e+01
    2.9810891724e+02    2.2722045898e+01
    2.9820892334e+02    2.2653015137e+01
    2.9830892944e+02    2.2583007812e+01
    2.9840884399e+02    2.2513000488e+01
    2.9850885010e+02    2.2444030762e+01
    2.9860888672e+02    2.2375000000e+01
    2.9870883179e+02    2.2305969238e+01
    2.9880895996e+02    2.2236999512e+01
    2.9890896606e+02    2.2168029785e+01
    2.9900885010e+02    2.2100036621e+01
    2.9910894775e+02    2.2032043457e+01
    2.9920889282e+02    2.1963989258e+01
    2.9930886841e+02    2.1895996094e+01
    2.9940902710e+02    2.1828002930e+01
    2.9950897217e+02    2.1760009766e+01
    2.9960900879e+02    2.1692993164e+01
    2.9970898438e+02    2.1625000000e+01
    2.9980889893e+02    2.1557983398e+01
    2.9990905762e+02    2.1489990234e+01
endcurve
