Curveplot
LS-DYNA keyword deck by LS-PrePost
Z-displ
Z-force
Mat/Node Ids
1 #pts=1000
* Minval=    -6.6247375488e+02 at time=       -19.9863071442
* Maxval=     6.1555784196e-02 at time=         0.0000398744
    3.9874354115e-05    6.1555784196e-02
    5.0253063819e-05    4.3404214084e-02
    6.1128142988e-05    1.7480263487e-02
    7.2082584666e-05   -1.7300318927e-02
    8.2564241893e-05   -6.1995021999e-02
    9.1873764177e-05   -1.1760954559e-01
    9.9151249742e-05   -1.8505991995e-01
    1.0336469859e-04   -2.6514840126e-01
    1.0330017540e-04   -3.5856863856e-01
    9.7554191598e-05   -4.6591934562e-01
    8.4568389866e-05   -5.8745807409e-01
    6.2479157350e-05   -7.2404736280e-01
    2.9306978831e-05   -8.7575989962e-01
   -1.7159736672e-05   -1.0427407026e+00
   -7.9336852650e-05   -1.2250491381e+00
   -1.5984865604e-04   -1.4226427078e+00
   -2.6152073406e-04   -1.6353621483e+00
   -3.8739680895e-04   -1.8629376888e+00
   -5.4067722522e-04   -2.1050572395e+00
   -7.2439626092e-04   -2.3610174656e+00
   -9.4291986898e-04   -2.6316828728e+00
   -1.1997212423e-03   -2.9164371490e+00
   -1.4992060605e-03   -3.2154946327e+00
   -1.8440171843e-03   -3.5270950794e+00
   -2.2402659524e-03   -3.8526055813e+00
   -2.6918468066e-03   -4.1911921501e+00
   -3.2037994824e-03   -4.5428676605e+00
   -3.7799535785e-03   -4.9067687988e+00
   -4.4261985458e-03   -5.2831749916e+00
   -5.1475814544e-03   -5.6718649864e+00
   -5.9494767338e-03   -6.0727095604e+00
   -6.8372967653e-03   -6.4854607582e+00
   -7.8166685998e-03   -6.9101128578e+00
   -8.8933883235e-03   -7.3465900421e+00
   -1.0073263198e-02   -7.7948341370e+00
   -1.1359917931e-02   -8.2539730072e+00
   -1.2764411978e-02   -8.7256946564e+00
   -1.4290147461e-02   -9.2087812424e+00
   -1.5944609419e-02   -9.7033853531e+00
   -1.7733845860e-02   -1.0209046364e+01
   -1.9664511085e-02   -1.0725652695e+01
   -2.1743444726e-02   -1.1252925873e+01
   -2.3977385834e-02   -1.1790554047e+01
   -2.6371033862e-02   -1.2337874413e+01
   -2.8936466202e-02   -1.2895767212e+01
   -3.1679648906e-02   -1.3463668823e+01
   -3.4605935216e-02   -1.4040948868e+01
   -3.7718366832e-02   -1.4626443863e+01
   -4.1036829352e-02   -1.5222249985e+01
   -4.4557951391e-02   -1.5826247215e+01
   -4.8291202635e-02   -1.6438606262e+01
   -5.2249960601e-02   -1.7060104370e+01
   -5.6435629725e-02   -1.7689620972e+01
   -6.0853708535e-02   -1.8326898575e+01
   -6.5520226955e-02   -1.8973077774e+01
   -7.0444718003e-02   -1.9628396988e+01
   -7.5620152056e-02   -2.0291269302e+01
   -8.1074051559e-02   -2.0964269638e+01
   -8.6795292795e-02   -2.1645208359e+01
   -9.2806108296e-02   -2.2336082458e+01
   -9.9104546010e-02   -2.3035701752e+01
   -1.0571677983e-01   -2.3746137619e+01
   -1.1262604594e-01   -2.4464485168e+01
   -1.1985705048e-01   -2.5192348480e+01
   -1.2741324306e-01   -2.5928791046e+01
   -1.3530290127e-01   -2.6673467636e+01
   -1.4353379607e-01   -2.7425889969e+01
   -1.5211093426e-01   -2.8185014725e+01
   -1.6103841364e-01   -2.8949825287e+01
   -1.7034916580e-01   -2.9721693039e+01
   -1.8002346158e-01   -3.0497529984e+01
   -1.9008183479e-01   -3.1277679443e+01
   -2.0053030550e-01   -3.2061546326e+01
   -2.1137575805e-01   -3.2848415375e+01
   -2.2262036800e-01   -3.3637634277e+01
   -2.3428350687e-01   -3.4429748535e+01
   -2.4637144804e-01   -3.5224479675e+01
   -2.5888931751e-01   -3.6021709442e+01
   -2.7183952928e-01   -3.6821163177e+01
   -2.8522899747e-01   -3.7622741699e+01
   -2.9907429218e-01   -3.8427291870e+01
   -3.1335100532e-01   -3.9233245850e+01
   -3.2811850309e-01   -4.0043590546e+01
   -3.4335878491e-01   -4.0856987000e+01
   -3.5907879472e-01   -4.1673412323e+01
   -3.7528651953e-01   -4.2492828369e+01
   -3.9199391007e-01   -4.3315479279e+01
   -4.0918546915e-01   -4.4140399933e+01
   -4.2690947652e-01   -4.4969242096e+01
   -4.4512766600e-01   -4.5800464630e+01
   -4.6387088299e-01   -4.6635414124e+01
   -4.8314100504e-01   -4.7474266052e+01
   -5.0294363499e-01   -4.8317508698e+01
   -5.2328366041e-01   -4.9165637970e+01
   -5.4415082932e-01   -5.0018795013e+01
   -5.6559264660e-01   -5.0879215240e+01
   -5.8756130934e-01   -5.1745670319e+01
   -6.1013472080e-01   -5.2622074127e+01
   -6.3325667381e-01   -5.3507186890e+01
   -6.5695071220e-01   -5.4402702332e+01
   -6.8122220039e-01   -5.5309406281e+01
   -7.0607548952e-01   -5.6229579926e+01
   -7.3151594400e-01   -5.7162055969e+01
   -7.5754231215e-01   -5.8107826233e+01
   -7.8412622213e-01   -5.9065479279e+01
   -8.1135880947e-01   -6.0037712097e+01
   -8.3918744326e-01   -6.1022098541e+01
   -8.6762285233e-01   -6.2014598846e+01
   -8.9666646719e-01   -6.3012611389e+01
   -9.2632693052e-01   -6.4011596680e+01
   -9.5660477877e-01   -6.5006622314e+01
   -9.8750132322e-01   -6.5993606567e+01
   -1.0190082788e+00   -6.6970306396e+01
   -1.0511564016e+00   -6.7936553955e+01
   -1.0839593410e+00   -6.8894187927e+01
   -1.1173673868e+00   -6.9843849182e+01
   -1.1514086723e+00   -7.0789260864e+01
   -1.1860767603e+00   -7.1733116150e+01
   -1.2213287354e+00   -7.2676948547e+01
   -1.2572956085e+00   -7.3626548767e+01
   -1.2938727140e+00   -7.4579658508e+01
   -1.3311300278e+00   -7.5540184021e+01
   -1.3689627647e+00   -7.6505882263e+01
   -1.4074755907e+00   -7.7480445862e+01
   -1.4466595650e+00   -7.8465118408e+01
   -1.4864449501e+00   -7.9459609985e+01
   -1.5268768072e+00   -8.0465675354e+01
   -1.5679725409e+00   -8.1483757019e+01
   -1.6096787453e+00   -8.2510543823e+01
   -1.6520164013e+00   -8.3546577454e+01
   -1.6950516701e+00   -8.4591163635e+01
   -1.7387020588e+00   -8.5639099121e+01
   -1.7829954624e+00   -8.6688697815e+01
   -1.8279192448e+00   -8.7735252380e+01
   -1.8734598160e+00   -8.8777366638e+01
   -1.9196604490e+00   -8.9816520691e+01
   -1.9665009975e+00   -9.0853195190e+01
   -2.0139644146e+00   -9.1887252808e+01
   -2.0620441437e+00   -9.2921264648e+01
   -2.1106848717e+00   -9.3956108093e+01
   -2.1600234509e+00   -9.4996986389e+01
   -2.2099816799e+00   -9.6043701172e+01
   -2.2605559826e+00   -9.7097396851e+01
   -2.3117430210e+00   -9.8159111023e+01
   -2.3635396957e+00   -9.9230415344e+01
   -2.4159407616e+00   -1.0031082916e+02
   -2.4689412117e+00   -1.0140269470e+02
   -2.5225474834e+00   -1.0250721741e+02
   -2.5767438412e+00   -1.0362502289e+02
   -2.6315298080e+00   -1.0475600433e+02
   -2.6869018078e+00   -1.0589933777e+02
   -2.7428548336e+00   -1.0705365753e+02
   -2.7993843555e+00   -1.0821693420e+02
   -2.8564853668e+00   -1.0938675690e+02
   -2.9141526222e+00   -1.1056100464e+02
   -2.9723811150e+00   -1.1173561859e+02
   -3.0311484337e+00   -1.1291007233e+02
   -3.0903904438e+00   -1.1408306122e+02
   -3.1502659321e+00   -1.1525888824e+02
   -3.2106783390e+00   -1.1643682861e+02
   -3.2716221809e+00   -1.1761863708e+02
   -3.3330903053e+00   -1.1880652618e+02
   -3.3950765133e+00   -1.2000315857e+02
   -3.4575765133e+00   -1.2120841217e+02
   -3.5205857754e+00   -1.2242453003e+02
   -3.5840883255e+00   -1.2365243530e+02
   -3.6480832100e+00   -1.2489302063e+02
   -3.7125642300e+00   -1.2614744568e+02
   -3.7775230408e+00   -1.2741695404e+02
   -3.8429553509e+00   -1.2870274353e+02
   -3.9088551998e+00   -1.3000592041e+02
   -3.9751870632e+00   -1.3132398987e+02
   -4.0418877602e+00   -1.3265615845e+02
   -4.1091294289e+00   -1.3400524902e+02
   -4.1768074036e+00   -1.3536740112e+02
   -4.2449145317e+00   -1.3674063110e+02
   -4.3134350777e+00   -1.3812345886e+02
   -4.3823657036e+00   -1.3951551819e+02
   -4.4517016411e+00   -1.4091450500e+02
   -4.5214366913e+00   -1.4232183838e+02
   -4.5915527344e+00   -1.4373812866e+02
   -4.6620497704e+00   -1.4516413879e+02
   -4.7329239845e+00   -1.4660101318e+02
   -4.8041567802e+00   -1.4805035400e+02
   -4.8757219315e+00   -1.4951350403e+02
   -4.9475569725e+00   -1.5098800659e+02
   -5.0198326111e+00   -1.5248040771e+02
   -5.0924429893e+00   -1.5398937988e+02
   -5.1653714180e+00   -1.5551608276e+02
   -5.2386140823e+00   -1.5706188965e+02
   -5.3121690750e+00   -1.5862837219e+02
   -5.3860177994e+00   -1.6021368408e+02
   -5.4601626396e+00   -1.6181906128e+02
   -5.5345859528e+00   -1.6344390869e+02
   -5.6092877388e+00   -1.6508720398e+02
   -5.6842532158e+00   -1.6674751282e+02
   -5.7594809532e+00   -1.6842352295e+02
   -5.8349299431e+00   -1.7011380005e+02
   -5.9105424881e+00   -1.7181353760e+02
   -5.9864959717e+00   -1.7352856445e+02
   -6.0626797676e+00   -1.7525648499e+02
   -6.1390790939e+00   -1.7699847412e+02
   -6.2156944275e+00   -1.7875634766e+02
   -6.2925133705e+00   -1.8052885437e+02
   -6.3695235252e+00   -1.8231864929e+02
   -6.4467282295e+00   -1.8412686157e+02
   -6.5241141319e+00   -1.8595419312e+02
   -6.6016407013e+00   -1.8780088806e+02
   -6.6792583466e+00   -1.8966685486e+02
   -6.7571425438e+00   -1.9155541992e+02
   -6.8351869583e+00   -1.9346588135e+02
   -6.9133787155e+00   -1.9539869690e+02
   -6.9917116165e+00   -1.9735426331e+02
   -7.0701751709e+00   -1.9933285522e+02
   -7.1487731934e+00   -2.0133119202e+02
   -7.2274966240e+00   -2.0335003662e+02
   -7.3063378334e+00   -2.0538850403e+02
   -7.3852887154e+00   -2.0744628906e+02
   -7.4643135071e+00   -2.0952268982e+02
   -7.5433640480e+00   -2.1161315918e+02
   -7.6226220131e+00   -2.1372514343e+02
   -7.7019681931e+00   -2.1585566711e+02
   -7.7813954353e+00   -2.1800566101e+02
   -7.8609066010e+00   -2.2017623901e+02
   -7.9404878616e+00   -2.2236500549e+02
   -8.0201358795e+00   -2.2457409668e+02
   -8.0998401642e+00   -2.2680393982e+02
   -8.1795578003e+00   -2.2905458069e+02
   -8.2592344284e+00   -2.3132585144e+02
   -8.3390617371e+00   -2.3362138367e+02
   -8.4189138412e+00   -2.3594007874e+02
   -8.4987831116e+00   -2.3828280640e+02
   -8.5786676407e+00   -2.4065029907e+02
   -8.6585607529e+00   -2.4303904724e+02
   -8.7384567261e+00   -2.4545037842e+02
   -8.8183536530e+00   -2.4788371277e+02
   -8.8982152939e+00   -2.5033772278e+02
   -8.9779968262e+00   -2.5281109619e+02
   -9.0578842163e+00   -2.5530656433e+02
   -9.1377658844e+00   -2.5782217407e+02
   -9.2176408768e+00   -2.6035815430e+02
   -9.2975111008e+00   -2.6291546631e+02
   -9.3773765564e+00   -2.6549514771e+02
   -9.4572353363e+00   -2.6809378052e+02
   -9.5370883942e+00   -2.7071301270e+02
   -9.6169090271e+00   -2.7335150146e+02
   -9.6966571808e+00   -2.7600735474e+02
   -9.7765111923e+00   -2.7868249512e+02
   -9.8563671112e+00   -2.8137298584e+02
   -9.9362230301e+00   -2.8407650757e+02
   -1.0016079903e+01   -2.8679089355e+02
   -1.0095932961e+01   -2.8951254272e+02
   -1.0175786972e+01   -2.9223373413e+02
   -1.0255672455e+01   -2.9495562744e+02
   -1.0335515022e+01   -2.9766748047e+02
   -1.0415369987e+01   -3.0036547852e+02
   -1.0495198250e+01   -3.0304333496e+02
   -1.0575065613e+01   -3.0569461060e+02
   -1.0654946327e+01   -3.0831274414e+02
   -1.0734832764e+01   -3.1089099121e+02
   -1.0814684868e+01   -3.1342184448e+02
   -1.0894469261e+01   -3.1589776611e+02
   -1.0974363327e+01   -3.1831460571e+02
   -1.1054256439e+01   -3.2066308594e+02
   -1.1134150505e+01   -3.2293603516e+02
   -1.1214042664e+01   -3.2512728882e+02
   -1.1293929100e+01   -3.2723120117e+02
   -1.1373811722e+01   -3.2924041748e+02
   -1.1453682899e+01   -3.3115307617e+02
   -1.1533500671e+01   -3.3296701050e+02
   -1.1613231659e+01   -3.3468243408e+02
   -1.1693041801e+01   -3.3630401611e+02
   -1.1772820473e+01   -3.3783566284e+02
   -1.1852560043e+01   -3.3928524780e+02
   -1.1932251930e+01   -3.4066381836e+02
   -1.2011890411e+01   -3.4198495483e+02
   -1.2091469765e+01   -3.4326281738e+02
   -1.2170945168e+01   -3.4451574707e+02
   -1.2250284195e+01   -3.4576254272e+02
   -1.2329651833e+01   -3.4702420044e+02
   -1.2408939362e+01   -3.4831936646e+02
   -1.2488130569e+01   -3.4966662598e+02
   -1.2567228317e+01   -3.5108328247e+02
   -1.2646223068e+01   -3.5258389282e+02
   -1.2725110054e+01   -3.5417776489e+02
   -1.2803883553e+01   -3.5587329102e+02
   -1.2882496834e+01   -3.5767327881e+02
   -1.2960921288e+01   -3.5957684326e+02
   -1.3039313316e+01   -3.6158193970e+02
   -1.3117564201e+01   -3.6367993164e+02
   -1.3195668221e+01   -3.6586126709e+02
   -1.3273623466e+01   -3.6811581421e+02
   -1.3351421356e+01   -3.7043286133e+02
   -1.3429049492e+01   -3.7279919434e+02
   -1.3506467819e+01   -3.7520568848e+02
   -1.3583650589e+01   -3.7764465332e+02
   -1.3660748482e+01   -3.8011590576e+02
   -1.3737658501e+01   -3.8260910034e+02
   -1.3814372063e+01   -3.8512332153e+02
   -1.3890874863e+01   -3.8765808105e+02
   -1.3967164993e+01   -3.9021328735e+02
   -1.4043232918e+01   -3.9278604126e+02
   -1.4119071960e+01   -3.9537802124e+02
   -1.4194657326e+01   -3.9798785400e+02
   -1.4269956589e+01   -4.0061355591e+02
   -1.4345032692e+01   -4.0325592041e+02
   -1.4419874191e+01   -4.0590832520e+02
   -1.4494400978e+01   -4.0856185913e+02
   -1.4568689346e+01   -4.1121435547e+02
   -1.4642672539e+01   -4.1385589600e+02
   -1.4716369629e+01   -4.1647796631e+02
   -1.4789766312e+01   -4.1907281494e+02
   -1.4862874031e+01   -4.2163241577e+02
   -1.4935608864e+01   -4.2414654541e+02
   -1.5008041382e+01   -4.2661013794e+02
   -1.5080113411e+01   -4.2901647949e+02
   -1.5151801109e+01   -4.3136059570e+02
   -1.5223182678e+01   -4.3364236450e+02
   -1.5294221878e+01   -4.3585803223e+02
   -1.5364841461e+01   -4.3800585938e+02
   -1.5435109138e+01   -4.4009164429e+02
   -1.5505012512e+01   -4.4211849976e+02
   -1.5574538231e+01   -4.4409097290e+02
   -1.5643597603e+01   -4.4601364136e+02
   -1.5712335587e+01   -4.4789660645e+02
   -1.5780578613e+01   -4.4974340820e+02
   -1.5848418236e+01   -4.5156347656e+02
   -1.5915863991e+01   -4.5336608887e+02
   -1.5982847214e+01   -4.5515411377e+02
   -1.6049345016e+01   -4.5693402100e+02
   -1.6115413666e+01   -4.5871157837e+02
   -1.6181051254e+01   -4.6048815918e+02
   -1.6246227264e+01   -4.6226504517e+02
   -1.6310970306e+01   -4.6404309082e+02
   -1.6375188828e+01   -4.6582156372e+02
   -1.6438899994e+01   -4.6759811401e+02
   -1.6502151489e+01   -4.6937533569e+02
   -1.6564888000e+01   -4.7115222168e+02
   -1.6627174377e+01   -4.7293020630e+02
   -1.6688919067e+01   -4.7471072388e+02
   -1.6750093460e+01   -4.7649624634e+02
   -1.6810838699e+01   -4.7829516602e+02
   -1.6870971680e+01   -4.8011114502e+02
   -1.6930549622e+01   -4.8195428467e+02
   -1.6989645004e+01   -4.8383554077e+02
   -1.7048154831e+01   -4.8576123047e+02
   -1.7106096268e+01   -4.8774172974e+02
   -1.7163457870e+01   -4.8978491211e+02
   -1.7220251083e+01   -4.9189862061e+02
   -1.7276477814e+01   -4.9409008789e+02
   -1.7332145691e+01   -4.9635885620e+02
   -1.7387224197e+01   -4.9870382690e+02
   -1.7441667557e+01   -5.0111694336e+02
   -1.7495561600e+01   -5.0359182739e+02
   -1.7548820496e+01   -5.0611169434e+02
   -1.7601467133e+01   -5.0865948486e+02
   -1.7653551102e+01   -5.1121511841e+02
   -1.7704988480e+01   -5.1375225830e+02
   -1.7755834579e+01   -5.1624957275e+02
   -1.7806035995e+01   -5.1868035889e+02
   -1.7855659485e+01   -5.2102972412e+02
   -1.7904691696e+01   -5.2327880859e+02
   -1.7953020096e+01   -5.2541235352e+02
   -1.8000741959e+01   -5.2743084717e+02
   -1.8047883987e+01   -5.2933416748e+02
   -1.8094360352e+01   -5.3112316895e+02
   -1.8140224457e+01   -5.3280798340e+02
   -1.8185487747e+01   -5.3440148926e+02
   -1.8230087280e+01   -5.3591351318e+02
   -1.8274038315e+01   -5.3735845947e+02
   -1.8317375183e+01   -5.3875408936e+02
   -1.8360050201e+01   -5.4011248779e+02
   -1.8402051926e+01   -5.4144610596e+02
   -1.8443462372e+01   -5.4276934814e+02
   -1.8484231949e+01   -5.4408886719e+02
   -1.8524324417e+01   -5.4541290283e+02
   -1.8563760757e+01   -5.4674896240e+02
   -1.8602586746e+01   -5.4810479736e+02
   -1.8640754700e+01   -5.4948468018e+02
   -1.8678274155e+01   -5.5089581299e+02
   -1.8715156555e+01   -5.5234466553e+02
   -1.8751401901e+01   -5.5383642578e+02
   -1.8786987305e+01   -5.5537396240e+02
   -1.8821924210e+01   -5.5696215820e+02
   -1.8856266022e+01   -5.5860748291e+02
   -1.8889989853e+01   -5.6031280518e+02
   -1.8923048019e+01   -5.6207550049e+02
   -1.8955490112e+01   -5.6389764404e+02
   -1.8987283707e+01   -5.6577673340e+02
   -1.9018449783e+01   -5.6770977783e+02
   -1.9049030304e+01   -5.6969256592e+02
   -1.9078954697e+01   -5.7171374512e+02
   -1.9108280182e+01   -5.7376550293e+02
   -1.9137014389e+01   -5.7583605957e+02
   -1.9165113449e+01   -5.7790899658e+02
   -1.9192613602e+01   -5.7997058105e+02
   -1.9219505310e+01   -5.8200305176e+02
   -1.9245819092e+01   -5.8399359131e+02
   -1.9271518707e+01   -5.8592431641e+02
   -1.9296627045e+01   -5.8778564453e+02
   -1.9321168900e+01   -5.8956890869e+02
   -1.9345115662e+01   -5.9126660156e+02
   -1.9368490219e+01   -5.9287841797e+02
   -1.9391277313e+01   -5.9440460205e+02
   -1.9413505554e+01   -5.9585375977e+02
   -1.9435173035e+01   -5.9723602295e+02
   -1.9456289291e+01   -5.9856378174e+02
   -1.9476850510e+01   -5.9985272217e+02
   -1.9496877670e+01   -6.0112023926e+02
   -1.9516368866e+01   -6.0238183594e+02
   -1.9535337448e+01   -6.0365332031e+02
   -1.9553792953e+01   -6.0494671631e+02
   -1.9571737289e+01   -6.0627142334e+02
   -1.9589164734e+01   -6.0763037109e+02
   -1.9606107712e+01   -6.0902667236e+02
   -1.9622545242e+01   -6.1045239258e+02
   -1.9638500214e+01   -6.1189801025e+02
   -1.9653972626e+01   -6.1334869385e+02
   -1.9668962479e+01   -6.1478771973e+02
   -1.9683490753e+01   -6.1619805908e+02
   -1.9697561264e+01   -6.1755950928e+02
   -1.9711170197e+01   -6.1885339355e+02
   -1.9724323273e+01   -6.2006469727e+02
   -1.9737043381e+01   -6.2118328857e+02
   -1.9749324799e+01   -6.2220184326e+02
   -1.9761169434e+01   -6.2311828613e+02
   -1.9772607803e+01   -6.2393859863e+02
   -1.9783630371e+01   -6.2466961670e+02
   -1.9794240952e+01   -6.2532366943e+02
   -1.9804460526e+01   -6.2591583252e+02
   -1.9814300537e+01   -6.2646209717e+02
   -1.9823764801e+01   -6.2697851562e+02
   -1.9832864761e+01   -6.2748040771e+02
   -1.9841598511e+01   -6.2798077393e+02
   -1.9849977493e+01   -6.2849212646e+02
   -1.9858013153e+01   -6.2902343750e+02
   -1.9865715027e+01   -6.2958184814e+02
   -1.9873090744e+01   -6.3017242432e+02
   -1.9880142212e+01   -6.3079632568e+02
   -1.9886873245e+01   -6.3145343018e+02
   -1.9893297195e+01   -6.3214355469e+02
   -1.9899421692e+01   -6.3286523438e+02
   -1.9905254364e+01   -6.3361584473e+02
   -1.9910806656e+01   -6.3439453125e+02
   -1.9916084290e+01   -6.3519805908e+02
   -1.9921092987e+01   -6.3602496338e+02
   -1.9925849915e+01   -6.3687579346e+02
   -1.9930355072e+01   -6.3774774170e+02
   -1.9934617996e+01   -6.3863916016e+02
   -1.9938644409e+01   -6.3954864502e+02
   -1.9942447662e+01   -6.4047546387e+02
   -1.9946035385e+01   -6.4141583252e+02
   -1.9949407578e+01   -6.4236383057e+02
   -1.9952575684e+01   -6.4331536865e+02
   -1.9955549240e+01   -6.4426538086e+02
   -1.9958339691e+01   -6.4520892334e+02
   -1.9960952759e+01   -6.4613861084e+02
   -1.9963392258e+01   -6.4704852295e+02
   -1.9965671539e+01   -6.4793298340e+02
   -1.9967794418e+01   -6.4878594971e+02
   -1.9969772339e+01   -6.4960388184e+02
   -1.9971611023e+01   -6.5038348389e+02
   -1.9973314285e+01   -6.5112182617e+02
   -1.9974891663e+01   -6.5181793213e+02
   -1.9976346970e+01   -6.5247283936e+02
   -1.9977687836e+01   -6.5308789062e+02
   -1.9978918076e+01   -6.5366552734e+02
   -1.9980043411e+01   -6.5420843506e+02
   -1.9981069565e+01   -6.5472119141e+02
   -1.9982002258e+01   -6.5520758057e+02
   -1.9982843399e+01   -6.5567047119e+02
   -1.9983592987e+01   -6.5611291504e+02
   -1.9984254837e+01   -6.5653692627e+02
   -1.9984828949e+01   -6.5694396973e+02
   -1.9985315323e+01   -6.5733428955e+02
   -1.9985715866e+01   -6.5770593262e+02
   -1.9986036301e+01   -6.5805633545e+02
   -1.9986282349e+01   -6.5838098145e+02
   -1.9986459732e+01   -6.5867425537e+02
   -1.9986577988e+01   -6.5892950439e+02
   -1.9986646652e+01   -6.5914025879e+02
   -1.9986673355e+01   -6.5930053711e+02
   -1.9986667633e+01   -6.5940618896e+02
   -1.9986635208e+01   -6.5945501709e+02
   -1.9986587524e+01   -6.5944750977e+02
   -1.9986524582e+01   -6.5938769531e+02
   -1.9986455917e+01   -6.5928259277e+02
   -1.9986381531e+01   -6.5914270020e+02
   -1.9986309052e+01   -6.5898065186e+02
   -1.9986238480e+01   -6.5881085205e+02
   -1.9986171722e+01   -6.5864874268e+02
   -1.9986110687e+01   -6.5850958252e+02
   -1.9986057281e+01   -6.5840734863e+02
   -1.9986011505e+01   -6.5835443115e+02
   -1.9985973358e+01   -6.5836010742e+02
   -1.9985942841e+01   -6.5843041992e+02
   -1.9985919952e+01   -6.5856823730e+02
   -1.9985904694e+01   -6.5877215576e+02
   -1.9985897064e+01   -6.5903710938e+02
   -1.9985893250e+01   -6.5935583496e+02
   -1.9985898972e+01   -6.5971704102e+02
   -1.9985910416e+01   -6.6010711670e+02
   -1.9985927582e+01   -6.6051159668e+02
   -1.9985952377e+01   -6.6091461182e+02
   -1.9985982895e+01   -6.6129968262e+02
   -1.9986021042e+01   -6.6165148926e+02
   -1.9986066818e+01   -6.6195526123e+02
   -1.9986120224e+01   -6.6219854736e+02
   -1.9986177444e+01   -6.6237084961e+02
   -1.9986240387e+01   -6.6246435547e+02
   -1.9986307144e+01   -6.6247375488e+02
   -1.9986375809e+01   -6.6239709473e+02
   -1.9986444473e+01   -6.6223571777e+02
   -1.9986507416e+01   -6.6199407959e+02
   -1.9986562729e+01   -6.6168005371e+02
   -1.9986604691e+01   -6.6130480957e+02
   -1.9986627579e+01   -6.6088134766e+02
   -1.9986623764e+01   -6.6042401123e+02
   -1.9986589432e+01   -6.5994830322e+02
   -1.9986511230e+01   -6.5946862793e+02
   -1.9986385345e+01   -6.5899865723e+02
   -1.9986200333e+01   -6.5854919434e+02
   -1.9985946655e+01   -6.5812841797e+02
   -1.9985622406e+01   -6.5774096680e+02
   -1.9985219955e+01   -6.5738739014e+02
   -1.9984739304e+01   -6.5706402588e+02
   -1.9984178543e+01   -6.5676251221e+02
   -1.9983537674e+01   -6.5647167969e+02
   -1.9982816696e+01   -6.5617773438e+02
   -1.9982013702e+01   -6.5586450195e+02
   -1.9981130600e+01   -6.5551611328e+02
   -1.9980163574e+01   -6.5511718750e+02
   -1.9979110718e+01   -6.5465411377e+02
   -1.9977964401e+01   -6.5411627197e+02
   -1.9976718903e+01   -6.5349523926e+02
   -1.9975368500e+01   -6.5278613281e+02
   -1.9973903656e+01   -6.5198712158e+02
   -1.9972318649e+01   -6.5110040283e+02
   -1.9970603943e+01   -6.5012988281e+02
   -1.9968753815e+01   -6.4908422852e+02
   -1.9966762543e+01   -6.4797430420e+02
   -1.9964614868e+01   -6.4681335449e+02
   -1.9962306976e+01   -6.4561907959e+02
   -1.9959831238e+01   -6.4440814209e+02
   -1.9957176208e+01   -6.4319934082e+02
   -1.9954332352e+01   -6.4201257324e+02
   -1.9951295853e+01   -6.4086804199e+02
   -1.9948059082e+01   -6.3978491211e+02
   -1.9944614410e+01   -6.3877990723e+02
   -1.9940954208e+01   -6.3786663818e+02
   -1.9937072754e+01   -6.3705700684e+02
   -1.9932964325e+01   -6.3635998535e+02
   -1.9928617477e+01   -6.3577838135e+02
   -1.9924026489e+01   -6.3531176758e+02
   -1.9919189453e+01   -6.3495611572e+02
   -1.9914100647e+01   -6.3470141602e+02
   -1.9908746719e+01   -6.3453356934e+02
   -1.9903125763e+01   -6.3443505859e+02
   -1.9897232056e+01   -6.3438458252e+02
   -1.9891050339e+01   -6.3435778809e+02
   -1.9884574890e+01   -6.3432843018e+02
   -1.9877799988e+01   -6.3426904297e+02
   -1.9870714188e+01   -6.3415197754e+02
   -1.9863309860e+01   -6.3395086670e+02
   -1.9855579376e+01   -6.3364123535e+02
   -1.9847507477e+01   -6.3320184326e+02
   -1.9839086533e+01   -6.3261614990e+02
   -1.9830316544e+01   -6.3187158203e+02
   -1.9821180344e+01   -6.3096105957e+02
   -1.9811681747e+01   -6.2988470459e+02
   -1.9801807404e+01   -6.2864617920e+02
   -1.9791542053e+01   -6.2725561523e+02
   -1.9780883789e+01   -6.2572961426e+02
   -1.9769826889e+01   -6.2408801270e+02
   -1.9758361816e+01   -6.2235693359e+02
   -1.9746488571e+01   -6.2056616211e+02
   -1.9734197617e+01   -6.1874487305e+02
   -1.9721467972e+01   -6.1692120361e+02
   -1.9708292007e+01   -6.1512634277e+02
   -1.9694677353e+01   -6.1339324951e+02
   -1.9680603027e+01   -6.1174560547e+02
   -1.9666070938e+01   -6.1020648193e+02
   -1.9651062012e+01   -6.0879156494e+02
   -1.9635566711e+01   -6.0751116943e+02
   -1.9619588852e+01   -6.0636901855e+02
   -1.9603120804e+01   -6.0536065674e+02
   -1.9586141586e+01   -6.0447277832e+02
   -1.9568651199e+01   -6.0368780518e+02
   -1.9550645828e+01   -6.0298010254e+02
   -1.9532110214e+01   -6.0232006836e+02
   -1.9513050079e+01   -6.0167504883e+02
   -1.9493457794e+01   -6.0101013184e+02
   -1.9473329544e+01   -6.0029119873e+02
   -1.9452676773e+01   -5.9948657227e+02
   -1.9431467056e+01   -5.9856665039e+02
   -1.9409696579e+01   -5.9750842285e+02
   -1.9387384415e+01   -5.9629498291e+02
   -1.9364524841e+01   -5.9491552734e+02
   -1.9341087341e+01   -5.9336322021e+02
   -1.9317071915e+01   -5.9164044189e+02
   -1.9292493820e+01   -5.8975683594e+02
   -1.9267360687e+01   -5.8772814941e+02
   -1.9241634369e+01   -5.8557403564e+02
   -1.9215293884e+01   -5.8332025146e+02
   -1.9188341141e+01   -5.8099645996e+02
   -1.9160806656e+01   -5.7863781738e+02
   -1.9132667542e+01   -5.7627923584e+02
   -1.9103902817e+01   -5.7395367432e+02
   -1.9074556351e+01   -5.7169439697e+02
   -1.9044586182e+01   -5.6952685547e+02
   -1.9013959885e+01   -5.6747558594e+02
   -1.8982717514e+01   -5.6556256104e+02
   -1.8950889587e+01   -5.6379809570e+02
   -1.8918407440e+01   -5.6218353271e+02
   -1.8885280609e+01   -5.6071893311e+02
   -1.8851539612e+01   -5.5939752197e+02
   -1.8817152023e+01   -5.5820208740e+02
   -1.8782125473e+01   -5.5711322021e+02
   -1.8746471405e+01   -5.5610601807e+02
   -1.8710187912e+01   -5.5515045166e+02
   -1.8673273087e+01   -5.5421453857e+02
   -1.8635711670e+01   -5.5326300049e+02
   -1.8597501755e+01   -5.5226043701e+02
   -1.8558633804e+01   -5.5117498779e+02
   -1.8519159317e+01   -5.4997680664e+02
   -1.8479064941e+01   -5.4864062500e+02
   -1.8438310623e+01   -5.4714514160e+02
   -1.8396886826e+01   -5.4547467041e+02
   -1.8354837418e+01   -5.4362371826e+02
   -1.8312149048e+01   -5.4159240723e+02
   -1.8268848419e+01   -5.3938848877e+02
   -1.8224908829e+01   -5.3702374268e+02
   -1.8180286407e+01   -5.3451550293e+02
   -1.8135057449e+01   -5.3189093018e+02
   -1.8089166641e+01   -5.2917681885e+02
   -1.8042663574e+01   -5.2640753174e+02
   -1.7995519638e+01   -5.2361383057e+02
   -1.7947734833e+01   -5.2082775879e+02
   -1.7899305344e+01   -5.1808105469e+02
   -1.7850271225e+01   -5.1540783691e+02
   -1.7800638199e+01   -5.1283331299e+02
   -1.7750345230e+01   -5.1037295532e+02
   -1.7699441910e+01   -5.0804553223e+02
   -1.7647937775e+01   -5.0585781860e+02
   -1.7595785141e+01   -5.0380828857e+02
   -1.7543029785e+01   -5.0189276123e+02
   -1.7489677429e+01   -5.0010122681e+02
   -1.7435764313e+01   -4.9841580200e+02
   -1.7381252289e+01   -4.9681390381e+02
   -1.7326147079e+01   -4.9527038574e+02
   -1.7270458221e+01   -4.9375817871e+02
   -1.7214208603e+01   -4.9225119019e+02
   -1.7157413483e+01   -4.9072183228e+02
   -1.7100004196e+01   -4.8914553833e+02
   -1.7041999817e+01   -4.8750003052e+02
   -1.6983470917e+01   -4.8576882935e+02
   -1.6924415588e+01   -4.8393997192e+02
   -1.6864757538e+01   -4.8200173950e+02
   -1.6804594040e+01   -4.7995263672e+02
   -1.6743898392e+01   -4.7779559326e+02
   -1.6682723999e+01   -4.7553820801e+02
   -1.6621000290e+01   -4.7318963623e+02
   -1.6558723450e+01   -4.7076443481e+02
   -1.6495931625e+01   -4.6827911377e+02
   -1.6432689667e+01   -4.6575735474e+02
   -1.6368993759e+01   -4.6321807861e+02
   -1.6304725647e+01   -4.6068106079e+02
   -1.6240028381e+01   -4.5817324829e+02
   -1.6174860001e+01   -4.5571243286e+02
   -1.6109151840e+01   -4.5331466675e+02
   -1.6043050766e+01   -4.5100051880e+02
   -1.5976523399e+01   -4.4878079224e+02
   -1.5909500122e+01   -4.4666387939e+02
   -1.5842005730e+01   -4.4465335083e+02
   -1.5774171829e+01   -4.4275161743e+02
   -1.5705893517e+01   -4.4095104980e+02
   -1.5637119293e+01   -4.3924035645e+02
   -1.5567958832e+01   -4.3760864258e+02
   -1.5498422623e+01   -4.3603808594e+02
   -1.5428496361e+01   -4.3451034546e+02
   -1.5358194351e+01   -4.3300460815e+02
   -1.5287519455e+01   -4.3149517822e+02
   -1.5216465950e+01   -4.2995739746e+02
   -1.5145039558e+01   -4.2836676025e+02
   -1.5073234558e+01   -4.2669921875e+02
   -1.5001083374e+01   -4.2493267822e+02
   -1.4928653717e+01   -4.2304827881e+02
   -1.4855873108e+01   -4.2103149414e+02
   -1.4782721519e+01   -4.1887289429e+02
   -1.4709327698e+01   -4.1657064819e+02
   -1.4635611534e+01   -4.1412304688e+02
   -1.4561629295e+01   -4.1154254150e+02
   -1.4487346649e+01   -4.0884057617e+02
   -1.4412730217e+01   -4.0603234863e+02
   -1.4337864876e+01   -4.0314340210e+02
   -1.4262716293e+01   -4.0019607544e+02
   -1.4187358856e+01   -3.9722116089e+02
   -1.4111755371e+01   -3.9424072266e+02
   -1.4035931587e+01   -3.9128634644e+02
   -1.3959897041e+01   -3.8838171387e+02
   -1.3883569717e+01   -3.8554800415e+02
   -1.3807064056e+01   -3.8281213379e+02
   -1.3730353355e+01   -3.8018753052e+02
   -1.3653443336e+01   -3.7768545532e+02
   -1.3576293945e+01   -3.7531137085e+02
   -1.3498997688e+01   -3.7306881714e+02
   -1.3421549797e+01   -3.7095401001e+02
   -1.3343976974e+01   -3.6895538330e+02
   -1.3266098022e+01   -3.6705386353e+02
   -1.3188189507e+01   -3.6523864746e+02
   -1.3110027313e+01   -3.6348153687e+02
   -1.3031796455e+01   -3.6176364136e+02
   -1.2953379631e+01   -3.6005834961e+02
   -1.2874846458e+01   -3.5834295654e+02
   -1.2796295166e+01   -3.5659667969e+02
   -1.2717520714e+01   -3.5479669189e+02
   -1.2638591766e+01   -3.5292449951e+02
   -1.2559670448e+01   -3.5097058105e+02
   -1.2480558395e+01   -3.4892187500e+02
   -1.2401425362e+01   -3.4677731323e+02
   -1.2322119713e+01   -3.4453308105e+02
   -1.2242740631e+01   -3.4219561768e+02
   -1.2163394928e+01   -3.3977517700e+02
   -1.2083877563e+01   -3.3727783203e+02
   -1.2004323006e+01   -3.3472210693e+02
   -1.1924700737e+01   -3.3212023926e+02
   -1.1844977379e+01   -3.2948580933e+02
   -1.1765267372e+01   -3.2684039307e+02
   -1.1685511589e+01   -3.2419592285e+02
   -1.1605671883e+01   -3.2156433105e+02
   -1.1525797844e+01   -3.1896170044e+02
   -1.1445917130e+01   -3.1639700317e+02
   -1.1366090775e+01   -3.1387811279e+02
   -1.1286115646e+01   -3.1140408325e+02
   -1.1206171036e+01   -3.0898101807e+02
   -1.1126135826e+01   -3.0660241699e+02
   -1.1046129227e+01   -3.0426693726e+02
   -1.0966081619e+01   -3.0196899414e+02
   -1.0886036873e+01   -2.9970101929e+02
   -1.0805981636e+01   -2.9745529175e+02
   -1.0725938797e+01   -2.9522387695e+02
   -1.0645923615e+01   -2.9300009155e+02
   -1.0565750122e+01   -2.9077215576e+02
   -1.0485676765e+01   -2.8853799438e+02
   -1.0405480385e+01   -2.8628738403e+02
   -1.0325378418e+01   -2.8401965332e+02
   -1.0245227814e+01   -2.8172821045e+02
   -1.0165001869e+01   -2.7940887451e+02
   -1.0084825516e+01   -2.7706582642e+02
   -1.0004562378e+01   -2.7469467163e+02
   -9.9243440628e+00   -2.7229876709e+02
   -9.8442249298e+00   -2.6988824463e+02
   -9.7640810013e+00   -2.6746105957e+02
   -9.6839170456e+00   -2.6502371216e+02
   -9.6037502289e+00   -2.6258410645e+02
   -9.5235548019e+00   -2.6014721680e+02
   -9.4434795380e+00   -2.5772503662e+02
   -9.3633975983e+00   -2.5532090759e+02
   -9.2833080292e+00   -2.5293939209e+02
   -9.2032299042e+00   -2.5058955383e+02
   -9.1232233047e+00   -2.4827687073e+02
   -9.0432004929e+00   -2.4600042725e+02
   -8.9631643295e+00   -2.4376045227e+02
   -8.8831577301e+00   -2.4156004333e+02
   -8.8031873703e+00   -2.3939659119e+02
   -8.7232646942e+00   -2.3726808167e+02
   -8.6432619095e+00   -2.3516598511e+02
   -8.5633649826e+00   -2.3308917236e+02
   -8.4834833145e+00   -2.3103318787e+02
   -8.4036064148e+00   -2.2899351501e+02
   -8.3237791061e+00   -2.2696697998e+02
   -8.2439270020e+00   -2.2494949341e+02
   -8.1642551422e+00   -2.2294548035e+02
   -8.0845756531e+00   -2.2094920349e+02
   -8.0048580170e+00   -2.1896099854e+02
   -7.9252176285e+00   -2.1698516846e+02
   -7.8457207680e+00   -2.1502796936e+02
   -7.7662281990e+00   -2.1308786011e+02
   -7.6868968010e+00   -2.1117408752e+02
   -7.6075234413e+00   -2.0928201294e+02
   -7.5283398628e+00   -2.0742214966e+02
   -7.4491877556e+00   -2.0559423828e+02
   -7.3701725006e+00   -2.0380029297e+02
   -7.2911581993e+00   -2.0204072571e+02
   -7.2123579979e+00   -2.0031959534e+02
   -7.1336050034e+00   -1.9863215637e+02
   -7.0550117493e+00   -1.9697889709e+02
   -6.9765467644e+00   -1.9535662842e+02
   -6.8982658386e+00   -1.9376193237e+02
   -6.8199958801e+00   -1.9218600464e+02
   -6.7420282364e+00   -1.9062649536e+02
   -6.6640815735e+00   -1.8907283020e+02
   -6.5863008499e+00   -1.8752047729e+02
   -6.5088338852e+00   -1.8596514893e+02
   -6.4314231873e+00   -1.8439540100e+02
   -6.3542280197e+00   -1.8280970764e+02
   -6.2772192955e+00   -1.8120426941e+02
   -6.2003731728e+00   -1.7957620239e+02
   -6.1237297058e+00   -1.7792407227e+02
   -6.0472717285e+00   -1.7624624634e+02
   -5.9710912704e+00   -1.7454574585e+02
   -5.8951129913e+00   -1.7282336426e+02
   -5.8194785118e+00   -1.7108273315e+02
   -5.7439384460e+00   -1.6932379150e+02
   -5.6687269211e+00   -1.6755555725e+02
   -5.5937590599e+00   -1.6577891541e+02
   -5.5190734863e+00   -1.6400283813e+02
   -5.4446377754e+00   -1.6222935486e+02
   -5.3704490662e+00   -1.6046194458e+02
   -5.2965903282e+00   -1.5870791626e+02
   -5.2229914665e+00   -1.5696961975e+02
   -5.1497859955e+00   -1.5525500488e+02
   -5.0768699646e+00   -1.5356507874e+02
   -5.0042467117e+00   -1.5190484619e+02
   -4.9319558144e+00   -1.5027949524e+02
   -4.8600449562e+00   -1.4869523621e+02
   -4.7884469032e+00   -1.4715422058e+02
   -4.7171988487e+00   -1.4566137695e+02
   -4.6462631226e+00   -1.4421955872e+02
   -4.5757966042e+00   -1.4283520508e+02
   -4.5056786537e+00   -1.4150708008e+02
   -4.4358878136e+00   -1.4023843384e+02
   -4.3666028976e+00   -1.3902886963e+02
   -4.2976193428e+00   -1.3787193298e+02
   -4.2290911674e+00   -1.3676365662e+02
   -4.1610441208e+00   -1.3569580078e+02
   -4.0933146477e+00   -1.3465478516e+02
   -4.0260987282e+00   -1.3363081360e+02
   -3.9593143463e+00   -1.3260826111e+02
   -3.8929591179e+00   -1.3157316589e+02
   -3.8270328045e+00   -1.3051107788e+02
   -3.7615778446e+00   -1.2941061401e+02
   -3.6966335773e+00   -1.2825997925e+02
   -3.6321542263e+00   -1.2705092621e+02
   -3.5680944920e+00   -1.2577336884e+02
   -3.5045869350e+00   -1.2442961121e+02
   -3.4415524006e+00   -1.2301558685e+02
   -3.3790943623e+00   -1.2153785706e+02
   -3.3171238899e+00   -1.2000131989e+02
   -3.2555625439e+00   -1.1841071320e+02
   -3.1946499348e+00   -1.1678509521e+02
   -3.1342308521e+00   -1.1513516235e+02
   -3.0743515491e+00   -1.1347794342e+02
   -3.0150184631e+00   -1.1183197784e+02
   -2.9562079906e+00   -1.1021584320e+02
   -2.8979403973e+00   -1.0864597321e+02
   -2.8403277397e+00   -1.0714333344e+02
   -2.7831847668e+00   -1.0571477509e+02
   -2.7266426086e+00   -1.0437493134e+02
   -2.6706714630e+00   -1.0313090515e+02
   -2.6152856350e+00   -1.0198584747e+02
   -2.5605218410e+00   -1.0093949890e+02
   -2.5062389374e+00   -9.9983673096e+01
   -2.4526658058e+00   -9.9114051819e+01
   -2.3996703625e+00   -9.8316337585e+01
   -2.3472723961e+00   -9.7576622009e+01
   -2.2954342365e+00   -9.6879386902e+01
   -2.2442018986e+00   -9.6207977295e+01
   -2.1936695576e+00   -9.5547920227e+01
   -2.1436865330e+00   -9.4882087708e+01
   -2.0943577290e+00   -9.4195808411e+01
   -2.0456209183e+00   -9.3475494385e+01
   -1.9975001812e+00   -9.2709274292e+01
   -1.9500195980e+00   -9.1889953613e+01
   -1.9031864405e+00   -9.1011604309e+01
   -1.8569637537e+00   -9.0071121216e+01
   -1.8114371300e+00   -8.9068916321e+01
   -1.7664499283e+00   -8.8004257202e+01
   -1.7221459150e+00   -8.6883178711e+01
   -1.6784906387e+00   -8.5710899353e+01
   -1.6355037689e+00   -8.4495704651e+01
   -1.5931224823e+00   -8.3244300842e+01
   -1.5513660908e+00   -8.1966026306e+01
   -1.5102618933e+00   -8.0673347473e+01
   -1.4698396921e+00   -7.9377128601e+01
   -1.4300363064e+00   -7.8085372925e+01
   -1.3908298016e+00   -7.6806938171e+01
   -1.3523398638e+00   -7.5553146362e+01
   -1.3144221306e+00   -7.4326301575e+01
   -1.2772116661e+00   -7.3134132385e+01
   -1.2405787706e+00   -7.1975227356e+01
   -1.2046066523e+00   -7.0852539062e+01
   -1.1692818403e+00   -6.9764312744e+01
   -1.1345846653e+00   -6.8707420349e+01
   -1.1005800962e+00   -6.7682472229e+01
   -1.0671164989e+00   -6.6680084229e+01
   -1.0343725681e+00   -6.5702163696e+01
   -1.0021765232e+00   -6.4738784790e+01
   -9.7064191103e-01   -6.3788516998e+01
   -9.3971192837e-01   -6.2847404480e+01
   -9.0944474936e-01   -6.1916213989e+01
   -8.7979602814e-01   -6.0992698669e+01
   -8.5072696209e-01   -6.0074081421e+01
   -8.2227474451e-01   -5.9162906647e+01
   -7.9442381859e-01   -5.8256389618e+01
   -7.6719820499e-01   -5.7357055664e+01
   -7.4055480957e-01   -5.6465827942e+01
   -7.1452593803e-01   -5.5585647583e+01
   -6.8905067444e-01   -5.4717308044e+01
   -6.6420900822e-01   -5.3866458893e+01
   -6.3991808891e-01   -5.3032905579e+01
   -6.1620354652e-01   -5.2220825195e+01
   -5.9305405617e-01   -5.1430686951e+01
   -5.7049298286e-01   -5.0664611816e+01
   -5.4851359129e-01   -4.9923034668e+01
   -5.2705603838e-01   -4.9201061249e+01
   -5.0614261627e-01   -4.8497123718e+01
   -4.8580506444e-01   -4.7807823181e+01
   -4.6599811316e-01   -4.7125823975e+01
   -4.4670528173e-01   -4.6445709229e+01
   -4.2796111107e-01   -4.5761760712e+01
   -4.0971794724e-01   -4.5067802429e+01
   -3.9199313521e-01   -4.4359550476e+01
   -3.7478974462e-01   -4.3632160187e+01
   -3.5808563232e-01   -4.2880287170e+01
   -3.4185028076e-01   -4.2097194672e+01
   -3.2612460852e-01   -4.1282543182e+01
   -3.1087276340e-01   -4.0430255890e+01
   -2.9610550404e-01   -3.9538665771e+01
   -2.8178089857e-01   -3.8607120514e+01
   -2.6794421673e-01   -3.7640777588e+01
   -2.5454014540e-01   -3.6642765045e+01
   -2.4156545103e-01   -3.5620285034e+01
   -2.2904871404e-01   -3.4584526062e+01
   -2.1695119143e-01   -3.3544906616e+01
   -2.0527631044e-01   -3.2511684418e+01
   -1.9402517378e-01   -3.1494991302e+01
   -1.8316833675e-01   -3.0503950119e+01
   -1.7271852493e-01   -2.9547599792e+01
   -1.6265806556e-01   -2.8631193161e+01
   -1.5296389163e-01   -2.7760789871e+01
   -1.4365866780e-01   -2.6944263458e+01
   -1.3471688330e-01   -2.6183830261e+01
   -1.2612144649e-01   -2.5482654572e+01
   -1.1788823456e-01   -2.4844226837e+01
   -1.0998220742e-01   -2.4265680313e+01
   -1.0242164135e-01   -2.3748424530e+01
   -9.5190271735e-02   -2.3287158966e+01
   -8.8272973895e-02   -2.2875696182e+01
   -8.1656455994e-02   -2.2506687164e+01
   -7.5344525278e-02   -2.2172019958e+01
   -6.9332882762e-02   -2.1861724854e+01
   -6.3600070775e-02   -2.1564109802e+01
   -5.8147694916e-02   -2.1269071579e+01
   -5.2958302200e-02   -2.0964584351e+01
   -4.8029735684e-02   -2.0641279221e+01
   -4.3362453580e-02   -2.0290513992e+01
   -3.8929149508e-02   -1.9903488159e+01
   -3.4742578864e-02   -1.9476213455e+01
   -3.0785610899e-02   -1.9003545761e+01
   -2.7041321620e-02   -1.8481351852e+01
   -2.3518165573e-02   -1.7911386490e+01
   -2.0201791078e-02   -1.7293136597e+01
   -1.7080605030e-02   -1.6627889633e+01
   -1.4152407646e-02   -1.5921721458e+01
   -1.1409588158e-02   -1.5180859566e+01
   -8.8412268087e-03   -1.4411456108e+01
   -6.4398110844e-03   -1.3622021675e+01
   -4.2041996494e-03   -1.2823830605e+01
   -2.1220131312e-03   -1.2025602341e+01
   -1.9054324366e-04   -1.1239396095e+01
    1.5991166001e-03   -1.0472419739e+01
    3.2546450384e-03   -9.7343368530e+00
    4.7838268802e-03   -9.0303125381e+00
    6.1902515590e-03   -8.3671770096e+00
    7.4788965285e-03   -7.7498612404e+00
    8.6601218209e-03   -7.1785941124e+00
    9.7385654226e-03   -6.6539664268e+00
    1.0718217120e-02   -6.1766161919e+00
    1.1606886052e-02   -5.7446937561e+00
    1.2408853509e-02   -5.3560652733e+00
    1.3130010106e-02   -5.0084471703e+00
    1.3776595704e-02   -4.6980404854e+00
    1.4354057610e-02   -4.4214868546e+00
    1.4865542762e-02   -4.1755990982e+00
    1.5316120349e-02   -3.9566202164e+00
    1.5712216496e-02   -3.7595047951e+00
    1.6057653353e-02   -3.5808501244e+00
    1.6355786473e-02   -3.4170675278e+00
    1.6611794010e-02   -3.2640075684e+00
    1.6829887405e-02   -3.1185107231e+00
    1.7012871802e-02   -2.9784891605e+00
    1.7165595666e-02   -2.8416914940e+00
    1.7290771008e-02   -2.7077338696e+00
    1.7391815782e-02   -2.5766670704e+00
    1.7472203821e-02   -2.4490196705e+00
    1.7534704879e-02   -2.3255662918e+00
    1.7582053319e-02   -2.2078368664e+00
    1.7616812140e-02   -2.0969111919e+00
    1.7641231418e-02   -1.9944742918e+00
    1.7657507211e-02   -1.9015605450e+00
    1.7667548731e-02   -1.8194383383e+00
    1.7673008144e-02   -1.7489271164e+00
    1.7675330862e-02   -1.6904573441e+00
    1.7675712705e-02   -1.6443595886e+00
    1.7675116658e-02   -1.6102138758e+00
    1.7674241215e-02   -1.5873939991e+00
    1.7673533410e-02   -1.5744208097e+00
    1.7673173919e-02   -1.5689803362e+00
    1.7673086375e-02   -1.5677974224e+00
endcurve
