Curveplot
LS-DYNA keyword deck by LS-PrePost
Time
Yrot-displ
Rigid Body Ids
300001 #pts=1800
* Minval=    -1.6152406311e+02 at time=       109.9987030029
* Maxval=     2.5596518535e-03 at time=         9.7998275757
    0.0000000000e+00   -1.0424811592e-07
    9.9978476763e-02   -1.0886530077e-07
    1.9995699823e-01   -1.0919288229e-07
    2.9993548989e-01   -1.0392253813e-07
    3.9991390705e-01   -9.1644132283e-08
    4.9998739362e-01   -7.0888660275e-08
    5.9996491671e-01   -4.0187149608e-08
    6.9994342327e-01    1.8528182322e-09
    7.9999452829e-01    5.6451874286e-08
    8.9990448952e-01    1.2454439968e-07
    9.9994838238e-01    2.0664512590e-07
    1.0999029875e+00    3.0269762874e-07
    1.1999679804e+00    4.1190679667e-07
    1.2999260426e+00    5.3255848798e-07
    1.3999700546e+00    6.6183321223e-07
    1.4999599457e+00    7.9562391875e-07
    1.5998389721e+00    9.2838132559e-07
    1.6998690367e+00    1.0530172858e-06
    1.7998139858e+00    1.1608801742e-06
    1.8999129534e+00    1.2417893913e-06
    1.9999510050e+00    1.2841261423e-06
    2.0999290943e+00    1.2750058431e-06
    2.1998629570e+00    1.2005673398e-06
    2.2998418808e+00    1.0463962781e-06
    2.3999559879e+00    7.9810428133e-07
    2.4998519421e+00    4.4207786232e-07
    2.5998070240e+00   -3.3592947091e-08
    2.6999928951e+00   -6.3798938754e-07
    2.7999091148e+00   -1.3760206912e-06
    2.8998870850e+00   -2.2468450425e-06
    2.9999139309e+00   -3.2420527987e-06
    3.0998740196e+00   -4.3436493797e-06
    3.1998529434e+00   -5.5219416026e-06
    3.2998220921e+00   -6.7334699452e-06
    3.3998670578e+00   -7.9191777331e-06
    3.4998309612e+00   -9.0029798230e-06
    3.5999910831e+00   -9.8909013104e-06
    3.6998810768e+00   -1.0470867892e-05
    3.7999711037e+00   -1.0613215636e-05
    3.8998520374e+00   -1.0171918802e-05
    3.9999840260e+00   -8.9864943220e-06
    4.0998539925e+00   -6.8845283749e-06
    4.1998782158e+00   -3.6846768126e-06
    4.2998700142e+00    7.9996669911e-07
    4.3998970985e+00    6.7582845986e-06
    4.4999279976e+00    1.4377463231e-05
    4.5998930931e+00    2.3839362257e-05
    4.6998720169e+00    3.5317047150e-05
    4.7998352051e+00    4.8971589422e-05
    4.8999948502e+00    6.4949235821e-05
    4.9999771118e+00    8.3379010903e-05
    5.0999560356e+00    1.0437078890e-04
    5.1999340057e+00    1.2801382400e-04
    5.2999238968e+00    1.5437579714e-04
    5.3998332024e+00    1.8350215396e-04
    5.4999928474e+00    2.1541604656e-04
    5.5999708176e+00    2.5011849357e-04
    5.6999502182e+00    2.8758897679e-04
    5.7999730110e+00    3.2778648892e-04
    5.8999509811e+00    3.7065061042e-04
    5.9999289513e+00    4.1610299377e-04
    6.0999069214e+00    4.6404899331e-04
    6.1998839378e+00    5.1437952789e-04
    6.2998619080e+00    5.6697300170e-04
    6.3998479843e+00    6.2169763260e-04
    6.4998149872e+00    6.7841314012e-04
    6.5999298096e+00    7.3697348125e-04
    6.6998968124e+00    7.9722871305e-04
    6.7999448776e+00    8.5902702995e-04
    6.8998289108e+00    9.2221685918e-04
    6.9999079704e+00    9.8664814141e-04
    7.0999522209e+00    1.0521737859e-03
    7.1999421120e+00    1.1186504271e-03
    7.2999739647e+00    1.1859390652e-03
    7.3998408318e+00    1.2539053569e-03
    7.4999589920e+00    1.3224185677e-03
    7.5998449326e+00    1.3913507573e-03
    7.6999921799e+00    1.4605750330e-03
    7.7998671532e+00    1.5299627557e-03
    7.8998341560e+00    1.5993800480e-03
    7.9999809265e+00    1.6686836025e-03
    8.0999031067e+00    1.7377163749e-03
    8.1998500824e+00    1.8063019961e-03
    8.2999200821e+00    1.8742397660e-03
    8.3998069763e+00    1.9412994152e-03
    8.4998331070e+00    2.0072155166e-03
    8.5999107361e+00    2.0716832951e-03
    8.6998434067e+00    2.1343547851e-03
    8.7998981476e+00    2.1948351059e-03
    8.8998765945e+00    2.2526814137e-03
    8.9998083115e+00    2.3074015044e-03
    9.0999422073e+00    2.3584549781e-03
    9.1998395920e+00    2.4052560329e-03
    9.2998743057e+00    2.4471767247e-03
    9.3999881744e+00    2.4835537188e-03
    9.4998445511e+00    2.5136971381e-03
    9.5999822617e+00    2.5368996430e-03
    9.6998243332e+00    2.5524504017e-03
    9.7998275757e+00    2.5596518535e-03
    9.8998842239e+00    2.5578369386e-03
    9.9998874664e+00    2.5463933125e-03
    1.0099820137e+01    2.5247891899e-03
    1.0199890137e+01    2.4926019832e-03
    1.0299929619e+01    2.4495532271e-03
    1.0399939537e+01    2.3955430370e-03
    1.0500000000e+01    2.3306892253e-03
    1.0599860191e+01    2.2553664166e-03
    1.0699970245e+01    2.1702439990e-03
    1.0799830437e+01    2.0763231441e-03
    1.0899979591e+01    1.9749656785e-03
    1.0999890327e+01    1.8679174827e-03
    1.1099869728e+01    1.7573173391e-03
    1.1199979782e+01    1.6456897138e-03
    1.1299860001e+01    1.5359158861e-03
    1.1399860382e+01    1.4311793493e-03
    1.1499910355e+01    1.3348779175e-03
    1.1599849701e+01    1.2504999759e-03
    1.1699830055e+01    1.1814577738e-03
    1.1799889565e+01    1.1308748508e-03
    1.1899959564e+01    1.1013249168e-03
    1.1999970436e+01    1.0945192771e-03
    1.2099969864e+01    1.1109450134e-03
    1.2199950218e+01    1.1494585779e-03
    1.2299980164e+01    1.2068403885e-03
    1.2399999619e+01    1.2773239287e-03
    1.2500000000e+01    1.3521149522e-03
    1.2599840164e+01    1.4189240756e-03
    1.2699979782e+01    1.4615396503e-03
    1.2799949646e+01    1.4594767708e-03
    1.2899979591e+01    1.3877425808e-03
    1.2999910355e+01    1.2167650275e-03
    1.3099940300e+01    9.1253936989e-04
    1.3199859619e+01    4.3704806012e-04
    1.3299900055e+01   -2.5098244078e-04
    1.3399900436e+01   -1.1949369218e-03
    1.3499870300e+01   -2.4387584999e-03
    1.3599989891e+01   -4.0250429884e-03
    1.3699859619e+01   -5.9929154813e-03
    1.3799889565e+01   -8.3758896217e-03
    1.3899999619e+01   -1.1199925095e-02
    1.3999859810e+01   -1.4481909573e-02
    1.4099969864e+01   -1.8228711560e-02
    1.4199979782e+01   -2.2436901927e-02
    1.4299900055e+01   -2.7093194425e-02
    1.4399990082e+01   -3.2175511122e-02
    1.4499859810e+01   -3.7654552609e-02
    1.4599960327e+01   -4.3495677412e-02
    1.4699859619e+01   -4.9660861492e-02
    1.4799900055e+01   -5.6110542268e-02
    1.4899950027e+01   -6.2805235386e-02
    1.4999970436e+01   -6.9706805050e-02
    1.5099880219e+01   -7.6779440045e-02
    1.5199850082e+01   -8.3990305662e-02
    1.5299909592e+01   -9.1309882700e-02
    1.5399959564e+01   -9.8712131381e-02
    1.5499979973e+01   -1.0617446899e-01
    1.5599869728e+01   -1.1367763579e-01
    1.5699970245e+01   -1.2120553851e-01
    1.5799909592e+01   -1.2874494493e-01
    1.5899829865e+01   -1.3628537953e-01
    1.5999990463e+01   -1.4381881058e-01
    1.6099969864e+01   -1.5133965015e-01
    1.6200000763e+01   -1.5884461999e-01
    1.6299959183e+01   -1.6633282602e-01
    1.6399950027e+01   -1.7380583286e-01
    1.6499969482e+01   -1.8126790226e-01
    1.6599910736e+01   -1.8872618675e-01
    1.6699899673e+01   -1.9619098306e-01
    1.6799989700e+01   -2.0367607474e-01
    1.6899879456e+01   -2.1119897068e-01
    1.6999839783e+01   -2.1878115833e-01
    1.7099960327e+01   -2.2644816339e-01
    1.7199930191e+01   -2.3422950506e-01
    1.7299930573e+01   -2.4215851724e-01
    1.7399959564e+01   -2.5027176738e-01
    1.7499980927e+01   -2.5860831141e-01
    1.7599920273e+01   -2.6720842719e-01
    1.7700000763e+01   -2.7611228824e-01
    1.7800020218e+01   -2.8535807133e-01
    1.7899900436e+01   -2.9498025775e-01
    1.7999929428e+01   -3.0500772595e-01
    1.8099990845e+01   -3.1546211243e-01
    1.8199989319e+01   -3.2635664940e-01
    1.8299860001e+01   -3.3769536018e-01
    1.8400009155e+01   -3.4947279096e-01
    1.8500000000e+01   -3.6167442799e-01
    1.8599910736e+01   -3.7427756190e-01
    1.8700010300e+01   -3.8725274801e-01
    1.8799949646e+01   -4.0056547523e-01
    1.8900009155e+01   -4.1417804360e-01
    1.8999940872e+01   -4.2805153131e-01
    1.9099990845e+01   -4.4214755297e-01
    1.9199880600e+01   -4.5642986894e-01
    1.9299959183e+01   -4.7086575627e-01
    1.9400039673e+01   -4.8542714119e-01
    1.9499980927e+01   -5.0009149313e-01
    1.9599870682e+01   -5.1484256983e-01
    1.9700000763e+01   -5.2967065573e-01
    1.9799980164e+01   -5.4457288980e-01
    1.9900020599e+01   -5.5955338478e-01
    2.0000000000e+01   -5.7462310791e-01
    2.0099859238e+01   -5.8979958296e-01
    2.0199989319e+01   -6.0510671139e-01
    2.0299919128e+01   -6.2057381868e-01
    2.0399990082e+01   -6.3623481989e-01
    2.0499950409e+01   -6.5212738514e-01
    2.0600030899e+01   -6.6829138994e-01
    2.0699859619e+01   -6.8476742506e-01
    2.0799980164e+01   -7.0159524679e-01
    2.0900039673e+01   -7.1881181002e-01
    2.0999980927e+01   -7.3644983768e-01
    2.1099910736e+01   -7.5453585386e-01
    2.1199880600e+01   -7.7308923006e-01
    2.1299940109e+01   -7.9212135077e-01
    2.1400009155e+01   -8.1163465977e-01
    2.1499959946e+01   -8.3162343502e-01
    2.1600040436e+01   -8.5207396746e-01
    2.1699939728e+01   -8.7296593189e-01
    2.1800010681e+01   -8.9427405596e-01
    2.1899909973e+01   -9.1596990824e-01
    2.1999990463e+01   -9.3802368641e-01
    2.2099969864e+01   -9.6040666103e-01
    2.2200019836e+01   -9.8309278488e-01
    2.2299949646e+01   -1.0060604811e+00
    2.2400009155e+01   -1.0292942524e+00
    2.2500040054e+01   -1.0527857542e+00
    2.2599950790e+01   -1.0765342712e+00
    2.2700040817e+01   -1.1005476713e+00
    2.2799970627e+01   -1.1248421669e+00
    2.2899909973e+01   -1.1494417191e+00
    2.2999969482e+01   -1.1743775606e+00
    2.3099969864e+01   -1.1996867657e+00
    2.3199880600e+01   -1.2254111767e+00
    2.3299890518e+01   -1.2515957355e+00
    2.3399879456e+01   -1.2782862186e+00
    2.3499969482e+01   -1.3055276871e+00
    2.3599899292e+01   -1.3333617449e+00
    2.3699939728e+01   -1.3618255854e+00
    2.3799989700e+01   -1.3909494877e+00
    2.3899929047e+01   -1.4207563400e+00
    2.3999919891e+01   -1.4512605667e+00
    2.4099939346e+01   -1.4824672937e+00
    2.4199979782e+01   -1.5143731833e+00
    2.4299989700e+01   -1.5469666719e+00
    2.4399919510e+01   -1.5802295208e+00
    2.4500009537e+01   -1.6141375303e+00
    2.4600030899e+01   -1.6486631632e+00
    2.4700050354e+01   -1.6837761402e+00
    2.4800029755e+01   -1.7194464207e+00
    2.4899890900e+01   -1.7556447983e+00
    2.5000059128e+01   -1.7923449278e+00
    2.5099880219e+01   -1.8295240402e+00
    2.5199920654e+01   -1.8671640158e+00
    2.5299959183e+01   -1.9052516222e+00
    2.5399890900e+01   -1.9437788725e+00
    2.5499889374e+01   -1.9827426672e+00
    2.5599920273e+01   -2.0221443176e+00
    2.5699949265e+01   -2.0619888306e+00
    2.5799890518e+01   -2.1022837162e+00
    2.5899879456e+01   -2.1430392265e+00
    2.6000009537e+01   -2.1842656136e+00
    2.6099979401e+01   -2.2259731293e+00
    2.6200059891e+01   -2.2681710720e+00
    2.6299959183e+01   -2.3108661175e+00
    2.6399890900e+01   -2.3540632725e+00
    2.6499990463e+01   -2.3977649212e+00
    2.6599920273e+01   -2.4419705868e+00
    2.6699970245e+01   -2.4866776466e+00
    2.6800029755e+01   -2.5318820477e+00
    2.6899890900e+01   -2.5775792599e+00
    2.7000049591e+01   -2.6237642765e+00
    2.7099929810e+01   -2.6704335213e+00
    2.7200050354e+01   -2.7175855637e+00
    2.7299940109e+01   -2.7652211189e+00
    2.7399940491e+01   -2.8133454323e+00
    2.7499959946e+01   -2.8619658947e+00
    2.7600000381e+01   -2.9110953808e+00
    2.7699949265e+01   -2.9607496262e+00
    2.7800039291e+01   -3.0109479427e+00
    2.7899990082e+01   -3.0617125034e+00
    2.8000009537e+01   -3.1130676270e+00
    2.8100059509e+01   -3.1650381088e+00
    2.8199909210e+01   -3.2176485062e+00
    2.8299970627e+01   -3.2709224224e+00
    2.8399990082e+01   -3.3248815536e+00
    2.8499940872e+01   -3.3795433044e+00
    2.8600000381e+01   -3.4349215031e+00
    2.8699909210e+01   -3.4910256863e+00
    2.8799959183e+01   -3.5478606224e+00
    2.8899980545e+01   -3.6054263115e+00
    2.8999919891e+01   -3.6637184620e+00
    2.9099929810e+01   -3.7227301598e+00
    2.9200050354e+01   -3.7824501991e+00
    2.9299959183e+01   -3.8428673744e+00
    2.9400060654e+01   -3.9039692879e+00
    2.9499900818e+01   -3.9657442570e+00
    2.9599960327e+01   -4.0281820297e+00
    2.9700069427e+01   -4.0912756920e+00
    2.9800069809e+01   -4.1550202370e+00
    2.9900039673e+01   -4.2194156647e+00
    2.9999940872e+01   -4.2844657898e+00
    3.0099950790e+01   -4.3501772881e+00
    3.0199939728e+01   -4.4165606499e+00
    3.0299999237e+01   -4.4836287498e+00
    3.0400009155e+01   -4.5513963699e+00
    3.0499900818e+01   -4.6198792458e+00
    3.0599950790e+01   -4.6890916824e+00
    3.0699960709e+01   -4.7590479851e+00
    3.0800050735e+01   -4.8297600746e+00
    3.0899999619e+01   -4.9012370110e+00
    3.1000009537e+01   -4.9734849930e+00
    3.1099910736e+01   -5.0465073586e+00
    3.1199960709e+01   -5.1203036308e+00
    3.1299989700e+01   -5.1948709488e+00
    3.1400049210e+01   -5.2702035904e+00
    3.1500040054e+01   -5.3462958336e+00
    3.1600019455e+01   -5.4231405258e+00
    3.1700080872e+01   -5.5007305145e+00
    3.1799940109e+01   -5.5790615082e+00
    3.1900039673e+01   -5.6581296921e+00
    3.2000068665e+01   -5.7379355431e+00
    3.2100070953e+01   -5.8184828758e+00
    3.2200031281e+01   -5.8997778893e+00
    3.2300079346e+01   -5.9818325043e+00
    3.2399948120e+01   -6.0646605492e+00
    3.2499938965e+01   -6.1482787132e+00
    3.2599998474e+01   -6.2327051163e+00
    3.2700038910e+01   -6.3179593086e+00
    3.2800048828e+01   -6.4040608406e+00
    3.2899890900e+01   -6.4910297394e+00
    3.3000030518e+01   -6.5788836479e+00
    3.3100028992e+01   -6.6676378250e+00
    3.3199901581e+01   -6.7573051453e+00
    3.3299949646e+01   -6.8478946686e+00
    3.3399971008e+01   -6.9394116402e+00
    3.3500019073e+01   -7.0318570137e+00
    3.3599899292e+01   -7.1252279282e+00
    3.3700000763e+01   -7.2195200920e+00
    3.3799968719e+01   -7.3147249222e+00
    3.3899879456e+01   -7.4108333588e+00
    3.4000019073e+01   -7.5078353882e+00
    3.4099948883e+01   -7.6057205200e+00
    3.4199909210e+01   -7.7044787407e+00
    3.4299919128e+01   -7.8041005135e+00
    3.4399879456e+01   -7.9045782089e+00
    3.4499938965e+01   -8.0059051514e+00
    3.4599899292e+01   -8.1080751419e+00
    3.4700038910e+01   -8.2110834122e+00
    3.4800010681e+01   -8.3149251938e+00
    3.4899940491e+01   -8.4195966721e+00
    3.4999900818e+01   -8.5250949860e+00
    3.5099910736e+01   -8.6314153671e+00
    3.5199970245e+01   -8.7385530472e+00
    3.5299850464e+01   -8.8465032578e+00
    3.5400001526e+01   -8.9552602768e+00
    3.5499969482e+01   -9.0648164749e+00
    3.5599880219e+01   -9.1751651764e+00
    3.5699878693e+01   -9.2862997055e+00
    3.5799949646e+01   -9.3982114792e+00
    3.5899829865e+01   -9.5108957291e+00
    3.6000000000e+01   -9.6243457794e+00
    3.6099941254e+01   -9.7385606766e+00
    3.6199871063e+01   -9.8535413742e+00
    3.6299949646e+01   -9.9692897797e+00
    3.6400009155e+01   -1.0085813522e+01
    3.6499839783e+01   -1.0203121185e+01
    3.6599971771e+01   -1.0321227074e+01
    3.6699829102e+01   -1.0440146446e+01
    3.6799850464e+01   -1.0559896469e+01
    3.6899940491e+01   -1.0680494308e+01
    3.6999961853e+01   -1.0801959038e+01
    3.7099990845e+01   -1.0924309731e+01
    3.7199829102e+01   -1.1047564507e+01
    3.7299869537e+01   -1.1171740532e+01
    3.7399978638e+01   -1.1296852112e+01
    3.7499851227e+01   -1.1422909737e+01
    3.7599960327e+01   -1.1549922943e+01
    3.7699890137e+01   -1.1677895546e+01
    3.7799980164e+01   -1.1806830406e+01
    3.7899959564e+01   -1.1936725616e+01
    3.7999828339e+01   -1.2067577362e+01
    3.8099899292e+01   -1.2199382782e+01
    3.8199920654e+01   -1.2332134247e+01
    3.8299980164e+01   -1.2465826035e+01
    3.8399959564e+01   -1.2600452423e+01
    3.8499950409e+01   -1.2736008644e+01
    3.8599979401e+01   -1.2872492790e+01
    3.8699810028e+01   -1.3009902954e+01
    3.8799919128e+01   -1.3148241043e+01
    3.8899948120e+01   -1.3287511826e+01
    3.8999858856e+01   -1.3427720070e+01
    3.9099899292e+01   -1.3568872452e+01
    3.9199821472e+01   -1.3710978508e+01
    3.9299919128e+01   -1.3854047775e+01
    3.9399810791e+01   -1.3998089790e+01
    3.9499889374e+01   -1.4143115044e+01
    3.9599910736e+01   -1.4289129257e+01
    3.9699871063e+01   -1.4436141014e+01
    3.9799919128e+01   -1.4584154129e+01
    3.9899810791e+01   -1.4733172417e+01
    3.9999908447e+01   -1.4883193016e+01
    4.0099811554e+01   -1.5034214020e+01
    4.0199829102e+01   -1.5186228752e+01
    4.0299850464e+01   -1.5339230537e+01
    4.0399948120e+01   -1.5493209839e+01
    4.0499820709e+01   -1.5648156166e+01
    4.0599819183e+01   -1.5804057121e+01
    4.0699871063e+01   -1.5960901260e+01
    4.0799930573e+01   -1.6118679047e+01
    4.0899780273e+01   -1.6277378082e+01
    4.0999820709e+01   -1.6436994553e+01
    4.1099781036e+01   -1.6597517014e+01
    4.1199840546e+01   -1.6758947372e+01
    4.1299758911e+01   -1.6921281815e+01
    4.1399929047e+01   -1.7084520340e+01
    4.1499759674e+01   -1.7248666763e+01
    4.1599849701e+01   -1.7413726807e+01
    4.1699760437e+01   -1.7579706192e+01
    4.1799739838e+01   -1.7746614456e+01
    4.1899768829e+01   -1.7914455414e+01
    4.1999908447e+01   -1.8083240509e+01
    4.2099861145e+01   -1.8252981186e+01
    4.2199810028e+01   -1.8423681259e+01
    4.2299751282e+01   -1.8595352173e+01
    4.2399810791e+01   -1.8767999649e+01
    4.2499828339e+01   -1.8941627502e+01
    4.2599819183e+01   -1.9116243362e+01
    4.2699779510e+01   -1.9291847229e+01
    4.2799900055e+01   -1.9468442917e+01
    4.2899829865e+01   -1.9646030426e+01
    4.2999759674e+01   -1.9824604034e+01
    4.3099899292e+01   -2.0004167557e+01
    4.3199890137e+01   -2.0184715271e+01
    4.3299770355e+01   -2.0366243362e+01
    4.3399890900e+01   -2.0548751831e+01
    4.3499858856e+01   -2.0732234955e+01
    4.3599811554e+01   -2.0916690826e+01
    4.3699748993e+01   -2.1102115631e+01
    4.3799781799e+01   -2.1288505554e+01
    4.3899848938e+01   -2.1475856781e+01
    4.3999771118e+01   -2.1664165497e+01
    4.4099899292e+01   -2.1853429794e+01
    4.4199779510e+01   -2.2043640137e+01
    4.4299800873e+01   -2.2234794617e+01
    4.4399711609e+01   -2.2426887512e+01
    4.4499740601e+01   -2.2619911194e+01
    4.4599849701e+01   -2.2813856125e+01
    4.4699760437e+01   -2.3008716583e+01
    4.4799819946e+01   -2.3204481125e+01
    4.4899719238e+01   -2.3401144028e+01
    4.4999771118e+01   -2.3598695755e+01
    4.5099731445e+01   -2.3797124863e+01
    4.5199729919e+01   -2.3996429443e+01
    4.5299739838e+01   -2.4196598053e+01
    4.5399810791e+01   -2.4397626877e+01
    4.5499691010e+01   -2.4599510193e+01
    4.5599750519e+01   -2.4802244186e+01
    4.5699810028e+01   -2.5005828857e+01
    4.5799701691e+01   -2.5210260391e+01
    4.5899848938e+01   -2.5415542603e+01
    4.5999820709e+01   -2.5621679306e+01
    4.6099800110e+01   -2.5828672409e+01
    4.6199790955e+01   -2.6036525726e+01
    4.6299751282e+01   -2.6245246887e+01
    4.6399738312e+01   -2.6454837799e+01
    4.6499790192e+01   -2.6665307999e+01
    4.6599670410e+01   -2.6876659393e+01
    4.6699668884e+01   -2.7088901520e+01
    4.6799751282e+01   -2.7302034378e+01
    4.6899780273e+01   -2.7516061783e+01
    4.6999729156e+01   -2.7730983734e+01
    4.7099830627e+01   -2.7946800232e+01
    4.7199699402e+01   -2.8163511276e+01
    4.7299728394e+01   -2.8381111145e+01
    4.7399688721e+01   -2.8599597931e+01
    4.7499710083e+01   -2.8818969727e+01
    4.7599731445e+01   -2.9039216995e+01
    4.7699748993e+01   -2.9260341644e+01
    4.7799789429e+01   -2.9482332230e+01
    4.7899768829e+01   -2.9705188751e+01
    4.7999710083e+01   -2.9928905487e+01
    4.8099700928e+01   -3.0153478622e+01
    4.8199668884e+01   -3.0378908157e+01
    4.8299819946e+01   -3.0605190277e+01
    4.8399681091e+01   -3.0832326889e+01
    4.8499710083e+01   -3.1060317993e+01
    4.8599670410e+01   -3.1289167404e+01
    4.8699699402e+01   -3.1518877029e+01
    4.8799819946e+01   -3.1749450684e+01
    4.8899799347e+01   -3.1980890274e+01
    4.8999668121e+01   -3.2213195801e+01
    4.9099670410e+01   -3.2446372986e+01
    4.9199798584e+01   -3.2680427551e+01
    4.9299808502e+01   -3.2915359497e+01
    4.9399799347e+01   -3.3151168823e+01
    4.9499679565e+01   -3.3387863159e+01
    4.9599781036e+01   -3.3625438690e+01
    4.9699771881e+01   -3.3863895416e+01
    4.9799770355e+01   -3.4103233337e+01
    4.9899768829e+01   -3.4343456268e+01
    4.9999668121e+01   -3.4584552765e+01
    5.0099720001e+01   -3.4826526642e+01
    5.0199760437e+01   -3.5069366455e+01
    5.0299758911e+01   -3.5313072205e+01
    5.0399700165e+01   -3.5557636261e+01
    5.0499660492e+01   -3.5803047180e+01
    5.0599708557e+01   -3.6049304962e+01
    5.0699699402e+01   -3.6296401978e+01
    5.0799770355e+01   -3.6544330597e+01
    5.0899700165e+01   -3.6793083191e+01
    5.0999649048e+01   -3.7042659760e+01
    5.1099750519e+01   -3.7293048859e+01
    5.1199611664e+01   -3.7544242859e+01
    5.1299709320e+01   -3.7796241760e+01
    5.1399650574e+01   -3.8049034119e+01
    5.1499698639e+01   -3.8302619934e+01
    5.1599651337e+01   -3.8556995392e+01
    5.1699680328e+01   -3.8812149048e+01
    5.1799659729e+01   -3.9068080902e+01
    5.1899620056e+01   -3.9324783325e+01
    5.1999668121e+01   -3.9582248688e+01
    5.2099689484e+01   -3.9840480804e+01
    5.2199748993e+01   -4.0099464417e+01
    5.2299598694e+01   -4.0359199524e+01
    5.2399681091e+01   -4.0619674683e+01
    5.2499660492e+01   -4.0880882263e+01
    5.2599628448e+01   -4.1142822266e+01
    5.2699760437e+01   -4.1405479431e+01
    5.2799591064e+01   -4.1668849945e+01
    5.2899738312e+01   -4.1932929993e+01
    5.2999759674e+01   -4.2197711945e+01
    5.3099639893e+01   -4.2463180542e+01
    5.3199680328e+01   -4.2729335785e+01
    5.3299728394e+01   -4.2996166229e+01
    5.3399688721e+01   -4.3263664246e+01
    5.3499610901e+01   -4.3531829834e+01
    5.3599590302e+01   -4.3800647736e+01
    5.3699680328e+01   -4.4070114136e+01
    5.3799690247e+01   -4.4340225220e+01
    5.3899730682e+01   -4.4610973358e+01
    5.3999660492e+01   -4.4882354736e+01
    5.4099658966e+01   -4.5154361725e+01
    5.4199611664e+01   -4.5426990509e+01
    5.4299621582e+01   -4.5700237274e+01
    5.4399620056e+01   -4.5974102020e+01
    5.4499561310e+01   -4.6248573303e+01
    5.4599708557e+01   -4.6523658752e+01
    5.4699550629e+01   -4.6799354553e+01
    5.4799678802e+01   -4.7075656891e+01
    5.4899589539e+01   -4.7352565765e+01
    5.4999679565e+01   -4.7630084991e+01
    5.5099651337e+01   -4.7908210754e+01
    5.5199638367e+01   -4.8186943054e+01
    5.5299640656e+01   -4.8466285706e+01
    5.5399600983e+01   -4.8746238708e+01
    5.5499568939e+01   -4.9026798248e+01
    5.5599651337e+01   -4.9307968140e+01
    5.5699550629e+01   -4.9589748383e+01
    5.5799610138e+01   -4.9872142792e+01
    5.5899559021e+01   -5.0155151367e+01
    5.5999668121e+01   -5.0438777924e+01
    5.6099628448e+01   -5.0723014832e+01
    5.6199550629e+01   -5.1007869720e+01
    5.6299671173e+01   -5.1293334961e+01
    5.6399570465e+01   -5.1579410553e+01
    5.6499660492e+01   -5.1866092682e+01
    5.6599540710e+01   -5.2153373718e+01
    5.6699569702e+01   -5.2441253662e+01
    5.6799671173e+01   -5.2729732513e+01
    5.6899578094e+01   -5.3018795013e+01
    5.6999679565e+01   -5.3308441162e+01
    5.7099620819e+01   -5.3598655701e+01
    5.7199600220e+01   -5.3889434814e+01
    5.7299568176e+01   -5.4180767059e+01
    5.7399669647e+01   -5.4472640991e+01
    5.7499580383e+01   -5.4765048981e+01
    5.7599670410e+01   -5.5057975769e+01
    5.7699638367e+01   -5.5351413727e+01
    5.7799678802e+01   -5.5645347595e+01
    5.7899631500e+01   -5.5939765930e+01
    5.7999629974e+01   -5.6234657288e+01
    5.8099559784e+01   -5.6530014038e+01
    5.8199569702e+01   -5.6825828552e+01
    5.8299579620e+01   -5.7122077942e+01
    5.8399509430e+01   -5.7418762207e+01
    5.8499549866e+01   -5.7715862274e+01
    5.8599670410e+01   -5.8013370514e+01
    5.8699668884e+01   -5.8311279297e+01
    5.8799591064e+01   -5.8609573364e+01
    5.8899631500e+01   -5.8908252716e+01
    5.8999530792e+01   -5.9207305908e+01
    5.9099521637e+01   -5.9506729126e+01
    5.9199588776e+01   -5.9806522369e+01
    5.9299491882e+01   -6.0106678009e+01
    5.9399639130e+01   -6.0407180786e+01
    5.9499500275e+01   -6.0708026886e+01
    5.9599498749e+01   -6.1009204865e+01
    5.9699489594e+01   -6.1310718536e+01
    5.9799560547e+01   -6.1612575531e+01
    5.9899501801e+01   -6.1914779663e+01
    5.9999549866e+01   -6.2217338562e+01
    6.0099540710e+01   -6.2520267487e+01
    6.0199470520e+01   -6.2823574066e+01
    6.0299591064e+01   -6.3127254486e+01
    6.0399650574e+01   -6.3431312561e+01
    6.0499488831e+01   -6.3735744476e+01
    6.0599590302e+01   -6.4040550232e+01
    6.0699459076e+01   -6.4345733643e+01
    6.0799560547e+01   -6.4651298523e+01
    6.0899578094e+01   -6.4957229614e+01
    6.0999469757e+01   -6.5263549805e+01
    6.1099510193e+01   -6.5570251465e+01
    6.1199558258e+01   -6.5877334595e+01
    6.1299468994e+01   -6.6184799194e+01
    6.1399608612e+01   -6.6492645264e+01
    6.1499568939e+01   -6.6800849915e+01
    6.1599609375e+01   -6.7109405518e+01
    6.1699520111e+01   -6.7418296814e+01
    6.1799591064e+01   -6.7727531433e+01
    6.1899520874e+01   -6.8037101746e+01
    6.1999469757e+01   -6.8346984863e+01
    6.2099571228e+01   -6.8657180786e+01
    6.2199550629e+01   -6.8967666626e+01
    6.2299530029e+01   -6.9278427124e+01
    6.2399471283e+01   -6.9589424133e+01
    6.2499439240e+01   -6.9900634766e+01
    6.2599479675e+01   -7.0212020874e+01
    6.2699539185e+01   -7.0523559570e+01
    6.2799499512e+01   -7.0835205078e+01
    6.2899559021e+01   -7.1146942139e+01
    6.2999469757e+01   -7.1458747864e+01
    6.3099479675e+01   -7.1770606995e+01
    6.3199531555e+01   -7.2082519531e+01
    6.3299530029e+01   -7.2394477844e+01
    6.3399448395e+01   -7.2706481934e+01
    6.3499450684e+01   -7.3018554688e+01
    6.3599491119e+01   -7.3330703735e+01
    6.3699478149e+01   -7.3642951965e+01
    6.3799510956e+01   -7.3955314636e+01
    6.3899520874e+01   -7.4267822266e+01
    6.3999481201e+01   -7.4580505371e+01
    6.4099449158e+01   -7.4893379211e+01
    6.4199569702e+01   -7.5206459045e+01
    6.4299583435e+01   -7.5519767761e+01
    6.4399513245e+01   -7.5833320618e+01
    6.4499526978e+01   -7.6147117615e+01
    6.4599563599e+01   -7.6461151123e+01
    6.4699501038e+01   -7.6775428772e+01
    6.4799530029e+01   -7.7089920044e+01
    6.4899482727e+01   -7.7404609680e+01
    6.4999473572e+01   -7.7719474792e+01
    6.5099388123e+01   -7.8034492493e+01
    6.5199447632e+01   -7.8349632263e+01
    6.5299400330e+01   -7.8664878845e+01
    6.5399421692e+01   -7.8980194092e+01
    6.5499549866e+01   -7.9295570374e+01
    6.5599403381e+01   -7.9610977173e+01
    6.5699493408e+01   -7.9926406860e+01
    6.5799423218e+01   -8.0241844177e+01
    6.5899406433e+01   -8.0557296753e+01
    6.5999397278e+01   -8.0872741699e+01
    6.6099540710e+01   -8.1188194275e+01
    6.6199371338e+01   -8.1503631592e+01
    6.6299423218e+01   -8.1819076538e+01
    6.6399467468e+01   -8.2134513855e+01
    6.6499366760e+01   -8.2449966431e+01
    6.6599533081e+01   -8.2765426636e+01
    6.6699462891e+01   -8.3080909729e+01
    6.6799468994e+01   -8.3396415710e+01
    6.6899497986e+01   -8.3711952209e+01
    6.6999412537e+01   -8.4027526855e+01
    6.7099426270e+01   -8.4343139648e+01
    6.7199371338e+01   -8.4658790588e+01
    6.7299461365e+01   -8.4974479675e+01
    6.7399406433e+01   -8.5290191650e+01
    6.7499496460e+01   -8.5605918884e+01
    6.7599479675e+01   -8.5921661377e+01
    6.7699478149e+01   -8.6237388611e+01
    6.7799468994e+01   -8.6553100586e+01
    6.7899429321e+01   -8.6868804932e+01
    6.7999443054e+01   -8.7184494019e+01
    6.8099487305e+01   -8.7500190735e+01
    6.8199493408e+01   -8.7815895081e+01
    6.8299423218e+01   -8.8131607056e+01
    6.8399421692e+01   -8.8447349548e+01
    6.8499481201e+01   -8.8763122559e+01
    6.8599372864e+01   -8.9078933716e+01
    6.8699401855e+01   -8.9394783020e+01
    6.8799453735e+01   -8.9710655212e+01
    6.8899421692e+01   -9.0026565552e+01
    6.8999397278e+01   -9.0342475891e+01
    6.9099510193e+01   -9.0658370972e+01
    6.9199493408e+01   -9.0974205017e+01
    6.9299423218e+01   -9.1289947510e+01
    6.9399406433e+01   -9.1605545044e+01
    6.9499328613e+01   -9.1920928955e+01
    6.9599456787e+01   -9.2236045837e+01
    6.9699432373e+01   -9.2550804138e+01
    6.9799468994e+01   -9.2865142822e+01
    6.9899406433e+01   -9.3178962708e+01
    6.9999359131e+01   -9.3492187500e+01
    7.0099357605e+01   -9.3804748535e+01
    7.0199462891e+01   -9.4116561890e+01
    7.0299423218e+01   -9.4427566528e+01
    7.0399436951e+01   -9.4737716675e+01
    7.0499313354e+01   -9.5046958923e+01
    7.0599349976e+01   -9.5355278015e+01
    7.0699470520e+01   -9.5662666321e+01
    7.0799407959e+01   -9.5969139099e+01
    7.0899307251e+01   -9.6274719238e+01
    7.0999397278e+01   -9.6579452515e+01
    7.1099426270e+01   -9.6883392334e+01
    7.1199348450e+01   -9.7186607361e+01
    7.1299362183e+01   -9.7489173889e+01
    7.1399383545e+01   -9.7791168213e+01
    7.1499320984e+01   -9.8092658997e+01
    7.1599456787e+01   -9.8393722534e+01
    7.1699462891e+01   -9.8694419861e+01
    7.1799392700e+01   -9.8994789124e+01
    7.1899436951e+01   -9.9294891357e+01
    7.1999298096e+01   -9.9594749451e+01
    7.2099342346e+01   -9.9894371033e+01
    7.2199363708e+01   -1.0019379425e+02
    7.2299346924e+01   -1.0049302673e+02
    7.2399291992e+01   -1.0079206085e+02
    7.2499389648e+01   -1.0109092712e+02
    7.2599403381e+01   -1.0138961792e+02
    7.2699340820e+01   -1.0168814087e+02
    7.2799346924e+01   -1.0198649597e+02
    7.2899398804e+01   -1.0228469849e+02
    7.2999336243e+01   -1.0258275604e+02
    7.3099288940e+01   -1.0288068390e+02
    7.3199317932e+01   -1.0317849731e+02
    7.3299346924e+01   -1.0347622681e+02
    7.3399276733e+01   -1.0377388000e+02
    7.3499313354e+01   -1.0407145691e+02
    7.3599319458e+01   -1.0436896515e+02
    7.3699363708e+01   -1.0466637421e+02
    7.3799346924e+01   -1.0496369171e+02
    7.3899353027e+01   -1.0526088715e+02
    7.3999351501e+01   -1.0555793762e+02
    7.4099380493e+01   -1.0585481262e+02
    7.4199333191e+01   -1.0615147400e+02
    7.4299293518e+01   -1.0644787598e+02
    7.4399322510e+01   -1.0674398041e+02
    7.4499443054e+01   -1.0703973389e+02
    7.4599296570e+01   -1.0733509827e+02
    7.4699310303e+01   -1.0763002777e+02
    7.4799278259e+01   -1.0792447662e+02
    7.4899398804e+01   -1.0821839142e+02
    7.4999336243e+01   -1.0851171112e+02
    7.5099296570e+01   -1.0880438232e+02
    7.5199256897e+01   -1.0909632874e+02
    7.5299392700e+01   -1.0938749695e+02
    7.5399238586e+01   -1.0967782593e+02
    7.5499259949e+01   -1.0996725464e+02
    7.5599319458e+01   -1.1025575256e+02
    7.5699348450e+01   -1.1054328156e+02
    7.5799217224e+01   -1.1082984161e+02
    7.5899276733e+01   -1.1111543274e+02
    7.5999397278e+01   -1.1140008545e+02
    7.6099319458e+01   -1.1168384552e+02
    7.6199310303e+01   -1.1196677399e+02
    7.6299377441e+01   -1.1224893188e+02
    7.6399230957e+01   -1.1253038788e+02
    7.6499328613e+01   -1.1281122589e+02
    7.6599212646e+01   -1.1309151459e+02
    7.6699272156e+01   -1.1337132263e+02
    7.6799392700e+01   -1.1365071869e+02
    7.6899223328e+01   -1.1392974854e+02
    7.6999382019e+01   -1.1420845032e+02
    7.7099243164e+01   -1.1448685455e+02
    7.7199302673e+01   -1.1476496124e+02
    7.7299293518e+01   -1.1504277802e+02
    7.7399383545e+01   -1.1532028198e+02
    7.7499198914e+01   -1.1559742737e+02
    7.7599327087e+01   -1.1587416077e+02
    7.7699203491e+01   -1.1615042114e+02
    7.7799247742e+01   -1.1642613220e+02
    7.7899223328e+01   -1.1670121002e+02
    7.7999229431e+01   -1.1697558594e+02
    7.8099372864e+01   -1.1724916077e+02
    7.8199203491e+01   -1.1752186584e+02
    7.8299316406e+01   -1.1779364014e+02
    7.8399307251e+01   -1.1806443024e+02
    7.8499206543e+01   -1.1833420563e+02
    7.8599243164e+01   -1.1860295105e+02
    7.8699302673e+01   -1.1887063599e+02
    7.8799278259e+01   -1.1913728333e+02
    7.8899230957e+01   -1.1940292358e+02
    7.8999313354e+01   -1.1966757965e+02
    7.9099243164e+01   -1.1993128967e+02
    7.9199218750e+01   -1.2019411469e+02
    7.9299263000e+01   -1.2045608521e+02
    7.9399177551e+01   -1.2071726990e+02
    7.9499198914e+01   -1.2097769928e+02
    7.9599311829e+01   -1.2123741913e+02
    7.9699241638e+01   -1.2149645233e+02
    7.9799278259e+01   -1.2175485229e+02
    7.9899223328e+01   -1.2201264191e+02
    7.9999168396e+01   -1.2226987457e+02
    8.0099182129e+01   -1.2252657318e+02
    8.0199172974e+01   -1.2278276825e+02
    8.0299156189e+01   -1.2303845215e+02
    8.0399299622e+01   -1.2329364777e+02
    8.0499183655e+01   -1.2354833984e+02
    8.0599319458e+01   -1.2380248260e+02
    8.0699272156e+01   -1.2405605316e+02
    8.0799186707e+01   -1.2430899811e+02
    8.0899299622e+01   -1.2456125641e+02
    8.0999252319e+01   -1.2481277466e+02
    8.1099159241e+01   -1.2506349945e+02
    8.1199188232e+01   -1.2531339264e+02
    8.1299186707e+01   -1.2556242371e+02
    8.1399299622e+01   -1.2581058502e+02
    8.1499183655e+01   -1.2605786133e+02
    8.1599151611e+01   -1.2630428314e+02
    8.1699241638e+01   -1.2654985809e+02
    8.1799263000e+01   -1.2679460144e+02
    8.1899177551e+01   -1.2703855133e+02
    8.1999160767e+01   -1.2728174591e+02
    8.2099136353e+01   -1.2752424622e+02
    8.2199256897e+01   -1.2776608276e+02
    8.2299156189e+01   -1.2800730896e+02
    8.2399246216e+01   -1.2824794006e+02
    8.2499191284e+01   -1.2848797607e+02
    8.2599136353e+01   -1.2872741699e+02
    8.2699203491e+01   -1.2896623230e+02
    8.2799301147e+01   -1.2920434570e+02
    8.2899291992e+01   -1.2944172668e+02
    8.2999298096e+01   -1.2967828369e+02
    8.3099296570e+01   -1.2991394043e+02
    8.3199180603e+01   -1.3014865112e+02
    8.3299110413e+01   -1.3038235474e+02
    8.3399192810e+01   -1.3061499023e+02
    8.3499183655e+01   -1.3084654236e+02
    8.3599212646e+01   -1.3107699585e+02
    8.3699287415e+01   -1.3130633545e+02
    8.3799263000e+01   -1.3153457642e+02
    8.3899230957e+01   -1.3176173401e+02
    8.3999153137e+01   -1.3198785400e+02
    8.4099212646e+01   -1.3221295166e+02
    8.4199180603e+01   -1.3243707275e+02
    8.4299133301e+01   -1.3266023254e+02
    8.4399108887e+01   -1.3288246155e+02
    8.4499237061e+01   -1.3310380554e+02
    8.4599197388e+01   -1.3332426453e+02
    8.4699142456e+01   -1.3354388428e+02
    8.4799110413e+01   -1.3376266479e+02
    8.4899246216e+01   -1.3398059082e+02
    8.4999183655e+01   -1.3419764709e+02
    8.5099166870e+01   -1.3441383362e+02
    8.5199249268e+01   -1.3462913513e+02
    8.5299232483e+01   -1.3484352112e+02
    8.5399116516e+01   -1.3505697632e+02
    8.5499160767e+01   -1.3526948547e+02
    8.5599113464e+01   -1.3548107910e+02
    8.5699203491e+01   -1.3569172668e+02
    8.5799102783e+01   -1.3590148926e+02
    8.5899246216e+01   -1.3611035156e+02
    8.5999153137e+01   -1.3631834412e+02
    8.6099159241e+01   -1.3652552795e+02
    8.6199218750e+01   -1.3673191833e+02
    8.6299118042e+01   -1.3693756104e+02
    8.6399147034e+01   -1.3714250183e+02
    8.6499183655e+01   -1.3734677124e+02
    8.6599128723e+01   -1.3755039978e+02
    8.6699226379e+01   -1.3775340271e+02
    8.6799209595e+01   -1.3795579529e+02
    8.6899192810e+01   -1.3815754700e+02
    8.6999092102e+01   -1.3835865784e+02
    8.7099121094e+01   -1.3855911255e+02
    8.7199058533e+01   -1.3875888062e+02
    8.7299217224e+01   -1.3895791626e+02
    8.7399047852e+01   -1.3915617371e+02
    8.7499130249e+01   -1.3935362244e+02
    8.7599121094e+01   -1.3955023193e+02
    8.7699081421e+01   -1.3974594116e+02
    8.7799156189e+01   -1.3994073486e+02
    8.7899230957e+01   -1.4013455200e+02
    8.7999076843e+01   -1.4032736206e+02
    8.8099166870e+01   -1.4051918030e+02
    8.8199172974e+01   -1.4070996094e+02
    8.8299217224e+01   -1.4089971924e+02
    8.8399063110e+01   -1.4108843994e+02
    8.8499183655e+01   -1.4127618408e+02
    8.8599166870e+01   -1.4146292114e+02
    8.8699119568e+01   -1.4164872742e+02
    8.8799102783e+01   -1.4183358765e+02
    8.8899032593e+01   -1.4201756287e+02
    8.8999183655e+01   -1.4220066833e+02
    8.9099128723e+01   -1.4238294983e+02
    8.9199172974e+01   -1.4256439209e+02
    8.9299057007e+01   -1.4274502563e+02
    8.9399101257e+01   -1.4292488098e+02
    8.9499168396e+01   -1.4310392761e+02
    8.9599136353e+01   -1.4328219604e+02
    8.9699058533e+01   -1.4345967102e+02
    8.9799171448e+01   -1.4363633728e+02
    8.9899063110e+01   -1.4381221008e+02
    8.9999107361e+01   -1.4398727417e+02
    9.0099136353e+01   -1.4416154480e+02
    9.0199073792e+01   -1.4433499146e+02
    9.0299186707e+01   -1.4450762939e+02
    9.0399101257e+01   -1.4467947388e+02
    9.0499153137e+01   -1.4485052490e+02
    9.0599182129e+01   -1.4502076721e+02
    9.0699028015e+01   -1.4519023132e+02
    9.0799011230e+01   -1.4535891724e+02
    9.0899009705e+01   -1.4552684021e+02
    9.0999107361e+01   -1.4569401550e+02
    9.1099113464e+01   -1.4586047363e+02
    9.1199172974e+01   -1.4602621460e+02
    9.1298988342e+01   -1.4619125366e+02
    9.1399040222e+01   -1.4635562134e+02
    9.1499046326e+01   -1.4651930237e+02
    9.1599067688e+01   -1.4668229675e+02
    9.1699096680e+01   -1.4684458923e+02
    9.1799018860e+01   -1.4700617981e+02
    9.1899116516e+01   -1.4716705322e+02
    9.1999137878e+01   -1.4732716370e+02
    9.2099098206e+01   -1.4748651123e+02
    9.2199073792e+01   -1.4764508057e+02
    9.2299003601e+01   -1.4780285645e+02
    9.2399162292e+01   -1.4795982361e+02
    9.2499107361e+01   -1.4811596680e+02
    9.2599021912e+01   -1.4827128601e+02
    9.2699096680e+01   -1.4842576599e+02
    9.2799102783e+01   -1.4857940674e+02
    9.2899063110e+01   -1.4873222351e+02
    9.2999008179e+01   -1.4888421631e+02
    9.3099128723e+01   -1.4903541565e+02
    9.3199096680e+01   -1.4918585205e+02
    9.3299026489e+01   -1.4933554077e+02
    9.3399032593e+01   -1.4948449707e+02
    9.3499023438e+01   -1.4963275146e+02
    9.3599067688e+01   -1.4978030396e+02
    9.3699012756e+01   -1.4992716980e+02
    9.3798988342e+01   -1.5007337952e+02
    9.3899002075e+01   -1.5021891785e+02
    9.3999023438e+01   -1.5036381531e+02
    9.4099082947e+01   -1.5050810242e+02
    9.4199012756e+01   -1.5065179443e+02
    9.4299102783e+01   -1.5079493713e+02
    9.4399116516e+01   -1.5093754578e+02
    9.4499023438e+01   -1.5107963562e+02
    9.4598991394e+01   -1.5122125244e+02
    9.4699012756e+01   -1.5136236572e+02
    9.4799003601e+01   -1.5150299072e+02
    9.4899070740e+01   -1.5164309692e+02
    9.4999046326e+01   -1.5178269958e+02
    9.5098983765e+01   -1.5192176819e+02
    9.5198936462e+01   -1.5206030273e+02
    9.5299003601e+01   -1.5219830322e+02
    9.5399047852e+01   -1.5233576965e+02
    9.5499092102e+01   -1.5247274780e+02
    9.5598999023e+01   -1.5260925293e+02
    9.5699096680e+01   -1.5274528503e+02
    9.5799018860e+01   -1.5288090515e+02
    9.5899093628e+01   -1.5301612854e+02
    9.5998916626e+01   -1.5315093994e+02
    9.6099090576e+01   -1.5328535461e+02
    9.6198921204e+01   -1.5341935730e+02
    9.6299041748e+01   -1.5355294800e+02
    9.6398933411e+01   -1.5368608093e+02
    9.6499069214e+01   -1.5381874084e+02
    9.6598922729e+01   -1.5395086670e+02
    9.6699020386e+01   -1.5408245850e+02
    9.6798973083e+01   -1.5421348572e+02
    9.6899032593e+01   -1.5434394836e+02
    9.6998931885e+01   -1.5447387695e+02
    9.7098930359e+01   -1.5460328674e+02
    9.7198997498e+01   -1.5473223877e+02
    9.7299057007e+01   -1.5486079407e+02
    9.7398956299e+01   -1.5498902893e+02
    9.7499069214e+01   -1.5511701965e+02
    9.7598930359e+01   -1.5524485779e+02
    9.7699020386e+01   -1.5537265015e+02
    9.7798973083e+01   -1.5550047302e+02
    9.7898941040e+01   -1.5562838745e+02
    9.7998992920e+01   -1.5575645447e+02
    9.8098922729e+01   -1.5588475037e+02
    9.8198951721e+01   -1.5601332092e+02
    9.8298942566e+01   -1.5614219666e+02
    9.8399002075e+01   -1.5627136230e+02
    9.8499031067e+01   -1.5640081787e+02
    9.8598876953e+01   -1.5653051758e+02
    9.8698936462e+01   -1.5666040039e+02
    9.8798927307e+01   -1.5679034424e+02
    9.8898880005e+01   -1.5692022705e+02
    9.8998870850e+01   -1.5704985046e+02
    9.9098876953e+01   -1.5717898560e+02
    9.9198959351e+01   -1.5730740356e+02
    9.9298973083e+01   -1.5743476868e+02
    9.9398956299e+01   -1.5756074524e+02
    9.9498870850e+01   -1.5768496704e+02
    9.9598991394e+01   -1.5780700684e+02
    9.9698966980e+01   -1.5792636108e+02
    9.9798973083e+01   -1.5804252625e+02
    9.9899002075e+01   -1.5815493774e+02
    9.9998863220e+01   -1.5826304626e+02
    1.0009889984e+02   -1.5836631775e+02
    1.0019889832e+02   -1.5846426392e+02
    1.0029889679e+02   -1.5855654907e+02
    1.0039890289e+02   -1.5864292908e+02
    1.0049890137e+02   -1.5872337341e+02
    1.0059899902e+02   -1.5879801941e+02
    1.0069899750e+02   -1.5886715698e+02
    1.0079900360e+02   -1.5893110657e+02
    1.0089890289e+02   -1.5899034119e+02
    1.0099900055e+02   -1.5904528809e+02
    1.0109899902e+02   -1.5909648132e+02
    1.0119899750e+02   -1.5914440918e+02
    1.0129900360e+02   -1.5918959045e+02
    1.0139890289e+02   -1.5923249817e+02
    1.0149900055e+02   -1.5927360535e+02
    1.0159899902e+02   -1.5931330872e+02
    1.0169899750e+02   -1.5935198975e+02
    1.0179879761e+02   -1.5938995361e+02
    1.0189900208e+02   -1.5942749023e+02
    1.0199890137e+02   -1.5946482849e+02
    1.0209899902e+02   -1.5950216675e+02
    1.0219899750e+02   -1.5953965759e+02
    1.0229889679e+02   -1.5957745361e+02
    1.0239890289e+02   -1.5961561584e+02
    1.0249890137e+02   -1.5965419006e+02
    1.0259899902e+02   -1.5969322205e+02
    1.0269889832e+02   -1.5973268127e+02
    1.0279900360e+02   -1.5977252197e+02
    1.0289880371e+02   -1.5981274414e+02
    1.0299890137e+02   -1.5985322571e+02
    1.0309889984e+02   -1.5989393616e+02
    1.0319899750e+02   -1.5993473816e+02
    1.0329889679e+02   -1.5997557068e+02
    1.0339880371e+02   -1.6001629639e+02
    1.0349900055e+02   -1.6005682373e+02
    1.0359880066e+02   -1.6009701538e+02
    1.0369879913e+02   -1.6013677979e+02
    1.0379900360e+02   -1.6017597961e+02
    1.0389880371e+02   -1.6021455383e+02
    1.0399890137e+02   -1.6025239563e+02
    1.0409889984e+02   -1.6028945923e+02
    1.0419899750e+02   -1.6032571411e+02
    1.0429900360e+02   -1.6036112976e+02
    1.0439880371e+02   -1.6039569092e+02
    1.0449880219e+02   -1.6042942810e+02
    1.0459889984e+02   -1.6046240234e+02
    1.0469889832e+02   -1.6049464417e+02
    1.0479889679e+02   -1.6052624512e+02
    1.0489890289e+02   -1.6055728149e+02
    1.0499900055e+02   -1.6058784485e+02
    1.0509889984e+02   -1.6061802673e+02
    1.0519889832e+02   -1.6064787292e+02
    1.0529889679e+02   -1.6067745972e+02
    1.0539900208e+02   -1.6070683289e+02
    1.0549890137e+02   -1.6073603821e+02
    1.0559889984e+02   -1.6076506042e+02
    1.0569889832e+02   -1.6079394531e+02
    1.0579879761e+02   -1.6082266235e+02
    1.0589880371e+02   -1.6085119629e+02
    1.0599890137e+02   -1.6087951660e+02
    1.0609880066e+02   -1.6090756226e+02
    1.0619879913e+02   -1.6093525696e+02
    1.0629889679e+02   -1.6096255493e+02
    1.0639880371e+02   -1.6098936462e+02
    1.0649890137e+02   -1.6101565552e+02
    1.0659889984e+02   -1.6104135132e+02
    1.0669879913e+02   -1.6106642151e+02
    1.0679879761e+02   -1.6109088135e+02
    1.0689890289e+02   -1.6111471558e+02
    1.0699880219e+02   -1.6113793945e+02
    1.0709889984e+02   -1.6116058350e+02
    1.0719879913e+02   -1.6118261719e+02
    1.0729879761e+02   -1.6120410156e+02
    1.0739890289e+02   -1.6122499084e+02
    1.0749890137e+02   -1.6124531555e+02
    1.0759880066e+02   -1.6126506042e+02
    1.0769889832e+02   -1.6128424072e+02
    1.0779879761e+02   -1.6130284119e+02
    1.0789890289e+02   -1.6132087708e+02
    1.0799880219e+02   -1.6133831787e+02
    1.0809889984e+02   -1.6135519409e+02
    1.0819889832e+02   -1.6137144470e+02
    1.0829879761e+02   -1.6138708496e+02
    1.0839890289e+02   -1.6140208435e+02
    1.0849890137e+02   -1.6141639709e+02
    1.0859889984e+02   -1.6142997742e+02
    1.0869869995e+02   -1.6144277954e+02
    1.0879889679e+02   -1.6145477295e+02
    1.0889880371e+02   -1.6146588135e+02
    1.0899880219e+02   -1.6147605896e+02
    1.0909880066e+02   -1.6148529053e+02
    1.0919879913e+02   -1.6149353027e+02
    1.0929889679e+02   -1.6150076294e+02
    1.0939890289e+02   -1.6150697327e+02
    1.0949890137e+02   -1.6151219177e+02
    1.0959889984e+02   -1.6151640320e+02
    1.0969879913e+02   -1.6151966858e+02
    1.0979879761e+02   -1.6152201843e+02
    1.0989880371e+02   -1.6152345276e+02
    1.0999870300e+02   -1.6152406311e+02
    1.1009880066e+02   -1.6152384949e+02
    1.1019879913e+02   -1.6152288818e+02
    1.1029879761e+02   -1.6152117920e+02
    1.1039880371e+02   -1.6151875305e+02
    1.1049880219e+02   -1.6151565552e+02
    1.1059870148e+02   -1.6151190186e+02
    1.1069879913e+02   -1.6150750732e+02
    1.1079879761e+02   -1.6150251770e+02
    1.1089890289e+02   -1.6149696350e+02
    1.1099870300e+02   -1.6149084473e+02
    1.1109880066e+02   -1.6148422241e+02
    1.1119869995e+02   -1.6147708130e+02
    1.1129869843e+02   -1.6146945190e+02
    1.1139869690e+02   -1.6146128845e+02
    1.1149870300e+02   -1.6145259094e+02
    1.1159880066e+02   -1.6144334412e+02
    1.1169879913e+02   -1.6143348694e+02
    1.1179869843e+02   -1.6142298889e+02
    1.1189880371e+02   -1.6141181946e+02
    1.1199880219e+02   -1.6139996338e+02
    1.1209880066e+02   -1.6138739014e+02
    1.1219869995e+02   -1.6137408447e+02
    1.1229889679e+02   -1.6136004639e+02
    1.1239869690e+02   -1.6134524536e+02
    1.1249870300e+02   -1.6132965088e+02
    1.1259870148e+02   -1.6131323242e+02
    1.1269879913e+02   -1.6129594421e+02
    1.1279879761e+02   -1.6127775574e+02
    1.1289880371e+02   -1.6125862122e+02
    1.1299880219e+02   -1.6123852539e+02
    1.1309880066e+02   -1.6121746826e+02
    1.1319869995e+02   -1.6119541931e+02
    1.1329879761e+02   -1.6117239380e+02
    1.1339869690e+02   -1.6114837646e+02
    1.1349880219e+02   -1.6112339783e+02
    1.1359870148e+02   -1.6109745789e+02
    1.1369879913e+02   -1.6107063293e+02
    1.1379869843e+02   -1.6104293823e+02
    1.1389869690e+02   -1.6101441956e+02
    1.1399870300e+02   -1.6098509216e+02
    1.1409880066e+02   -1.6095497131e+02
    1.1419860077e+02   -1.6092407227e+02
    1.1429879761e+02   -1.6089239502e+02
    1.1439869690e+02   -1.6085998535e+02
    1.1449870300e+02   -1.6082682800e+02
    1.1459870148e+02   -1.6079292297e+02
    1.1469869995e+02   -1.6075831604e+02
    1.1479869843e+02   -1.6072296143e+02
    1.1489859772e+02   -1.6068690491e+02
    1.1499880219e+02   -1.6065010071e+02
    1.1509880066e+02   -1.6061260986e+02
    1.1519860077e+02   -1.6057437134e+02
    1.1529879761e+02   -1.6053541565e+02
    1.1539869690e+02   -1.6049569702e+02
    1.1549870300e+02   -1.6045521545e+02
    1.1559870148e+02   -1.6041394043e+02
    1.1569860077e+02   -1.6037190247e+02
    1.1579879761e+02   -1.6032907104e+02
    1.1589880371e+02   -1.6028544617e+02
    1.1599870300e+02   -1.6024102783e+02
    1.1609870148e+02   -1.6019581604e+02
    1.1619860077e+02   -1.6014981079e+02
    1.1629869843e+02   -1.6010299683e+02
    1.1639880371e+02   -1.6005538940e+02
    1.1649870300e+02   -1.6000695801e+02
    1.1659860229e+02   -1.5995771790e+02
    1.1669869995e+02   -1.5990763855e+02
    1.1679859924e+02   -1.5985671997e+02
    1.1689880371e+02   -1.5980493164e+02
    1.1699859619e+02   -1.5975227356e+02
    1.1709870148e+02   -1.5969869995e+02
    1.1719869995e+02   -1.5964418030e+02
    1.1729859924e+02   -1.5958868408e+02
    1.1739869690e+02   -1.5953218079e+02
    1.1749870300e+02   -1.5947465515e+02
    1.1759860229e+02   -1.5941606140e+02
    1.1769869995e+02   -1.5935638428e+02
    1.1779879761e+02   -1.5929562378e+02
    1.1789859772e+02   -1.5923376465e+02
    1.1799870300e+02   -1.5917080688e+02
    1.1809860229e+02   -1.5910676575e+02
    1.1819879913e+02   -1.5904164124e+02
    1.1829869843e+02   -1.5897544861e+02
    1.1839859772e+02   -1.5890821838e+02
    1.1849870300e+02   -1.5883998108e+02
    1.1859860229e+02   -1.5877075195e+02
    1.1869860077e+02   -1.5870057678e+02
    1.1879869843e+02   -1.5862945557e+02
    1.1889869690e+02   -1.5855744934e+02
    1.1899870300e+02   -1.5848457336e+02
    1.1909860229e+02   -1.5841088867e+02
    1.1919860077e+02   -1.5833639526e+02
    1.1929859924e+02   -1.5826115417e+02
    1.1939859772e+02   -1.5818519592e+02
    1.1949859619e+02   -1.5810852051e+02
    1.1959860229e+02   -1.5803114319e+02
    1.1969860077e+02   -1.5795307922e+02
    1.1979859924e+02   -1.5787432861e+02
    1.1989869690e+02   -1.5779489136e+02
    1.1999859619e+02   -1.5771478271e+02
    1.2009860229e+02   -1.5763397217e+02
    1.2019860077e+02   -1.5755249023e+02
    1.2029869843e+02   -1.5747032166e+02
    1.2039859772e+02   -1.5738746643e+02
    1.2049870300e+02   -1.5730389404e+02
    1.2059860229e+02   -1.5721961975e+02
    1.2069860077e+02   -1.5713461304e+02
    1.2079859924e+02   -1.5704884338e+02
    1.2089859772e+02   -1.5696228027e+02
    1.2099859619e+02   -1.5687492371e+02
    1.2109860229e+02   -1.5678674316e+02
    1.2119860077e+02   -1.5669772339e+02
    1.2129869843e+02   -1.5660786438e+02
    1.2139859772e+02   -1.5651715088e+02
    1.2149870300e+02   -1.5642559814e+02
    1.2159860229e+02   -1.5633319092e+02
    1.2169860077e+02   -1.5623995972e+02
    1.2179869843e+02   -1.5614587402e+02
    1.2189869690e+02   -1.5605097961e+02
    1.2199870300e+02   -1.5595524597e+02
    1.2209860229e+02   -1.5585873413e+02
    1.2219869995e+02   -1.5576142883e+02
    1.2229850006e+02   -1.5566337585e+02
    1.2239859772e+02   -1.5556454468e+02
    1.2249849701e+02   -1.5546496582e+02
    1.2259860229e+02   -1.5536460876e+02
    1.2269860077e+02   -1.5526350403e+02
    1.2279859924e+02   -1.5516162109e+02
    1.2289859772e+02   -1.5505892944e+02
    1.2299870300e+02   -1.5495545959e+02
    1.2309850311e+02   -1.5485119629e+02
    1.2319850159e+02   -1.5474612427e+02
    1.2329850006e+02   -1.5464027405e+02
    1.2339849854e+02   -1.5453361511e+02
    1.2349870300e+02   -1.5442613220e+02
    1.2359870148e+02   -1.5431784058e+02
    1.2369869995e+02   -1.5420870972e+02
    1.2379859924e+02   -1.5409873962e+02
    1.2389859772e+02   -1.5398794556e+02
    1.2399849701e+02   -1.5387635803e+02
    1.2409870148e+02   -1.5376396179e+02
    1.2419860077e+02   -1.5365080261e+02
    1.2429850006e+02   -1.5353688049e+02
    1.2439859772e+02   -1.5342218018e+02
    1.2449859619e+02   -1.5330671692e+02
    1.2459860229e+02   -1.5319049072e+02
    1.2469860077e+02   -1.5307350159e+02
    1.2479850006e+02   -1.5295574951e+02
    1.2489869690e+02   -1.5283726501e+02
    1.2499859619e+02   -1.5271806335e+02
    1.2509860229e+02   -1.5259814453e+02
    1.2519850159e+02   -1.5247752380e+02
    1.2529859924e+02   -1.5235618591e+02
    1.2539849854e+02   -1.5223411560e+02
    1.2549859619e+02   -1.5211132812e+02
    1.2559850311e+02   -1.5198780823e+02
    1.2569850159e+02   -1.5186352539e+02
    1.2579859924e+02   -1.5173849487e+02
    1.2589859772e+02   -1.5161273193e+02
    1.2599859619e+02   -1.5148623657e+02
    1.2609850311e+02   -1.5135900879e+02
    1.2619860077e+02   -1.5123106384e+02
    1.2629850006e+02   -1.5110241699e+02
    1.2639849854e+02   -1.5097305298e+02
    1.2649849701e+02   -1.5084298706e+02
    1.2659860229e+02   -1.5071223450e+02
    1.2669850159e+02   -1.5058079529e+02
    1.2679859924e+02   -1.5044869995e+02
    1.2689849854e+02   -1.5031596375e+02
    1.2699839783e+02   -1.5018261719e+02
    1.2709860229e+02   -1.5004867554e+02
    1.2719850159e+02   -1.4991416931e+02
    1.2729850006e+02   -1.4977906799e+02
    1.2739859772e+02   -1.4964340210e+02
    1.2749849701e+02   -1.4950712585e+02
    1.2759850311e+02   -1.4937022400e+02
    1.2769860077e+02   -1.4923269653e+02
    1.2779859924e+02   -1.4909449768e+02
    1.2789849854e+02   -1.4895559692e+02
    1.2799839783e+02   -1.4881599426e+02
    1.2809849548e+02   -1.4867568970e+02
    1.2819850159e+02   -1.4853466797e+02
    1.2829859924e+02   -1.4839292908e+02
    1.2839849854e+02   -1.4825045776e+02
    1.2849859619e+02   -1.4810726929e+02
    1.2859860229e+02   -1.4796333313e+02
    1.2869859314e+02   -1.4781866455e+02
    1.2879859924e+02   -1.4767326355e+02
    1.2889849854e+02   -1.4752713013e+02
    1.2899850464e+02   -1.4738029480e+02
    1.2909860229e+02   -1.4723281860e+02
    1.2919859314e+02   -1.4708471680e+02
    1.2929870605e+02   -1.4693603516e+02
    1.2939869690e+02   -1.4678683472e+02
    1.2949859619e+02   -1.4663714600e+02
    1.2959860229e+02   -1.4648696899e+02
    1.2969869995e+02   -1.4633634949e+02
    1.2979870605e+02   -1.4618527222e+02
    1.2989849854e+02   -1.4603372192e+02
    1.2999859619e+02   -1.4588169861e+02
    1.3009860229e+02   -1.4572918701e+02
    1.3019869995e+02   -1.4557618713e+02
    1.3029870605e+02   -1.4542268372e+02
    1.3039869690e+02   -1.4526870728e+02
    1.3049859619e+02   -1.4511427307e+02
    1.3059880066e+02   -1.4495939636e+02
    1.3069869995e+02   -1.4480409241e+02
    1.3079870605e+02   -1.4464839172e+02
    1.3089860535e+02   -1.4449232483e+02
    1.3099870300e+02   -1.4433592224e+02
    1.3109869385e+02   -1.4417918396e+02
    1.3119880676e+02   -1.4402212524e+02
    1.3129879761e+02   -1.4386476135e+02
    1.3139880371e+02   -1.4370707703e+02
    1.3149870300e+02   -1.4354904175e+02
    1.3159880066e+02   -1.4339064026e+02
    1.3169869995e+02   -1.4323188782e+02
    1.3179879761e+02   -1.4307273865e+02
    1.3189880371e+02   -1.4291316223e+02
    1.3199879456e+02   -1.4275315857e+02
    1.3209869385e+02   -1.4259271240e+02
    1.3219869995e+02   -1.4243179321e+02
    1.3229870605e+02   -1.4227038574e+02
    1.3239869690e+02   -1.4210850525e+02
    1.3249870300e+02   -1.4194612122e+02
    1.3259880066e+02   -1.4178324890e+02
    1.3269880676e+02   -1.4161988831e+02
    1.3279890442e+02   -1.4145602417e+02
    1.3289880371e+02   -1.4129165649e+02
    1.3299890137e+02   -1.4112678528e+02
    1.3309890747e+02   -1.4096138000e+02
    1.3319880676e+02   -1.4079544067e+02
    1.3329879761e+02   -1.4062896729e+02
    1.3339880371e+02   -1.4046191406e+02
    1.3349890137e+02   -1.4029431152e+02
    1.3359890747e+02   -1.4012617493e+02
    1.3369889832e+02   -1.3995747375e+02
    1.3379879761e+02   -1.3978823853e+02
    1.3389880371e+02   -1.3961851501e+02
    1.3399890137e+02   -1.3944831848e+02
    1.3409890747e+02   -1.3927767944e+02
    1.3419889832e+02   -1.3910664368e+02
    1.3429879761e+02   -1.3893524170e+02
    1.3439900208e+02   -1.3876350403e+02
    1.3449899292e+02   -1.3859143066e+02
    1.3459890747e+02   -1.3841902161e+02
    1.3469900513e+02   -1.3824630737e+02
    1.3479899597e+02   -1.3807325745e+02
    1.3489900208e+02   -1.3789990234e+02
    1.3499899292e+02   -1.3772624207e+02
    1.3509880066e+02   -1.3755232239e+02
    1.3519900513e+02   -1.3737814331e+02
    1.3529890442e+02   -1.3720375061e+02
    1.3539900208e+02   -1.3702922058e+02
    1.3549899292e+02   -1.3685453796e+02
    1.3559890747e+02   -1.3667974854e+02
    1.3569909668e+02   -1.3650491333e+02
    1.3579899597e+02   -1.3633000183e+02
    1.3589889526e+02   -1.3615505981e+02
    1.3599909973e+02   -1.3598008728e+02
    1.3609899902e+02   -1.3580503845e+02
    1.3619900513e+02   -1.3562994385e+02
    1.3629899597e+02   -1.3545475769e+02
    1.3639900208e+02   -1.3527944946e+02
    1.3649899292e+02   -1.3510400391e+02
    1.3659899902e+02   -1.3492839050e+02
    1.3669900513e+02   -1.3475254822e+02
    1.3679899597e+02   -1.3457647705e+02
    1.3689900208e+02   -1.3440013123e+02
    1.3699899292e+02   -1.3422349548e+02
    1.3709899902e+02   -1.3404655457e+02
    1.3719900513e+02   -1.3386932373e+02
    1.3729910278e+02   -1.3369178772e+02
    1.3739920044e+02   -1.3351399231e+02
    1.3749909973e+02   -1.3333595276e+02
    1.3759899902e+02   -1.3315769958e+02
    1.3769909668e+02   -1.3297927856e+02
    1.3779910278e+02   -1.3280070496e+02
    1.3789909363e+02   -1.3262200928e+02
    1.3799909973e+02   -1.3244323730e+02
    1.3809919739e+02   -1.3226438904e+02
    1.3819909668e+02   -1.3208551025e+02
    1.3829919434e+02   -1.3190663147e+02
    1.3839920044e+02   -1.3172772217e+02
    1.3849920654e+02   -1.3154881287e+02
    1.3859919739e+02   -1.3136990356e+02
    1.3869920349e+02   -1.3119102478e+02
    1.3879910278e+02   -1.3101214600e+02
    1.3889930725e+02   -1.3083328247e+02
    1.3899920654e+02   -1.3065441895e+02
    1.3909930420e+02   -1.3047558594e+02
    1.3919909668e+02   -1.3029676819e+02
    1.3929919434e+02   -1.3011795044e+02
    1.3939920044e+02   -1.2993916321e+02
    1.3949920654e+02   -1.2976037598e+02
    1.3959919739e+02   -1.2958160400e+02
    1.3969920349e+02   -1.2940284729e+02
    1.3979930115e+02   -1.2922409058e+02
    1.3989920044e+02   -1.2904533386e+02
    1.3999920654e+02   -1.2886659241e+02
    1.4009919739e+02   -1.2868786621e+02
    1.4019929504e+02   -1.2850914001e+02
    1.4029930115e+02   -1.2833041382e+02
    1.4039930725e+02   -1.2815168762e+02
    1.4049920654e+02   -1.2797295380e+02
    1.4059919739e+02   -1.2779422760e+02
    1.4069920349e+02   -1.2761550140e+02
    1.4079930115e+02   -1.2743677521e+02
    1.4089939880e+02   -1.2725805664e+02
    1.4099940491e+02   -1.2707936096e+02
    1.4109919739e+02   -1.2690067291e+02
    1.4119929504e+02   -1.2672200012e+02
    1.4129930115e+02   -1.2654332733e+02
    1.4139920044e+02   -1.2636465454e+02
    1.4149940491e+02   -1.2618598175e+02
    1.4159930420e+02   -1.2600730896e+02
    1.4169929504e+02   -1.2582863617e+02
    1.4179939270e+02   -1.2564994812e+02
    1.4189939880e+02   -1.2547125244e+02
    1.4199940491e+02   -1.2529253387e+02
    1.4209939575e+02   -1.2511380768e+02
    1.4219940186e+02   -1.2493506622e+02
    1.4229949951e+02   -1.2475630951e+02
    1.4239939880e+02   -1.2457754517e+02
    1.4249940491e+02   -1.2439876556e+02
    1.4259939575e+02   -1.2421995544e+02
    1.4269940186e+02   -1.2404113007e+02
    1.4279939270e+02   -1.2386229706e+02
    1.4289950562e+02   -1.2368344116e+02
    1.4299940491e+02   -1.2350456238e+02
    1.4309939575e+02   -1.2332566071e+02
    1.4319949341e+02   -1.2314672852e+02
    1.4329939270e+02   -1.2296778107e+02
    1.4339950562e+02   -1.2278881836e+02
    1.4349940491e+02   -1.2260984802e+02
    1.4359950256e+02   -1.2243087769e+02
    1.4369949341e+02   -1.2225191498e+02
    1.4379949951e+02   -1.2207298279e+02
    1.4389950562e+02   -1.2189408875e+02
    1.4399940491e+02   -1.2171525574e+02
    1.4409950256e+02   -1.2153649902e+02
    1.4419949341e+02   -1.2135784149e+02
    1.4429949951e+02   -1.2117930603e+02
    1.4439950562e+02   -1.2100092316e+02
    1.4449940491e+02   -1.2082272339e+02
    1.4459950256e+02   -1.2064473724e+02
    1.4469949341e+02   -1.2046697998e+02
    1.4479949951e+02   -1.2028948212e+02
    1.4489959717e+02   -1.2011225891e+02
    1.4499949646e+02   -1.1993531036e+02
    1.4509950256e+02   -1.1975862885e+02
    1.4519960022e+02   -1.1958221436e+02
    1.4529960632e+02   -1.1940604401e+02
    1.4539950562e+02   -1.1923010254e+02
    1.4549960327e+02   -1.1905438232e+02
    1.4559959412e+02   -1.1887886810e+02
    1.4569960022e+02   -1.1870354462e+02
    1.4579960632e+02   -1.1852841187e+02
    1.4589959717e+02   -1.1835345459e+02
    1.4599969482e+02   -1.1817867279e+02
    1.4609970093e+02   -1.1800407410e+02
    1.4619960022e+02   -1.1782965088e+02
    1.4629960632e+02   -1.1765542603e+02
    1.4639959717e+02   -1.1748139954e+02
    1.4649969482e+02   -1.1730757904e+02
    1.4659959412e+02   -1.1713397217e+02
    1.4669970703e+02   -1.1696059418e+02
    1.4679960632e+02   -1.1678742218e+02
    1.4689970398e+02   -1.1661447906e+02
    1.4699960327e+02   -1.1644174194e+02
    1.4709959412e+02   -1.1626918793e+02
    1.4719970703e+02   -1.1609681702e+02
    1.4729960632e+02   -1.1592460632e+02
    1.4739979553e+02   -1.1575256348e+02
    1.4749960327e+02   -1.1558067322e+02
    1.4759970093e+02   -1.1540892792e+02
    1.4769970703e+02   -1.1523735046e+02
    1.4779969788e+02   -1.1506595612e+02
    1.4789970398e+02   -1.1489480591e+02
    1.4799980164e+02   -1.1472394562e+02
    1.4809970093e+02   -1.1455344391e+02
    1.4819979858e+02   -1.1438335419e+02
    1.4829969788e+02   -1.1421375275e+02
    1.4839970398e+02   -1.1404472351e+02
    1.4849980164e+02   -1.1387633514e+02
    1.4859979248e+02   -1.1370865631e+02
    1.4869979858e+02   -1.1354175568e+02
    1.4879969788e+02   -1.1337567139e+02
    1.4889990234e+02   -1.1321044159e+02
    1.4899980164e+02   -1.1304608154e+02
    1.4909970093e+02   -1.1288259888e+02
    1.4919979858e+02   -1.1271998596e+02
    1.4929980469e+02   -1.1255821228e+02
    1.4939990234e+02   -1.1239725494e+02
    1.4949980164e+02   -1.1223706055e+02
    1.4959989929e+02   -1.1207758331e+02
    1.4969979858e+02   -1.1191876984e+02
    1.4979980469e+02   -1.1176055908e+02
    1.4989979553e+02   -1.1160290527e+02
    1.4999989319e+02   -1.1144573975e+02
    1.5009979248e+02   -1.1128901672e+02
    1.5019979858e+02   -1.1113269043e+02
    1.5029989624e+02   -1.1097672272e+02
    1.5039990234e+02   -1.1082108307e+02
    1.5049980164e+02   -1.1066574097e+02
    1.5059989929e+02   -1.1051067352e+02
    1.5069999695e+02   -1.1035585785e+02
    1.5080000305e+02   -1.1020128632e+02
    1.5089999390e+02   -1.1004695892e+02
    1.5099989319e+02   -1.0989286041e+02
    1.5109989929e+02   -1.0973902130e+02
    1.5119990540e+02   -1.0958543396e+02
    1.5130000305e+02   -1.0943212128e+02
    1.5139999390e+02   -1.0927909088e+02
    1.5149989319e+02   -1.0912635803e+02
    1.5159989929e+02   -1.0897393036e+02
    1.5169990540e+02   -1.0882179260e+02
    1.5180000305e+02   -1.0866994476e+02
    1.5189999390e+02   -1.0851838684e+02
    1.5200010681e+02   -1.0836708069e+02
    1.5209989929e+02   -1.0821601868e+02
    1.5219999695e+02   -1.0806518555e+02
    1.5229989624e+02   -1.0791454315e+02
    1.5239990234e+02   -1.0776406860e+02
    1.5250000000e+02   -1.0761375427e+02
    1.5259989929e+02   -1.0746355438e+02
    1.5270010376e+02   -1.0731346130e+02
    1.5279989624e+02   -1.0716344452e+02
    1.5289999390e+02   -1.0701350403e+02
    1.5300010681e+02   -1.0686362457e+02
    1.5310000610e+02   -1.0671382904e+02
    1.5319999695e+02   -1.0656410980e+02
    1.5330000305e+02   -1.0641448975e+02
    1.5339999390e+02   -1.0626497650e+02
    1.5350010681e+02   -1.0611560822e+02
    1.5360000610e+02   -1.0596640015e+02
    1.5369999695e+02   -1.0581739044e+02
    1.5380009460e+02   -1.0566860199e+02
    1.5390010071e+02   -1.0552008057e+02
    1.5400019836e+02   -1.0537188721e+02
    1.5410009766e+02   -1.0522406006e+02
    1.5420010376e+02   -1.0507667542e+02
    1.5430009460e+02   -1.0492979431e+02
    1.5440020752e+02   -1.0478350830e+02
    1.5450010681e+02   -1.0463790131e+02
    1.5460009766e+02   -1.0449307251e+02
    1.5470010376e+02   -1.0434912872e+02
    1.5480020142e+02   -1.0420616913e+02
    1.5490010071e+02   -1.0406428528e+02
    1.5500019836e+02   -1.0392354584e+02
    1.5510029602e+02   -1.0378401184e+02
    1.5520010376e+02   -1.0364572906e+02
    1.5530020142e+02   -1.0350869751e+02
    1.5540020752e+02   -1.0337293243e+02
    1.5550019836e+02   -1.0323838806e+02
    1.5560009766e+02   -1.0310502625e+02
    1.5570010376e+02   -1.0297277069e+02
    1.5580029297e+02   -1.0284154510e+02
    1.5590020752e+02   -1.0271125793e+02
    1.5600030518e+02   -1.0258180237e+02
    1.5610009766e+02   -1.0245309448e+02
    1.5620019531e+02   -1.0232502747e+02
    1.5630020142e+02   -1.0219752502e+02
    1.5640020752e+02   -1.0207051086e+02
    1.5650030518e+02   -1.0194391632e+02
    1.5660020447e+02   -1.0181769562e+02
    1.5670019531e+02   -1.0169181824e+02
    1.5680020142e+02   -1.0156623077e+02
    1.5690029907e+02   -1.0144089508e+02
    1.5700030518e+02   -1.0131579590e+02
    1.5710020447e+02   -1.0119087982e+02
    1.5720039368e+02   -1.0106612396e+02
    1.5730029297e+02   -1.0094147491e+02
    1.5740029907e+02   -1.0081691742e+02
    1.5750019836e+02   -1.0069242096e+02
    1.5760029602e+02   -1.0056797028e+02
    1.5770030212e+02   -1.0044355774e+02
    1.5780029297e+02   -1.0031919098e+02
    1.5790040588e+02   -1.0019489288e+02
    1.5800039673e+02   -1.0007069397e+02
    1.5810040283e+02   -9.9946647644e+01
    1.5820039368e+02   -9.9822799683e+01
    1.5830029297e+02   -9.9699226379e+01
    1.5840040588e+02   -9.9575996399e+01
    1.5850039673e+02   -9.9453186035e+01
    1.5860040283e+02   -9.9330886841e+01
    1.5870039368e+02   -9.9209167480e+01
    1.5880039978e+02   -9.9088088989e+01
    1.5890029907e+02   -9.8967727661e+01
    1.5900039673e+02   -9.8848136902e+01
    1.5910040283e+02   -9.8729354858e+01
    1.5920039368e+02   -9.8611419678e+01
    1.5930039978e+02   -9.8494346619e+01
    1.5940049744e+02   -9.8378150940e+01
    1.5950050354e+02   -9.8262809753e+01
    1.5960040283e+02   -9.8148315430e+01
    1.5970039368e+02   -9.8034629822e+01
    1.5980039978e+02   -9.7921714783e+01
    1.5990049744e+02   -9.7809539795e+01
    1.6000039673e+02   -9.7698043823e+01
    1.6010049438e+02   -9.7587203979e+01
    1.6020060730e+02   -9.7476982117e+01
    1.6030050659e+02   -9.7367370605e+01
    1.6040049744e+02   -9.7258361816e+01
    1.6050050354e+02   -9.7149955750e+01
    1.6060049438e+02   -9.7042175293e+01
    1.6070060730e+02   -9.6935035706e+01
    1.6080039978e+02   -9.6828552246e+01
    1.6090049744e+02   -9.6722755432e+01
    1.6100050354e+02   -9.6617668152e+01
    1.6110049438e+02   -9.6513336182e+01
    1.6120060730e+02   -9.6409774780e+01
    1.6130059814e+02   -9.6307029724e+01
    1.6140049744e+02   -9.6205093384e+01
    1.6150059509e+02   -9.6103996277e+01
    1.6160049438e+02   -9.6003738403e+01
    1.6170060730e+02   -9.5904289246e+01
    1.6180070496e+02   -9.5805641174e+01
    1.6190049744e+02   -9.5707748413e+01
    1.6200050354e+02   -9.5610572815e+01
    1.6210049438e+02   -9.5514068604e+01
    1.6220060730e+02   -9.5418182373e+01
    1.6230070496e+02   -9.5322853088e+01
    1.6240069580e+02   -9.5228027344e+01
    1.6250070190e+02   -9.5133651733e+01
    1.6260060120e+02   -9.5039695740e+01
    1.6270060730e+02   -9.4946098328e+01
    1.6280059814e+02   -9.4852836609e+01
    1.6290069580e+02   -9.4759864807e+01
    1.6300070190e+02   -9.4667190552e+01
    1.6310069275e+02   -9.4574790955e+01
    1.6320060730e+02   -9.4482666016e+01
    1.6330059814e+02   -9.4390823364e+01
    1.6340069580e+02   -9.4299270630e+01
    1.6350070190e+02   -9.4208030701e+01
    1.6360069275e+02   -9.4117118835e+01
    1.6370069885e+02   -9.4026565552e+01
    1.6380070496e+02   -9.3936401367e+01
    1.6390080261e+02   -9.3846649170e+01
    1.6400070190e+02   -9.3757347107e+01
    1.6410060120e+02   -9.3668525696e+01
    1.6420069885e+02   -9.3580230713e+01
    1.6430059814e+02   -9.3492485046e+01
    1.6440069580e+02   -9.3405319214e+01
    1.6450079346e+02   -9.3318756104e+01
    1.6460079956e+02   -9.3232826233e+01
    1.6470080566e+02   -9.3147544861e+01
    1.6480079651e+02   -9.3062927246e+01
    1.6490069580e+02   -9.2978996277e+01
    1.6500070190e+02   -9.2895759583e+01
    1.6510069275e+02   -9.2813232422e+01
    1.6520069885e+02   -9.2731422424e+01
    1.6530079651e+02   -9.2650329590e+01
    1.6540080261e+02   -9.2569976807e+01
    1.6550079346e+02   -9.2490364075e+01
    1.6560079956e+02   -9.2411506653e+01
    1.6570080566e+02   -9.2333435059e+01
    1.6580079651e+02   -9.2256156921e+01
    1.6590080261e+02   -9.2179687500e+01
    1.6600079346e+02   -9.2104042053e+01
    1.6610090637e+02   -9.2029235840e+01
    1.6620089722e+02   -9.1955268860e+01
    1.6630090332e+02   -9.1882148743e+01
    1.6640080261e+02   -9.1809867859e+01
    1.6650090027e+02   -9.1738418579e+01
    1.6660090637e+02   -9.1667770386e+01
    1.6670089722e+02   -9.1597908020e+01
    1.6680090332e+02   -9.1528800964e+01
    1.6690089417e+02   -9.1460403442e+01
    1.6700090027e+02   -9.1392662048e+01
    1.6710099792e+02   -9.1325523376e+01
    1.6720089722e+02   -9.1258926392e+01
    1.6730079651e+02   -9.1192825317e+01
    1.6740100098e+02   -9.1127151489e+01
    1.6750100708e+02   -9.1061859131e+01
    1.6760090637e+02   -9.0996871948e+01
    1.6770089722e+02   -9.0932159424e+01
    1.6780090332e+02   -9.0867675781e+01
    1.6790089417e+02   -9.0803390503e+01
    1.6800100708e+02   -9.0739295959e+01
    1.6810099792e+02   -9.0675369263e+01
    1.6820100403e+02   -9.0611618042e+01
    1.6830090332e+02   -9.0548049927e+01
    1.6840100098e+02   -9.0484695435e+01
    1.6850109863e+02   -9.0421577454e+01
    1.6860090637e+02   -9.0358741760e+01
    1.6870100403e+02   -9.0296234131e+01
    1.6880090332e+02   -9.0234092712e+01
    1.6890089417e+02   -9.0172378540e+01
    1.6900109863e+02   -9.0111114502e+01
    1.6910090637e+02   -9.0050354004e+01
    1.6920089722e+02   -8.9990158081e+01
    1.6930090332e+02   -8.9930572510e+01
    1.6940109253e+02   -8.9871650696e+01
    1.6950100708e+02   -8.9813446045e+01
    1.6960110474e+02   -8.9755989075e+01
    1.6970109558e+02   -8.9699317932e+01
    1.6980110168e+02   -8.9643440247e+01
    1.6990109253e+02   -8.9588378906e+01
    1.7000109863e+02   -8.9534118652e+01
    1.7010110474e+02   -8.9480651855e+01
    1.7020100403e+02   -8.9427955627e+01
    1.7030099487e+02   -8.9376007080e+01
    1.7040119934e+02   -8.9324775696e+01
    1.7050100708e+02   -8.9274223328e+01
    1.7060119629e+02   -8.9224304199e+01
    1.7070100403e+02   -8.9174980164e+01
    1.7080119324e+02   -8.9126228333e+01
    1.7090109253e+02   -8.9078010559e+01
    1.7100109863e+02   -8.9030296326e+01
    1.7110119629e+02   -8.8983039856e+01
    1.7120109558e+02   -8.8936225891e+01
    1.7130110168e+02   -8.8889839172e+01
    1.7140119934e+02   -8.8843864441e+01
    1.7150109863e+02   -8.8798301697e+01
    1.7160119629e+02   -8.8753166199e+01
    1.7170109558e+02   -8.8708473206e+01
    1.7180119324e+02   -8.8664245605e+01
    1.7190109253e+02   -8.8620483398e+01
    1.7200120544e+02   -8.8577217102e+01
    1.7210119629e+02   -8.8534446716e+01
    1.7220120239e+02   -8.8492179871e+01
    1.7230130005e+02   -8.8450416565e+01
    1.7240119934e+02   -8.8409164429e+01
    1.7250129700e+02   -8.8368408203e+01
    1.7260130310e+02   -8.8328140259e+01
    1.7270129395e+02   -8.8288360596e+01
    1.7280130005e+02   -8.8249038696e+01
    1.7290130615e+02   -8.8210159302e+01
    1.7300120544e+02   -8.8171707153e+01
    1.7310130310e+02   -8.8133666992e+01
    1.7320129395e+02   -8.8096008301e+01
    1.7330119324e+02   -8.8058723450e+01
    1.7340130615e+02   -8.8021789551e+01
    1.7350129700e+02   -8.7985183716e+01
    1.7360130310e+02   -8.7948883057e+01
    1.7370120239e+02   -8.7912872314e+01
    1.7380130005e+02   -8.7877151489e+01
    1.7390130615e+02   -8.7841697693e+01
    1.7400129700e+02   -8.7806503296e+01
    1.7410130310e+02   -8.7771560669e+01
    1.7420129395e+02   -8.7736869812e+01
    1.7430130005e+02   -8.7702415466e+01
    1.7440119934e+02   -8.7668212891e+01
    1.7450129700e+02   -8.7634269714e+01
    1.7460139465e+02   -8.7600578308e+01
    1.7470140076e+02   -8.7567153931e+01
    1.7480130005e+02   -8.7534011841e+01
    1.7490130615e+02   -8.7501152039e+01
    1.7500129700e+02   -8.7468597412e+01
    1.7510130310e+02   -8.7436340332e+01
    1.7520140076e+02   -8.7404388428e+01
    1.7530130005e+02   -8.7372734070e+01
    1.7540130615e+02   -8.7341384888e+01
    1.7550140381e+02   -8.7310325623e+01
    1.7560139465e+02   -8.7279556274e+01
    1.7570140076e+02   -8.7249084473e+01
    1.7580149841e+02   -8.7218887329e+01
    1.7590150452e+02   -8.7188987732e+01
    1.7600149536e+02   -8.7159362793e+01
    1.7610130310e+02   -8.7130012512e+01
    1.7620150757e+02   -8.7100936890e+01
    1.7630149841e+02   -8.7072128296e+01
    1.7640150452e+02   -8.7043601990e+01
    1.7650140381e+02   -8.7015335083e+01
    1.7660150146e+02   -8.6987335205e+01
    1.7670159912e+02   -8.6959594727e+01
    1.7680160522e+02   -8.6932090759e+01
    1.7690159607e+02   -8.6904808044e+01
    1.7700160217e+02   -8.6877731323e+01
    1.7710159302e+02   -8.6850845337e+01
    1.7720150757e+02   -8.6824111938e+01
    1.7730149841e+02   -8.6797508240e+01
    1.7740150452e+02   -8.6771011353e+01
    1.7750160217e+02   -8.6744613647e+01
    1.7760150146e+02   -8.6718315125e+01
    1.7770159912e+02   -8.6692108154e+01
    1.7780149841e+02   -8.6666030884e+01
    1.7790159607e+02   -8.6640121460e+01
    1.7800160217e+02   -8.6614418030e+01
    1.7810150146e+02   -8.6588996887e+01
    1.7820150757e+02   -8.6563941956e+01
    1.7830169678e+02   -8.6539344788e+01
    1.7840170288e+02   -8.6515335083e+01
    1.7850160217e+02   -8.6492057800e+01
    1.7860159302e+02   -8.6469657898e+01
    1.7870159912e+02   -8.6448310852e+01
    1.7880169678e+02   -8.6428222656e+01
    1.7890170288e+02   -8.6409591675e+01
    1.7900160217e+02   -8.6392639160e+01
    1.7910169983e+02   -8.6377563477e+01
    1.7920159912e+02   -8.6364540100e+01
    1.7930149841e+02   -8.6353698730e+01
    1.7940159607e+02   -8.6345115662e+01
    1.7950169373e+02   -8.6338768005e+01
    1.7960169983e+02   -8.6334526062e+01
    1.7970170593e+02   -8.6332122803e+01
    1.7980169678e+02   -8.6331123352e+01
    1.7990170288e+02   -8.6330909729e+01
endcurve
