Curveplot
LS-DYNA keyword deck by LS-PrePost
Yrot-displ
phi moment-stiffness
Joint Stiff
300001 #pts=1000
* Minval= -9.534067382813e+003 at time=       0.028462786227
* Maxval=  1.331994335938e+004 at time=       2.111361742020
 1.942257910059e-009  2.055264310911e-003
 1.878013522472e-009  5.748256109655e-003
 1.424557138918e-009  1.056847441941e-002
 4.367878836398e-010  1.630095019937e-002
-1.221822309994e-009  2.245856076479e-002
-3.650924007559e-009  2.819980494678e-002
-6.911655248132e-009  3.203789517283e-002
-1.082787548512e-008  3.222155198455e-002
-1.506735891610e-008  2.707652747631e-002
-1.904147772791e-008  1.545259542763e-002
-2.184911629399e-008 -3.964957781136e-003
-2.197158543993e-008 -3.295789659023e-002
-1.777280544957e-008 -7.078213244677e-002
-7.332846330144e-009 -1.155006140471e-001
 1.126819260122e-008 -1.629543900490e-001
 3.974695061970e-008 -2.059888392687e-001
 7.969833859534e-008 -2.304328978062e-001
 1.298333245359e-007 -2.186879515648e-001
 1.870608912213e-007 -1.517823636532e-001
 2.452572971379e-007 -1.364398933947e-002
 2.947897144168e-007  2.053737938404e-001
 3.194022042408e-007  5.077164173126e-001
 3.007360476204e-007  8.713864088058e-001
 2.174799078603e-007  1.266090750694e+000
 4.593795210894e-008  1.653311014175e+000
-2.381465549206e-007  1.988777041435e+000
-6.674232508885e-007  2.220844745636e+000
-1.258766246792e-006  2.313253879547e+000
-2.030222958638e-006  2.237528800964e+000
-2.994685246449e-006  1.976477146149e+000
-4.162525783613e-006  1.526233553886e+000
-5.547665296035e-006  8.899604082108e-001
-7.142582944653e-006  1.018920242786e-001
-8.937580787460e-006 -7.987115383148e-001
-1.092330239771e-005 -1.768841028214e+000
-1.308883202000e-005 -2.764638900757e+000
-1.542204518046e-005 -3.743261575699e+000
-1.790231181076e-005 -4.687135696411e+000
-2.050696457445e-005 -5.610536575317e+000
-2.321880128875e-005 -6.574606418610e+000
-2.601828600746e-005 -7.697533130646e+000
-2.889427014452e-005 -9.204236984253e+000
-3.181894498994e-005 -1.137724590302e+001
-3.477542486507e-005 -1.457035446167e+001
-3.774063588935e-005 -1.919028472900e+001
-4.068121052114e-005 -2.563906288147e+001
-4.355775308795e-005 -3.438942718506e+001
-4.631696356228e-005 -4.551081085205e+001
-4.890175114269e-005 -5.880145645142e+001
-5.124004746904e-005 -7.362213897705e+001
-5.324686208041e-005 -8.870578002930e+001
-5.481329208123e-005 -1.018577575684e+002
-5.586116458289e-005 -1.099768829346e+002
-5.633166438201e-005 -1.093754577637e+002
-5.618501018034e-005 -9.575969696045e+001
-5.542518556467e-005 -6.465338897705e+001
-5.409356890596e-005 -1.085011482239e+001
-5.236494689598e-005  6.739805603027e+001
-5.047561717220e-005  1.688303833008e+002
-4.873105717706e-005  2.880609436035e+002
-4.749810614157e-005  4.133183593750e+002
-4.723112215288e-005  5.231119995117e+002
-4.827737939195e-005  5.854833374023e+002
-5.081281051389e-005  5.607808837891e+002
-5.475336729432e-005  4.015758666992e+002
-5.960285852780e-005  5.680904769897e+001
-6.419617420761e-005 -5.364879150391e+002
-6.644507084275e-005 -1.408699340820e+003
-6.348992610583e-005 -2.559107421875e+003
-5.159069041838e-005 -3.945260986328e+003
-2.622239117045e-005 -5.462049316406e+003
 1.866537058959e-005 -6.909296875000e+003
 8.784509554971e-005 -8.025727050781e+003
 1.848109823186e-004 -8.598208984375e+003
 3.115621220786e-004 -8.512443359375e+003
 4.686209140345e-004 -7.791763183594e+003
 6.548201199621e-004 -6.578557128906e+003
 8.661852916703e-004 -5.126238769531e+003
 1.097629196011e-003 -3.657236816406e+003
 1.344586024061e-003 -2.326885742188e+003
 1.603144686669e-003 -1.221149047852e+003
 1.869721454568e-003 -3.785890197754e+002
 2.141288248822e-003  2.208771209717e+002
 2.415476599708e-003  6.169774780273e+002
 2.690696623176e-003  8.481614379883e+002
 2.966099884361e-003  9.472075805664e+002
 3.241151804104e-003  9.295544433594e+002
 3.515094984323e-003  7.990516357422e+002
 3.788564819843e-003  5.417325439453e+002
 4.061975982040e-003  1.296467285156e+002
 4.336306825280e-003 -4.708413696289e+002
 4.613677971065e-003 -1.297755859375e+003
 4.896835424006e-003 -2.355781494141e+003
 5.189057439566e-003 -3.605556152344e+003
 5.494471639395e-003 -4.959170410156e+003
 5.817350465804e-003 -6.263420410156e+003
 6.163471378386e-003 -7.305901855469e+003
 6.535984110087e-003 -7.880200195313e+003
 6.936783436686e-003 -7.880204101563e+003
 7.366049103439e-003 -7.300130859375e+003
 7.822201587260e-003 -6.244210449219e+003
 8.303794078529e-003 -4.894815429688e+003
 8.805516175926e-003 -3.490924560547e+003
 9.322813712060e-003 -2.225361083984e+003
 9.851858951151e-003 -1.238761840820e+003
 1.038935966790e-002 -6.223800048828e+002
 1.093369256705e-002 -4.394945678711e+002
 1.148427650332e-002 -6.963807373047e+002
 1.204208377749e-002 -1.355517944336e+003
 1.260842289776e-002 -2.355305664063e+003
 1.318664755672e-002 -3.594903808594e+003
 1.378106791526e-002 -4.923203613281e+003
 1.439617387950e-002 -6.137415039063e+003
 1.503568142653e-002 -7.045029785156e+003
 1.570146903396e-002 -7.495639648438e+003
 1.639561541378e-002 -7.418400878906e+003
 1.711811125278e-002 -6.829915527344e+003
 1.786852069199e-002 -5.878037597656e+003
 1.864190399647e-002 -4.778647949219e+003
 1.943561248481e-002 -3.742466552734e+003
 2.024710550904e-002 -2.955290039063e+003
 2.107482403517e-002 -2.570058349609e+003
 2.191802673042e-002 -2.667292724609e+003
 2.277652360499e-002 -3.237654296875e+003
 2.365358546376e-002 -4.220701171875e+003
 2.455206215382e-002 -5.492484375000e+003
 2.547775395215e-002 -6.872670898438e+003
 2.643513120711e-002 -8.129587402344e+003
 2.742928825319e-002 -9.064386718750e+003
 2.846278622746e-002 -9.534067382813e+003
 2.953754179180e-002 -9.479493164063e+003
 3.065444901586e-002 -8.927582031250e+003
 3.181327506900e-002 -8.021440429688e+003
 3.300832584500e-002 -6.964241210938e+003
 3.423678129911e-002 -5.944352539063e+003
 3.549412265420e-002 -5.118171386719e+003
 3.677922859788e-002 -4.596700195313e+003
 3.808964788914e-002 -4.419590820313e+003
 3.942250460386e-002 -4.543297363281e+003
 4.077764227986e-002 -4.886797851563e+003
 4.215564578772e-002 -5.338755371094e+003
 4.355895146728e-002 -5.775444824219e+003
 4.498741403222e-002 -6.084534667969e+003
 4.644259437919e-002 -6.212397949219e+003
 4.792393743992e-002 -6.156318847656e+003
 4.943129420280e-002 -5.963587890625e+003
 5.096843093634e-002 -5.718559082031e+003
 5.253206565976e-002 -5.528902343750e+003
 5.412310361862e-002 -5.479137207031e+003
 5.574113875628e-002 -5.619517578125e+003
 5.738863348961e-002 -5.958443847656e+003
 5.906701460481e-002 -6.462071289063e+003
 6.077953055501e-002 -7.047208984375e+003
 6.252738833427e-002 -7.607830078125e+003
 6.431316584349e-002 -8.047513671875e+003
 6.613538414240e-002 -8.291914062500e+003
 6.800095736980e-002 -8.301963867188e+003
 6.990604847670e-002 -8.092359375000e+003
 7.185061275959e-002 -7.737454589844e+003
 7.383384555578e-002 -7.327397460938e+003
 7.585300505161e-002 -6.958256347656e+003
 7.790912687778e-002 -6.714237792969e+003
 8.000054955482e-002 -6.649065429688e+003
 8.212708681822e-002 -6.757239746094e+003
 8.428864926100e-002 -6.998788085938e+003
 8.648671209812e-002 -7.303781250000e+003
 8.872144669294e-002 -7.586293457031e+003
 9.099732339382e-002 -7.760061523438e+003
 9.331065416336e-002 -7.777913085938e+003
 9.566403180361e-002 -7.630483886719e+003
 9.805621951818e-002 -7.348340332031e+003
 1.004869192839e-001 -6.996174316406e+003
 1.029536202550e-001 -6.665485839844e+003
 1.054589003325e-001 -6.439005859375e+003
 1.079995334148e-001 -6.376397460938e+003
 1.105744838715e-001 -6.504323730469e+003
 1.131837964058e-001 -6.813687988281e+003
 1.158362254500e-001 -7.255151855469e+003
 1.185248717666e-001 -7.741773925781e+003
 1.212567910552e-001 -8.190570312500e+003
 1.240327209234e-001 -8.526547851563e+003
 1.268530488014e-001 -8.696366210938e+003
 1.297227591276e-001 -8.681485351563e+003
 1.326418220997e-001 -8.518366210938e+003
 1.356051117182e-001 -8.264328125000e+003
 1.386141479015e-001 -7.990231445313e+003
 1.416696608067e-001 -7.765618652344e+003
 1.447708904743e-001 -7.646097656250e+003
 1.479161977768e-001 -7.643233886719e+003
 1.511028558016e-001 -7.737491210938e+003
 1.543329358101e-001 -7.881070800781e+003
 1.576061695814e-001 -8.008087402344e+003
 1.609227508307e-001 -8.044252441406e+003
 1.642820090055e-001 -7.944441406250e+003
 1.676815450191e-001 -7.693551757813e+003
 1.711228340864e-001 -7.311382324219e+003
 1.746037006378e-001 -6.849880859375e+003
 1.781245321035e-001 -6.389120117188e+003
 1.816806346178e-001 -6.012216308594e+003
 1.852720081806e-001 -5.783351074219e+003
 1.888965964317e-001 -5.742514160156e+003
 1.925598978996e-001 -5.900092773438e+003
 1.962559223175e-001 -6.231535156250e+003
 1.999918818474e-001 -6.665305175781e+003
 2.037667632103e-001 -7.121395996094e+003
 2.075827568769e-001 -7.516803222656e+003
 2.114434093237e-001 -7.780096191406e+003
 2.153481394053e-001 -7.859462890625e+003
 2.193002551794e-001 -7.762954589844e+003
 2.232946604490e-001 -7.527217773438e+003
 2.273316383362e-001 -7.215999023438e+003
 2.314150333405e-001 -6.906427246094e+003
 2.355405092239e-001 -6.680391113281e+003
 2.397074848413e-001 -6.587732421875e+003
 2.439170628786e-001 -6.648107910156e+003
 2.481655180454e-001 -6.848339355469e+003
 2.524582147598e-001 -7.146521972656e+003
 2.568006217480e-001 -7.475240722656e+003
 2.611831426620e-001 -7.758066894531e+003
 2.656146883965e-001 -7.936930175781e+003
 2.700903415680e-001 -7.975522949219e+003
 2.746145427227e-001 -7.865949707031e+003
 2.791901528835e-001 -7.627720214844e+003
 2.838089168072e-001 -7.317927734375e+003
 2.884743809700e-001 -6.991761230469e+003
 2.931798398495e-001 -6.699886718750e+003
 2.979299426079e-001 -6.477074707031e+003
 3.027237951756e-001 -6.340105957031e+003
 3.075606822968e-001 -6.270685546875e+003
 3.124335408211e-001 -6.238365722656e+003
 3.173480033875e-001 -6.205331054688e+003
 3.223003149033e-001 -6.136800781250e+003
 3.272915184498e-001 -6.007316406250e+003
 3.323237597942e-001 -5.820448242188e+003
 3.373940587044e-001 -5.596831542969e+003
 3.425018191338e-001 -5.371143066406e+003
 3.476418256760e-001 -5.184220214844e+003
 3.528228402138e-001 -5.080434570313e+003
 3.580393195152e-001 -5.082656738281e+003
 3.632935881615e-001 -5.199201171875e+003
 3.685811161995e-001 -5.419083984375e+003
 3.739062845707e-001 -5.712769042969e+003
 3.792753815651e-001 -6.033204101563e+003
 3.846779167652e-001 -6.320804687500e+003
 3.901272714138e-001 -6.526239257813e+003
 3.956170380116e-001 -6.611853027344e+003
 4.011483788490e-001 -6.561119140625e+003
 4.067193567753e-001 -6.376552246094e+003
 4.123353362083e-001 -6.101365722656e+003
 4.179870784283e-001 -5.784949218750e+003
 4.236832261086e-001 -5.479525878906e+003
 4.294110834599e-001 -5.232777832031e+003
 4.351781606674e-001 -5.084082519531e+003
 4.409829676151e-001 -5.040124511719e+003
 4.468190073967e-001 -5.089848632813e+003
 4.526917934418e-001 -5.204251464844e+003
 4.586000144482e-001 -5.341239257813e+003
 4.645386040211e-001 -5.448665039063e+003
 4.705195128918e-001 -5.482880371094e+003
 4.765309691429e-001 -5.416084472656e+003
 4.825806915760e-001 -5.239279296875e+003
 4.886579811573e-001 -4.963621582031e+003
 4.947718083858e-001 -4.614841308594e+003
 5.009166598320e-001 -4.238156250000e+003
 5.070911049843e-001 -3.873566162109e+003
 5.132948160172e-001 -3.556818847656e+003
 5.195206999779e-001 -3.316581542969e+003
 5.257774591446e-001 -3.177947021484e+003
 5.320626497269e-001 -3.144721435547e+003
 5.383698344231e-001 -3.212993164063e+003
 5.447006821632e-001 -3.369015136719e+003
 5.510591864586e-001 -3.589868408203e+003
 5.574514269829e-001 -3.845040283203e+003
 5.638685226440e-001 -4.095568359375e+003
 5.703114271164e-001 -4.308048339844e+003
 5.767905712128e-001 -4.455634277344e+003
 5.832957029343e-001 -4.520569335938e+003
 5.898311734200e-001 -4.493370605469e+003
 5.963986515999e-001 -4.387824218750e+003
 6.030003428459e-001 -4.224912109375e+003
 6.096301078796e-001 -4.031514404297e+003
 6.162855625153e-001 -3.836316406250e+003
 6.229691505432e-001 -3.667366455078e+003
 6.296865940094e-001 -3.542639160156e+003
 6.364265680313e-001 -3.470186767578e+003
 6.431961655617e-001 -3.448391113281e+003
 6.499879360199e-001 -3.467266357422e+003
 6.568094491959e-001 -3.510340820313e+003
 6.636583209038e-001 -3.554979980469e+003
 6.705323457718e-001 -3.581547851563e+003
 6.774322390556e-001 -3.574468750000e+003
 6.843563914299e-001 -3.523994628906e+003
 6.913045048714e-001 -3.425198730469e+003
 6.982803344727e-001 -3.284405517578e+003
 7.052775621414e-001 -3.111819580078e+003
 7.122932076454e-001 -2.919116943359e+003
 7.193312644958e-001 -2.717294677734e+003
 7.263849377632e-001 -2.516785888672e+003
 7.334592342377e-001 -2.324879150391e+003
 7.405439615250e-001 -2.146656250000e+003
 7.476443052292e-001 -1.984843139648e+003
 7.547658085823e-001 -1.841249877930e+003
 7.618896961212e-001 -1.718064453125e+003
 7.690339684486e-001 -1.615254638672e+003
 7.761858701706e-001 -1.533588745117e+003
 7.833490371704e-001 -1.473930297852e+003
 7.905225753784e-001 -1.437366577148e+003
 7.977128624916e-001 -1.426422241211e+003
 8.049106597900e-001 -1.442340332031e+003
 8.121202588081e-001 -1.487071044922e+003
 8.193395733833e-001 -1.563049804688e+003
 8.265783190727e-001 -1.672115722656e+003
 8.338243961334e-001 -1.814794677734e+003
 8.410854339600e-001 -1.985024414063e+003
 8.483573794365e-001 -2.172063720703e+003
 8.556462526321e-001 -2.361502685547e+003
 8.629526495934e-001 -2.534990722656e+003
 8.702717423439e-001 -2.669782470703e+003
 8.776023983955e-001 -2.746888427734e+003
 8.849454522133e-001 -2.755312255859e+003
 8.923048973083e-001 -2.692002685547e+003
 8.996824622154e-001 -2.563661621094e+003
 9.070646166801e-001 -2.385297119141e+003
 9.144643545151e-001 -2.181142822266e+003
 9.218745231628e-001 -1.974597900391e+003
 9.292876124382e-001 -1.784567871094e+003
 9.367149472237e-001 -1.623550415039e+003
 9.441534876823e-001 -1.499191772461e+003
 9.515959620476e-001 -1.410274780273e+003
 9.590365886688e-001 -1.351131591797e+003
 9.664899110794e-001 -1.315071044922e+003
 9.739339947701e-001 -1.295223388672e+003
 9.813871979713e-001 -1.285387939453e+003
 9.888364076614e-001 -1.280199462891e+003
 9.962862133980e-001 -1.276430175781e+003
 1.003733158112e+000 -1.272591064453e+003
 1.011180758476e+000 -1.268415527344e+003
 1.018626332283e+000 -1.264520629883e+003
 1.026072025299e+000 -1.261934814453e+003
 1.033519625664e+000 -1.261498413086e+003
 1.040960550308e+000 -1.263677124023e+003
 1.048404812813e+000 -1.268449218750e+003
 1.055850148201e+000 -1.275338134766e+003
 1.063287496567e+000 -1.283279418945e+003
 1.070733666420e+000 -1.291050903320e+003
 1.078173279762e+000 -1.297406738281e+003
 1.085622549057e+000 -1.301228515625e+003
 1.093064069748e+000 -1.301409667969e+003
 1.100511431694e+000 -1.297238037109e+003
 1.107951760292e+000 -1.288406250000e+003
 1.115403413773e+000 -1.274687744141e+003
 1.122848391533e+000 -1.256068725586e+003
 1.130298972130e+000 -1.232441894531e+003
 1.137746214867e+000 -1.204175903320e+003
 1.145198225975e+000 -1.171895874023e+003
 1.152644276619e+000 -1.136498413086e+003
 1.160091519356e+000 -1.099195190430e+003
 1.167543292046e+000 -1.061797485352e+003
 1.174989700317e+000 -1.026888916016e+003
 1.182438611984e+000 -9.974595336914e+002
 1.189889431000e+000 -9.770283813477e+002
 1.197334885597e+000 -9.695727539063e+002
 1.204781651497e+000 -9.798950195313e+002
 1.212223768234e+000 -1.012025878906e+003
 1.219661831856e+000 -1.067718872070e+003
 1.227084755898e+000 -1.146659301758e+003
 1.234498620033e+000 -1.244890502930e+003
 1.241895794868e+000 -1.352832397461e+003
 1.249282240868e+000 -1.452123046875e+003
 1.256658315659e+000 -1.516820068359e+003
 1.264022588730e+000 -1.513187744141e+003
 1.271370768547e+000 -1.400508300781e+003
 1.278722882271e+000 -1.127050537109e+003
 1.286057829857e+000 -6.430313720703e+002
 1.293392658234e+000  8.096994018555e+001
 1.300703883171e+000  1.055385742188e+003
 1.308009982109e+000  2.257667968750e+003
 1.315288662910e+000  3.608822021484e+003
 1.322538852692e+000  4.942386718750e+003
 1.329759240150e+000  6.040664062500e+003
 1.336941361427e+000  6.694924316406e+003
 1.344091892242e+000  6.767300781250e+003
 1.351205706596e+000  6.224237792969e+003
 1.358281970024e+000  5.191106445313e+003
 1.365323662758e+000  3.897613769531e+003
 1.372337102890e+000  2.552227294922e+003
 1.379325389862e+000  1.319773437500e+003
 1.386291265488e+000  3.066217041016e+002
 1.393235087395e+000 -4.437647705078e+002
 1.400163292885e+000 -9.488256835938e+002
 1.407079458237e+000 -1.240788452148e+003
 1.413974881172e+000 -1.363174682617e+003
 1.420857191086e+000 -1.361502441406e+003
 1.427731633186e+000 -1.281515502930e+003
 1.434586882591e+000 -1.162840087891e+003
 1.441428065300e+000 -1.031668212891e+003
 1.448260068893e+000 -9.059089965820e+002
 1.455074667931e+000 -7.969353637695e+002
 1.461870312691e+000 -7.100529785156e+002
 1.468651294708e+000 -6.444937744141e+002
 1.475413084030e+000 -5.978482666016e+002
 1.482158541679e+000 -5.663536987305e+002
 1.488883733749e+000 -5.460288085938e+002
 1.495589733124e+000 -5.328602905273e+002
 1.502281188965e+000 -5.235195312500e+002
 1.508951067924e+000 -5.163733520508e+002
 1.515601873398e+000 -5.111266479492e+002
 1.522238612175e+000 -5.091509399414e+002
 1.528848290443e+000 -5.137299194336e+002
 1.535444140434e+000 -5.291198730469e+002
 1.542017459869e+000 -5.605202636719e+002
 1.548572897911e+000 -6.132804565430e+002
 1.555113673210e+000 -6.923647460938e+002
 1.561628818512e+000 -8.002565307617e+002
 1.568134903908e+000 -9.327994995117e+002
 1.574623346329e+000 -1.080180908203e+003
 1.581095814705e+000 -1.224403686523e+003
 1.587552905083e+000 -1.336151733398e+003
 1.593995332718e+000 -1.369236572266e+003
 1.600421309471e+000 -1.272263427734e+003
 1.606832623482e+000 -9.844822387695e+002
 1.613220691681e+000 -4.440810852051e+002
 1.619592428207e+000  4.115300598145e+002
 1.625936269760e+000  1.626978271484e+003
 1.632254004478e+000  3.173548339844e+003
 1.638544082642e+000  4.970795898438e+003
 1.644786119461e+000  6.845233398438e+003
 1.650988221169e+000  8.535344726563e+003
 1.657131195068e+000  9.694691406250e+003
 1.663221955299e+000  1.010198242188e+004
 1.669250845909e+000  9.675689453125e+003
 1.675219774246e+000  8.514225585938e+003
 1.681139111519e+000  6.853598144531e+003
 1.686999797821e+000  5.011264160156e+003
 1.692814707756e+000  3.258410888672e+003
 1.698598861694e+000  1.753005615234e+003
 1.704339504242e+000  5.773954467773e+002
 1.710049510002e+000 -2.536515808105e+002
 1.715734124184e+000 -7.629241943359e+002
 1.721388101578e+000 -1.024412597656e+003
 1.727014183998e+000 -1.103160278320e+003
 1.732613921165e+000 -1.062295043945e+003
 1.738184452057e+000 -9.574866333008e+002
 1.743728876114e+000 -8.361784667969e+002
 1.749241590500e+000 -7.334527587891e+002
 1.754727363586e+000 -6.696141357422e+002
 1.760186076164e+000 -6.550822143555e+002
 1.765619039536e+000 -6.911983642578e+002
 1.771024942398e+000 -7.704875488281e+002
 1.776407122612e+000 -8.712735595703e+002
 1.781759142876e+000 -9.653348388672e+002
 1.787088036537e+000 -1.015657104492e+003
 1.792383909225e+000 -9.756583251953e+002
 1.797653198242e+000 -7.820023803711e+002
 1.802890300751e+000 -3.854068603516e+002
 1.808093190193e+000  2.613499755859e+002
 1.813251256943e+000  1.186012573242e+003
 1.818373560905e+000  2.390020019531e+003
 1.823441624641e+000  3.821961425781e+003
 1.828458547592e+000  5.332345214844e+003
 1.833416342735e+000  6.722343261719e+003
 1.838306784630e+000  7.764705078125e+003
 1.843129873276e+000  8.263122070313e+003
 1.847873568535e+000  8.083147460938e+003
 1.852543950081e+000  7.307354003906e+003
 1.857139110565e+000  6.095008300781e+003
 1.861671328545e+000  4.652750976563e+003
 1.866132497787e+000  3.191044677734e+003
 1.870527982712e+000  1.877040161133e+003
 1.874869465828e+000  7.904842529297e+002
 1.879155635834e+000 -4.283854675293e+001
 1.883384823799e+000 -6.335321044922e+002
 1.887565970421e+000 -1.012076416016e+003
 1.891690254211e+000 -1.205310546875e+003
 1.895760536194e+000 -1.256034179688e+003
 1.899778008461e+000 -1.183054077148e+003
 1.903741717339e+000 -9.936839599609e+002
 1.907653927803e+000 -6.850719604492e+002
 1.911508440971e+000 -2.400824279785e+002
 1.915304899216e+000  3.390392761230e+002
 1.919045090675e+000  1.045712890625e+003
 1.922724962234e+000  1.849223022461e+003
 1.926335692406e+000  2.685921142578e+003
 1.929876565933e+000  3.447984863281e+003
 1.933342695236e+000  4.014239257813e+003
 1.936731219292e+000  4.280930664063e+003
 1.940039753914e+000  4.189272460938e+003
 1.943277239799e+000  3.745566650391e+003
 1.946441769600e+000  3.023094482422e+003
 1.949560999870e+000  2.188292968750e+003
 1.952656149864e+000  1.407764038086e+003
 1.955759167671e+000  8.380743408203e+002
 1.958905935287e+000  6.090469970703e+002
 1.962147593498e+000  8.393043212891e+002
 1.965518951416e+000  1.545471801758e+003
 1.969042420387e+000  2.708852539063e+003
 1.972726702690e+000  4.263790039063e+003
 1.976557731628e+000  6.095706542969e+003
 1.980511188507e+000  8.016882324219e+003
 1.984540700912e+000  9.727345703125e+003
 1.988614439964e+000  1.092128222656e+004
 1.992697834969e+000  1.135593457031e+004
 1.996764898300e+000  1.092367480469e+004
 2.000797271729e+000  9.660136718750e+003
 2.004779577255e+000  7.864109863281e+003
 2.008711576462e+000  5.844493652344e+003
 2.012597322464e+000  3.872989501953e+003
 2.016439199448e+000  2.147841308594e+003
 2.020244598389e+000  7.915796508789e+002
 2.024015665054e+000 -1.865140991211e+002
 2.027758121490e+000 -8.200080566406e+002
 2.031470298767e+000 -1.164441772461e+003
 2.035152435303e+000 -1.287884277344e+003
 2.038803339005e+000 -1.255731811523e+003
 2.042426347733e+000 -1.142279052734e+003
 2.046022653580e+000 -1.001188903809e+003
 2.049599885941e+000 -8.732167968750e+002
 2.053163051605e+000 -7.874607543945e+002
 2.056719779968e+000 -7.645328369141e+002
 2.060270309448e+000 -8.056363525391e+002
 2.063821315765e+000 -8.995050048828e+002
 2.067367315292e+000 -1.021459655762e+003
 2.070911169052e+000 -1.131899902344e+003
 2.074441671371e+000 -1.168258544922e+003
 2.077961683273e+000 -1.055398681641e+003
 2.081459045410e+000 -7.118281250000e+002
 2.084933280945e+000 -5.262921905518e+001
 2.088377714157e+000  9.970011596680e+002
 2.091788053513e+000  2.503886230469e+003
 2.095164537430e+000  4.441770019531e+003
 2.098503112793e+000  6.701419921875e+003
 2.101798295975e+000  9.069048828125e+003
 2.105043172836e+000  1.122295117188e+004
 2.108233451843e+000  1.274340625000e+004
 2.111361742020e+000  1.331994335938e+004
 2.114427804947e+000  1.285426660156e+004
 2.117437124252e+000  1.145275488281e+004
 2.120388269424e+000  9.401554687500e+003
 2.123286008835e+000  7.062582519531e+003
 2.126134634018e+000  4.794857421875e+003
 2.128943681717e+000  2.810364746094e+003
 2.131716728210e+000  1.216867675781e+003
 2.134459018707e+000  3.722202682495e+001
 2.137171268463e+000 -7.482153320313e+002
 2.139863729477e+000 -1.227565795898e+003
 2.142536878586e+000 -1.486058837891e+003
 2.145193338394e+000 -1.598655517578e+003
 2.147837638855e+000 -1.625292968750e+003
 2.150470733643e+000 -1.602900024414e+003
 2.153090238571e+000 -1.544019775391e+003
 2.155694723129e+000 -1.432241455078e+003
 2.158278465271e+000 -1.228094238281e+003
 2.160838127136e+000 -8.744194946289e+002
 2.163370132446e+000 -2.913323974609e+002
 2.165869474411e+000  5.875221557617e+002
 2.168335676193e+000  1.802393554688e+003
 2.170765161514e+000  3.356781250000e+003
 2.173155069351e+000  5.196775390625e+003
 2.175502300262e+000  7.176334472656e+003
 2.177796125412e+000  9.026121093750e+003
 2.180035829544e+000  1.044431933594e+004
 2.182213068008e+000  1.116577832031e+004
 2.184330463409e+000  1.103633398438e+004
 2.186379909515e+000  1.004105957031e+004
 2.188368320465e+000  8.401059570313e+003
 2.190303802490e+000  6.423392578125e+003
 2.192188262939e+000  4.396862792969e+003
 2.194032430649e+000  2.556450927734e+003
 2.195834159851e+000  1.079411621094e+003
 2.197605371475e+000  5.191635131836e+001
 2.199343442917e+000 -5.055136718750e+002
 2.201054811478e+000 -5.938466796875e+002
 2.202738523483e+000 -2.341295318604e+002
 2.204393863678e+000  5.483862915039e+002
 2.206020593643e+000  1.680267578125e+003
 2.207617759705e+000  3.051196777344e+003
 2.209183931351e+000  4.515631347656e+003
 2.210714578629e+000  5.885003417969e+003
 2.212204933167e+000  6.932750000000e+003
 2.213649272919e+000  7.467097167969e+003
 2.215048074722e+000  7.406247070313e+003
 2.216401338577e+000  6.765786132813e+003
 2.217709064484e+000  5.662788574219e+003
 2.218974113464e+000  4.282929199219e+003
 2.220200300217e+000  2.854871337891e+003
 2.221394062042e+000  1.561852905273e+003
 2.222561120987e+000  5.334525146484e+002
 2.223706007004e+000 -1.447961425781e+002
 2.224826574326e+000 -4.091156005859e+002
 2.225922584534e+000 -2.369537506104e+002
 2.226991653442e+000  3.589104614258e+002
 2.228029966354e+000  1.354393432617e+003
 2.229033946991e+000  2.693101562500e+003
 2.229997634888e+000  4.275261230469e+003
 2.230917215347e+000  5.921427246094e+003
 2.231790304184e+000  7.413482421875e+003
 2.232612133026e+000  8.535214843750e+003
 2.233379840851e+000  9.111095703125e+003
 2.234091043472e+000  9.029899414063e+003
 2.234744071960e+000  8.321967773438e+003
 2.235343217850e+000  7.147801757813e+003
 2.235891580582e+000  5.706844726563e+003
 2.236393451691e+000  4.211284667969e+003
 2.236852645874e+000  2.854646972656e+003
 2.237271785736e+000  1.781829223633e+003
 2.237653970718e+000  1.059022460938e+003
 2.237999916077e+000  7.100582885742e+002
 2.238310337067e+000  7.192348022461e+002
 2.238585472107e+000  1.043624511719e+003
 2.238827228546e+000  1.596837890625e+003
 2.239037036896e+000  2.265565185547e+003
 2.239213466644e+000  2.939028076172e+003
 2.239354610443e+000  3.512241943359e+003
 2.239457607269e+000  3.895382812500e+003
 2.239521980286e+000  4.039360595703e+003
 2.239549398422e+000  3.960295898438e+003
 2.239541053772e+000  3.711895751953e+003
 2.239497184753e+000  3.380695312500e+003
 2.239417552948e+000  3.072878173828e+003
 2.239302158356e+000  2.898836669922e+003
 2.239154577255e+000  2.933224121094e+003
 2.238978147507e+000  3.217234863281e+003
 2.238776445389e+000  3.750495361328e+003
 2.238550186157e+000  4.489089843750e+003
 2.238298416138e+000  5.330640136719e+003
 2.238018751144e+000  6.141241699219e+003
 2.237706661224e+000  6.790197265625e+003
 2.237356424332e+000  7.162418945313e+003
 2.236963748932e+000  7.174542480469e+003
 2.236525774002e+000  6.811227050781e+003
 2.236044645309e+000  6.151045898438e+003
 2.235521316528e+000  5.306821777344e+003
 2.234956026077e+000  4.414224609375e+003
 2.234351873398e+000  3.608177978516e+003
 2.233713865280e+000  3.001675048828e+003
 2.233048200607e+000  2.644564208984e+003
 2.232358455658e+000  2.546308593750e+003
 2.231646537781e+000  2.675979003906e+003
 2.230911254883e+000  2.969649902344e+003
 2.230150938034e+000  3.329566162109e+003
 2.229362726212e+000  3.649479492188e+003
 2.228546380997e+000  3.841210693359e+003
 2.227702617645e+000  3.843075439453e+003
 2.226832628250e+000  3.628919677734e+003
 2.225940942764e+000  3.223327392578e+003
 2.225037574768e+000  2.707869628906e+003
 2.224125862122e+000  2.179640136719e+003
 2.223210573196e+000  1.745046020508e+003
 2.222294807434e+000  1.508081176758e+003
 2.221377849579e+000  1.557831420898e+003
 2.220458030701e+000  1.923410278320e+003
 2.219531536102e+000  2.603822509766e+003
 2.218591213226e+000  3.555568115234e+003
 2.217628955841e+000  4.692186523438e+003
 2.216636896133e+000  5.873690429688e+003
 2.215607404709e+000  6.933771972656e+003
 2.214539051056e+000  7.716731445313e+003
 2.213429689407e+000  8.097908203125e+003
 2.212278604507e+000  8.003782226563e+003
 2.211085796356e+000  7.435600097656e+003
 2.209854125977e+000  6.514023925781e+003
 2.208586215973e+000  5.385274902344e+003
 2.207283973694e+000  4.212812500000e+003
 2.205953359604e+000  3.149964355469e+003
 2.204599618912e+000  2.324892822266e+003
 2.203229427338e+000  1.790099731445e+003
 2.201849937439e+000  1.557824829102e+003
 2.200464248657e+000  1.599647460938e+003
 2.199075460434e+000  1.854479248047e+003
 2.197685480118e+000  2.230936035156e+003
 2.196294069290e+000  2.619063964844e+003
 2.194898605347e+000  2.928457763672e+003
 2.193495512009e+000  3.091479980469e+003
 2.192081689835e+000  3.071608886719e+003
 2.190653800964e+000  2.868609619141e+003
 2.189209938049e+000  2.537880126953e+003
 2.187750577927e+000  2.148542968750e+003
 2.186273574829e+000  1.780014404297e+003
 2.184781789780e+000  1.510929199219e+003
 2.183271408081e+000  1.416467895508e+003
 2.181742191315e+000  1.529907836914e+003
 2.180193424225e+000  1.863329467773e+003
 2.178625583649e+000  2.400252441406e+003
 2.177036285400e+000  3.096322509766e+003
 2.175424337387e+000  3.877835449219e+003
 2.173789739609e+000  4.646420898438e+003
 2.172129154205e+000  5.311737304688e+003
 2.170441865921e+000  5.796845703125e+003
 2.168722152710e+000  6.050536621094e+003
 2.166969060898e+000  6.050320312500e+003
 2.165181159973e+000  5.841947753906e+003
 2.163363695145e+000  5.484842285156e+003
 2.161512374878e+000  5.049806152344e+003
 2.159631729126e+000  4.603828613281e+003
 2.157719850540e+000  4.201013671875e+003
 2.155784130096e+000  3.865515625000e+003
 2.153824567795e+000  3.594635253906e+003
 2.151842117310e+000  3.371497558594e+003
 2.149839639664e+000  3.165073486328e+003
 2.147813320160e+000  2.942096679688e+003
 2.145769596100e+000  2.680157714844e+003
 2.143706798553e+000  2.372876220703e+003
 2.141629695892e+000  2.030466552734e+003
 2.139536619186e+000  1.677926635742e+003
 2.137426376343e+000  1.354836669922e+003
 2.135302782059e+000  1.100975219727e+003
 2.133165121078e+000  9.523251342773e+002
 2.131013154984e+000  9.384864501953e+002
 2.128850698471e+000  1.078822387695e+003
 2.126676082611e+000  1.388446777344e+003
 2.124491930008e+000  1.845559814453e+003
 2.122294425964e+000  2.422235107422e+003
 2.120079278946e+000  3.069673095703e+003
 2.117843389511e+000  3.729844238281e+003
 2.115581989288e+000  4.324331542969e+003
 2.113292455673e+000  4.776166992188e+003
 2.110972404480e+000  5.033142578125e+003
 2.108623027802e+000  5.066676757813e+003
 2.106244325638e+000  4.881356445313e+003
 2.103837490082e+000  4.517598144531e+003
 2.101402759552e+000  4.072100097656e+003
 2.098940849304e+000  3.639835937500e+003
 2.096459388733e+000  3.309229003906e+003
 2.093950748444e+000  3.146956298828e+003
 2.091417551041e+000  3.198311035156e+003
 2.088861703873e+000  3.439966308594e+003
 2.086289167404e+000  3.819639892578e+003
 2.083694458008e+000  4.255494140625e+003
 2.081084966660e+000  4.647973632813e+003
 2.078458309174e+000  4.881663085938e+003
 2.075820922852e+000  4.879938476563e+003
 2.073175668716e+000  4.604921875000e+003
 2.070524930954e+000  4.064715332031e+003
 2.067874431610e+000  3.312077392578e+003
 2.065222501755e+000  2.431947021484e+003
 2.062569618225e+000  1.536381713867e+003
 2.059916496277e+000  7.167379150391e+002
 2.057258129120e+000  4.637662506104e+001
 2.054596900940e+000 -4.205849304199e+002
 2.051921129227e+000 -6.323790283203e+002
 2.049237012863e+000 -5.780761108398e+002
 2.046538829803e+000 -2.504784851074e+002
 2.043826103210e+000  3.468912353516e+002
 2.041100978851e+000  1.193610107422e+003
 2.038360595703e+000  2.251004150391e+003
 2.035604953766e+000  3.421819580078e+003
 2.032836198807e+000  4.587464843750e+003
 2.030048131943e+000  5.608802246094e+003
 2.027240037918e+000  6.346291015625e+003
 2.024411201477e+000  6.664559570313e+003
 2.021559000015e+000  6.533076660156e+003
 2.018685817719e+000  5.989292968750e+003
 2.015792608261e+000  5.131986816406e+003
 2.012876749039e+000  4.103072753906e+003
 2.009942770004e+000  3.064451904297e+003
 2.006988286972e+000  2.160301025391e+003
 2.004017114639e+000  1.484478881836e+003
 2.001031637192e+000  1.091060302734e+003
 1.998026251793e+000  9.962554931641e+002
 1.995004415512e+000  1.191803710938e+003
 1.991963624954e+000  1.606665893555e+003
 1.988901853561e+000  2.151916503906e+003
 1.985817551613e+000  2.722970947266e+003
 1.982711553574e+000  3.208942626953e+003
 1.979583740234e+000  3.495606933594e+003
 1.976431965828e+000  3.517503662109e+003
 1.973260521889e+000  3.260447021484e+003
 1.970070123672e+000  2.757466552734e+003
 1.966863036156e+000  2.082144287109e+003
 1.963640093803e+000  1.332269775391e+003
 1.960402965546e+000  6.134332885742e+002
 1.957156181335e+000  4.585830688477e+000
 1.953896045685e+000 -4.346611633301e+002
 1.950627923012e+000 -6.604509277344e+002
 1.947347521782e+000 -6.275548095703e+002
 1.944056749344e+000 -3.181093444824e+002
 1.940757513046e+000  2.766700439453e+002
 1.937450051308e+000  1.153369628906e+003
 1.934130311012e+000  2.282366210938e+003
 1.930796146393e+000  3.598132080078e+003
 1.927449226379e+000  4.964148925781e+003
 1.924083113670e+000  6.213912109375e+003
 1.920692563057e+000  7.172843261719e+003
 1.917273163795e+000  7.691662109375e+003
 1.913821816444e+000  7.660076171875e+003
 1.910344600677e+000  7.102532714844e+003
 1.906839489937e+000  6.130493164063e+003
 1.903310298920e+000  4.899329589844e+003
 1.899763107300e+000  3.578554199219e+003
 1.896202087402e+000  2.323109375000e+003
 1.892632007599e+000  1.236915527344e+003
 1.889055013657e+000  3.625562133789e+002
 1.885472178459e+000 -2.945632019043e+002
 1.881879568100e+000 -7.550711669922e+002
 1.878282070160e+000 -1.047820190430e+003
 1.874673128128e+000 -1.215092529297e+003
 1.871054410934e+000 -1.289029785156e+003
 1.867426276207e+000 -1.287509399414e+003
 1.863789319992e+000 -1.215755126953e+003
 1.860146760941e+000 -1.063073120117e+003
 1.856494665146e+000 -8.067286376953e+002
 1.852842211723e+000 -4.270831298828e+002
 1.849183917046e+000  1.099593505859e+002
 1.845522403717e+000  8.087901000977e+002
 1.841850399971e+000  1.686413574219e+003
 1.838170528412e+000  2.678792480469e+003
 1.834476828575e+000  3.716888183594e+003
 1.830760240555e+000  4.683032226563e+003
 1.827021002769e+000  5.453015136719e+003
 1.823256731033e+000  5.887663085938e+003
 1.819458484650e+000  5.929202636719e+003
 1.815628290176e+000  5.586563476563e+003
 1.811776161194e+000  4.928963867188e+003
 1.807902455330e+000  4.073829345703e+003
 1.804010748863e+000  3.163564941406e+003
 1.800103783607e+000  2.339154785156e+003
 1.796186208725e+000  1.696172729492e+003
 1.792258143425e+000  1.290339965820e+003
 1.788323879242e+000  1.138830566406e+003
 1.784378290176e+000  1.229783325195e+003
 1.780414700508e+000  1.501870849609e+003
 1.776436805725e+000  1.871344726563e+003
 1.772444725037e+000  2.249804199219e+003
 1.768437504768e+000  2.551801513672e+003
 1.764416217804e+000  2.701385253906e+003
 1.760389566422e+000  2.659122314453e+003
 1.756356716156e+000  2.428322021484e+003
 1.752323508263e+000  2.038665649414e+003
 1.748288631439e+000  1.541191040039e+003
 1.744254827499e+000  9.961006469727e+002
 1.740230202675e+000  4.635084533691e+002
 1.736203908920e+000 -1.579116821289e+001
 1.732185959816e+000 -4.168209228516e+002
 1.728171467781e+000 -7.262597656250e+002
 1.724159002304e+000 -9.341921997070e+002
 1.720153212547e+000 -1.034614257813e+003
 1.716153025627e+000 -1.019559265137e+003
 1.712151885033e+000 -8.718067016602e+002
 1.708153605461e+000 -5.684114379883e+002
 1.704154968262e+000 -7.710717773438e+001
 1.700155019760e+000  6.245125732422e+002
 1.696147084236e+000  1.534403808594e+003
 1.692131280899e+000  2.626527099609e+003
 1.688102006912e+000  3.833739013672e+003
 1.684053063393e+000  5.036837890625e+003
 1.679987907410e+000  6.066745117188e+003
 1.675900578499e+000  6.767275878906e+003
 1.671792507172e+000  7.021167480469e+003
 1.667664527893e+000  6.780376953125e+003
 1.663521528244e+000  6.071239746094e+003
 1.659369707108e+000  5.025273925781e+003
 1.655210256577e+000  3.822513183594e+003
 1.651053905487e+000  2.623210937500e+003
 1.646899819374e+000  1.551509277344e+003
 1.642748475075e+000  6.876990966797e+002
 1.638606309891e+000  5.655992126465e+001
 1.634470462799e+000 -3.657771301270e+002
 1.630330801010e+000 -6.151806030273e+002
 1.626198530197e+000 -7.357674560547e+002
 1.622058391571e+000 -7.712203369141e+002
 1.617908716202e+000 -7.644255371094e+002
 1.613751888275e+000 -7.480770874023e+002
 1.609580874443e+000 -7.415319213867e+002
 1.605399608612e+000 -7.532673950195e+002
 1.601205110550e+000 -7.809240112305e+002
 1.596997022629e+000 -8.092158203125e+002
 1.592784047127e+000 -8.126898803711e+002
 1.588564276695e+000 -7.582556152344e+002
 1.584338903427e+000 -6.069615478516e+002
 1.580113053322e+000 -3.132112426758e+002
 1.575881838799e+000  1.656210937500e+002
 1.571645736694e+000  8.465933227539e+002
 1.567402958870e+000  1.727689819336e+003
 1.563143610954e+000  2.770589111328e+003
 1.558866858482e+000  3.888143554688e+003
 1.554562926292e+000  4.931224609375e+003
 1.550233602524e+000  5.740529785156e+003
 1.545868039131e+000  6.182571777344e+003
 1.541472077370e+000  6.181489746094e+003
 1.537040829659e+000  5.730924316406e+003
 1.532577395439e+000  4.916222167969e+003
 1.528093576431e+000  3.892999023438e+003
 1.523584961891e+000  2.805268798828e+003
 1.519067764282e+000  1.773566528320e+003
 1.514537692070e+000  8.870051269531e+002
 1.509999394417e+000  1.760192871094e+002
 1.505463361740e+000 -3.503797607422e+002
 1.500922679901e+000 -7.176420288086e+002
 1.496389627457e+000 -9.470583496094e+002
 1.491856217384e+000 -1.061513793945e+003
 1.487332105637e+000 -1.075152343750e+003
 1.482813119888e+000 -9.953568725586e+002
 1.478299736977e+000 -8.141732177734e+002
 1.473794221878e+000 -5.154231567383e+002
 1.469288825989e+000 -7.438145446777e+001
 1.464786887169e+000  5.285093994141e+002
 1.460281610489e+000  1.289257934570e+003
 1.455769181252e+000  2.174110351563e+003
 1.451244235039e+000  3.122421875000e+003
 1.446706652641e+000  4.035435546875e+003
 1.442148089409e+000  4.775823242188e+003
 1.437570810318e+000  5.232732910156e+003
 1.432971119881e+000  5.332812988281e+003
 1.428348064423e+000  5.060536132813e+003
 1.423709392548e+000  4.458700195313e+003
 1.419049620628e+000  3.630380126953e+003
 1.414376378059e+000  2.710382812500e+003
 1.409685373306e+000  1.806944824219e+003
 1.404989600182e+000  9.996896972656e+002
 1.400278806686e+000  3.373419189453e+002
 1.395569801331e+000 -1.611488494873e+002
 1.390856862068e+000 -5.134421997070e+002
 1.386146068573e+000 -7.418272094727e+002
 1.381433248520e+000 -8.720202026367e+002
 1.376729965210e+000 -9.262221679688e+002
 1.372023105621e+000 -9.192233886719e+002
 1.367322444916e+000 -8.590285034180e+002
 1.362621784210e+000 -7.411253051758e+002
 1.357923865318e+000 -5.539807128906e+002
 1.353230953217e+000 -2.808365173340e+002
 1.348535060883e+000  9.642948913574e+001
 1.343844532967e+000  5.776961669922e+002
 1.339147925377e+000  1.151851684570e+003
 1.334452867508e+000  1.790515380859e+003
 1.329748034477e+000  2.449000000000e+003
 1.325042009354e+000  3.068544921875e+003
 1.320323705673e+000  3.600251708984e+003
 1.315599203110e+000  4.012289306641e+003
 1.310859203339e+000  4.293239746094e+003
 1.306108474731e+000  4.449704589844e+003
 1.301348209381e+000  4.501083984375e+003
 1.296562671661e+000  4.478092285156e+003
 1.291764140129e+000  4.398791503906e+003
 1.286953449249e+000  4.271379394531e+003
 1.282121658325e+000  4.093771484375e+003
 1.277272939682e+000  3.854997802734e+003
 1.272409200668e+000  3.549458251953e+003
 1.267526984215e+000  3.174654296875e+003
 1.262637853622e+000  2.736861083984e+003
 1.257732748985e+000  2.251615966797e+003
 1.252822160721e+000  1.743910156250e+003
 1.247903347015e+000  1.244322509766e+003
 1.242982149124e+000  7.796310424805e+002
 1.238058209419e+000  3.719841308594e+002
 1.233131289482e+000  3.639683532715e+001
 1.228214383125e+000 -2.190447235107e+002
 1.223304152489e+000 -4.044291992188e+002
 1.218397855759e+000 -5.332922973633e+002
 1.213503479958e+000 -6.233621826172e+002
 1.208615303040e+000 -6.925072631836e+002
 1.203736066818e+000 -7.549951171875e+002
 1.198856830597e+000 -8.165578002930e+002
 1.193985581398e+000 -8.711422119141e+002
 1.189122915268e+000 -9.008279418945e+002
 1.184263110161e+000 -8.753126831055e+002
 1.179409980774e+000 -7.451856079102e+002
 1.174556970596e+000 -4.637656250000e+002
 1.169708251953e+000  1.977722930908e+001
 1.164854764938e+000  7.488074951172e+002
 1.159997701645e+000  1.748354248047e+003
 1.155132770538e+000  3.015953613281e+003
 1.150250554085e+000  4.457865722656e+003
 1.145350217819e+000  5.933224609375e+003
 1.140425562859e+000  7.251401855469e+003
 1.135475993156e+000  8.206077148438e+003
 1.130492568016e+000  8.590926757813e+003
 1.125477433205e+000  8.364657226563e+003
 1.120436310768e+000  7.574452636719e+003
 1.115370273590e+000  6.360893554688e+003
 1.110281705856e+000  4.917633300781e+003
 1.105177283287e+000  3.450465332031e+003
 1.100063681602e+000  2.119151367188e+003
 1.094946622849e+000  1.010743041992e+003
 1.089829325676e+000  1.592465820313e+002
 1.084719777107e+000 -4.416022033691e+002
 1.079620838165e+000 -8.130194091797e+002
 1.074540257454e+000 -1.014794860840e+003
 1.069469213486e+000 -1.089844970703e+003
 1.064419388771e+000 -1.074323120117e+003
 1.059381365776e+000 -9.940509643555e+002
 1.054348945618e+000 -8.597305908203e+002
 1.049313306808e+000 -6.733728637695e+002
 1.044263243675e+000 -4.252252502441e+002
 1.039178252220e+000 -9.492628479004e+001
 1.034041881561e+000  3.324650878906e+002
 1.028829693794e+000  8.747141723633e+002
 1.023533344269e+000  1.511960571289e+003
 1.018150806427e+000  2.215252929688e+003
 1.012686491013e+000  2.919685302734e+003
 1.007175326347e+000  3.547628662109e+003
 1.001680493355e+000  3.992298095703e+003
 9.962940812111e-001  4.207275390625e+003
 9.911409616470e-001  4.172856933594e+003
 9.863840937614e-001  3.921542968750e+003
 9.821891784668e-001  3.529351562500e+003
 9.787943363190e-001  3.100756835938e+003
 9.762976765633e-001  2.736426757813e+003
 9.747461080551e-001  2.493086669922e+003
 9.740483760834e-001  2.380542480469e+003
 9.739122986794e-001  2.358519531250e+003
endcurve
