Curveplot
LS-DYNA keyword deck by LS-PrePost
Yrot-displ
phi moment-stiffness
Joint Stiff
300001 #pts=1000
* Minval= -1.898753320313e+004 at time=      -2.772951841354
* Maxval=  1.585831933594e+004 at time=      -1.807291865349
-1.818550421362e-009 -2.874519210309e-003
-1.903673219061e-009 -4.932781215757e-003
-1.683840622491e-009 -7.296105846763e-003
-1.020954876196e-009 -9.714231826365e-003
 2.263669668379e-010 -1.178814284503e-002
 2.179829206028e-009 -1.294654048979e-002
 4.954975540983e-009 -1.228475384414e-002
 8.461563894002e-009 -8.928574621677e-003
 1.249494019362e-008 -1.882428769022e-003
 1.664930771028e-008  1.016552466899e-002
 2.026506606967e-008  2.912762388587e-002
 2.226022033369e-008  5.691354349256e-002
 2.144845367980e-008  9.319741278887e-002
 1.647039837849e-008  1.364957094193e-001
 5.944122083434e-009  1.835415214300e-001
-1.128841287112e-008  2.281131893396e-001
-3.637214263108e-008  2.589865028858e-001
-6.837439769924e-008  2.621373534203e-001
-1.051260269946e-007  2.220522910357e-001
-1.422474440460e-007  1.246538609266e-001
-1.727079279590e-007 -3.947196155787e-002
-1.846888153523e-007 -2.754285633564e-001
-1.646500749075e-007 -5.679799318314e-001
-9.664260858244e-008 -8.946857452393e-001
 3.691292604913e-008 -1.225218415260e+000
 2.543033872371e-007 -1.525368213654e+000
 5.805503064948e-007 -1.754896402359e+000
 1.027854978020e-006 -1.883089900017e+000
 1.609482978893e-006 -1.885183095932e+000
 2.336330680919e-006 -1.742286443710e+000
 3.215665174139e-006 -1.442585825920e+000
 4.257614818926e-006 -9.744995832443e-001
 5.456174676510e-006 -3.506791591644e-001
 6.804824806750e-006  4.122672975063e-001
 8.295965017169e-006  1.290814280510e+000
 9.919192962116e-006  2.252994775772e+000
 1.166758738691e-005  3.258673667908e+000
 1.351954597339e-005  4.255721569061e+000
 1.546161183796e-005  5.197031497955e+000
 1.747755413817e-005  6.037373542786e+000
 1.955332481884e-005  6.741738319397e+000
 2.167796264985e-005  7.284967422485e+000
 2.383304126852e-005  7.689462661743e+000
 2.600644074846e-005  8.018103599548e+000
 2.818720349751e-005  8.386039733887e+000
 3.035873851331e-005  8.969048500061e+000
 3.250373265473e-005  1.004752254486e+001
 3.460105290287e-005  1.193248844147e+001
 3.662089875434e-005  1.495426082611e+001
 3.853102316498e-005  1.944662094116e+001
 4.028941111756e-005  2.568494033813e+001
 4.183030250715e-005  3.388806915283e+001
 4.309770156397e-005  4.384568023682e+001
 4.402987178764e-005  5.501383209229e+001
 4.455697126104e-005  6.636358642578e+001
 4.461083517526e-005  7.625775146484e+001
 4.410102701513e-005  8.204853057861e+001
 4.299585998524e-005  8.048714447021e+001
 4.128237560508e-005  6.793424987793e+001
 3.897336500813e-005  4.045005416870e+001
 3.613074659370e-005 -5.634160041809e+000
 3.286338323960e-005 -7.379866027832e+001
 2.938726902357e-005 -1.634961547852e+002
 2.596577360237e-005 -2.704219665527e+002
 2.291331293236e-005 -3.851917419434e+002
 2.056154880847e-005 -4.919556884766e+002
 1.928704659804e-005 -5.636839599609e+002
 1.928097117343e-005 -5.654453125000e+002
 2.050801958831e-005 -4.566391906738e+002
 2.261667032144e-005 -1.919837799072e+002
 2.479596696503e-005  2.735993041992e+002
 2.546485484345e-005  9.851366577148e+002
 2.224150375696e-005  1.951527343750e+003
 1.209840593219e-005  3.138271972656e+003
-8.682993211551e-006  4.461703125000e+003
-4.427110616234e-005  5.774253906250e+003
-9.984952339437e-005  6.857398437500e+003
-1.787862856872e-004  7.500738281250e+003
-2.829933655448e-004  7.586478515625e+003
-4.129164444748e-004  7.101936035156e+003
-5.675432039425e-004  6.146476562500e+003
-7.451700512320e-004  4.894644531250e+003
-9.414708474651e-004  3.563819824219e+003
-1.151964766905e-003  2.313998046875e+003
-1.373317441903e-003  1.237346923828e+003
-1.601920346729e-003  3.779441223145e+002
-1.835285453126e-003 -2.531995544434e+002
-2.071241382509e-003 -6.825856323242e+002
-2.308114431798e-003 -9.413113403320e+002
-2.544628223404e-003 -1.051234252930e+003
-2.780555048957e-003 -1.024298217773e+003
-3.015621099621e-003 -8.524899902344e+002
-3.250044304878e-003 -5.205310058594e+002
-3.484661225230e-003 -7.922927856445e+000
-3.721028100699e-003  7.082402954102e+002
-3.960849717259e-003  1.636027343750e+003
-4.207597579807e-003  2.764750488281e+003
-4.464666359127e-003  4.015059082031e+003
-4.735928028822e-003  5.256907714844e+003
-5.025080405176e-003  6.320466796875e+003
-5.335707683116e-003  7.032146484375e+003
-5.670802667737e-003  7.236299316406e+003
-6.031378637999e-003  6.890259277344e+003
-6.415749434382e-003  6.069692871094e+003
-6.821608170867e-003  4.916955566406e+003
-7.245864719152e-003  3.614549804688e+003
-7.685177959502e-003  2.354090820313e+003
-8.135449141264e-003  1.298788696289e+003
-8.592885918915e-003  5.501527709961e+002
-9.056161157787e-003  1.707713928223e+002
-9.523313492537e-003  1.905567016602e+002
-9.995253756642e-003  6.223653564453e+002
-1.047352794558e-002  1.428333007813e+003
-1.096021104604e-002  2.525405029297e+003
-1.145875174552e-002  3.799927001953e+003
-1.197337172925e-002  5.100076660156e+003
-1.250759698451e-002  6.232451171875e+003
-1.306666154414e-002  7.010393554688e+003
-1.365125365555e-002  7.320701171875e+003
-1.426221337169e-002  7.128943359375e+003
-1.489961799234e-002  6.492616699219e+003
-1.556255109608e-002  5.550076660156e+003
-1.624794118106e-002  4.517129394531e+003
-1.695190183818e-002  3.603805664063e+003
-1.767247542739e-002  2.977538330078e+003
-1.840750314295e-002  2.755557617188e+003
-1.915771514177e-002  3.006712158203e+003
-1.992462575436e-002  3.713638671875e+003
-2.070934325457e-002  4.770952636719e+003
-2.151672355831e-002  6.034810058594e+003
-2.235007658601e-002  7.318942382813e+003
-2.321515977383e-002  8.417950195313e+003
-2.411613427103e-002  9.146537109375e+003
-2.505548670888e-002  9.414708007813e+003
-2.603344805539e-002  9.209082031250e+003
-2.705020084977e-002  8.601336914063e+003
-2.810527384281e-002  7.727481933594e+003
-2.919594943523e-002  6.779056640625e+003
-3.031897358596e-002  5.929700195313e+003
-3.146996349096e-002  5.308776855469e+003
-3.264829143882e-002  4.988281738281e+003
-3.385201096535e-002  4.989085449219e+003
-3.508077189326e-002  5.259293945313e+003
-3.633429482579e-002  5.689517578125e+003
-3.761333227158e-002  6.161289550781e+003
-3.891834989190e-002  6.559596679688e+003
-4.025210812688e-002  6.790399902344e+003
-4.161479696631e-002  6.807915039063e+003
-4.300572350621e-002  6.638561523438e+003
-4.442410543561e-002  6.348741699219e+003
-4.586984217167e-002  6.034096191406e+003
-4.734365269542e-002  5.801666992188e+003
-4.884646460414e-002  5.747877929688e+003
-5.037578567863e-002  5.914399902344e+003
-5.193441733718e-002  6.300031738281e+003
-5.352368578315e-002  6.857480468750e+003
-5.514635890722e-002  7.500775390625e+003
-5.680764466524e-002  8.113856445313e+003
-5.850589647889e-002  8.590041015625e+003
-6.024381518364e-002  8.855036132813e+003
-6.202247366309e-002  8.876958007813e+003
-6.384306401014e-002  8.669619140625e+003
-6.570411473513e-002  8.302951171875e+003
-6.760525703430e-002  7.883674316406e+003
-6.954526901245e-002  7.511750000000e+003
-7.151959836483e-002  7.271513183594e+003
-7.353302836418e-002  7.217284667969e+003
-7.558537274599e-002  7.359788085938e+003
-7.767383754253e-002  7.650371582031e+003
-7.980129122734e-002  8.019162109375e+003
-8.196919411421e-002  8.382431640625e+003
-8.417808264494e-002  8.658388671875e+003
-8.643312752247e-002  8.785579101563e+003
-8.873178064823e-002  8.755178710938e+003
-9.107173979282e-002  8.594273437500e+003
-9.345494210720e-002  8.361223632813e+003
-9.588069468737e-002  8.133936523438e+003
-9.835112094879e-002  7.995025390625e+003
-1.008611395955e-001  7.995655761719e+003
-1.034139096737e-001  8.154100585938e+003
-1.060105562210e-001  8.453030273438e+003
-1.086499989033e-001  8.842084960938e+003
-1.113377362490e-001  9.243695312500e+003
-1.140756681561e-001  9.579156250000e+003
-1.168620660901e-001  9.789147460938e+003
-1.197003573179e-001  9.843236328125e+003
-1.225896701217e-001  9.742593750000e+003
-1.255348324776e-001  9.523144531250e+003
-1.285313516855e-001  9.250263671875e+003
-1.315758377314e-001  8.983605468750e+003
-1.346721947193e-001  8.769951171875e+003
-1.378165334463e-001  8.635384765625e+003
-1.410096436739e-001  8.577844726563e+003
-1.442480534315e-001  8.563059570313e+003
-1.475367695093e-001  8.549050781250e+003
-1.508699357510e-001  8.495218750000e+003
-1.542504131794e-001  8.373735351563e+003
-1.576746702194e-001  8.180019042969e+003
-1.611474752426e-001  7.943982910156e+003
-1.646615266800e-001  7.711355468750e+003
-1.682174652815e-001  7.535225097656e+003
-1.718206405640e-001  7.464888671875e+003
-1.754641979933e-001  7.537882324219e+003
-1.791556477547e-001  7.748967773438e+003
-1.828921735287e-001  8.070169921875e+003
-1.866715848446e-001  8.449394531250e+003
-1.905012726784e-001  8.820035156250e+003
-1.943878829479e-001  9.107120117188e+003
-1.983228325844e-001  9.261029296875e+003
-2.023112624884e-001  9.259973632813e+003
-2.063529938459e-001  9.113438476563e+003
-2.104530781507e-001  8.859940429688e+003
-2.146040201187e-001  8.565196289063e+003
-2.188082486391e-001  8.303845703125e+003
-2.230659574270e-001  8.135150390625e+003
-2.273785024881e-001  8.098310546875e+003
-2.317373156548e-001  8.205666015625e+003
-2.361556440592e-001  8.441169921875e+003
-2.406261116266e-001  8.747357421875e+003
-2.451513856649e-001  9.060248046875e+003
-2.497291266918e-001  9.313808593750e+003
-2.543641328812e-001  9.451717773438e+003
-2.590595483780e-001  9.430924804688e+003
-2.638117671013e-001  9.256660156250e+003
-2.686157822609e-001  8.954941406250e+003
-2.734777927399e-001  8.571254882813e+003
-2.783901393414e-001  8.163562011719e+003
-2.833606004715e-001  7.793537109375e+003
-2.883810997009e-001  7.506977050781e+003
-2.934515476227e-001  7.329473144531e+003
-2.985703647137e-001  7.266732910156e+003
-3.037440478802e-001  7.305782226563e+003
-3.089738190174e-001  7.419766601563e+003
-3.142496049404e-001  7.564590332031e+003
-3.195818960667e-001  7.704047363281e+003
-3.249701261520e-001  7.809122558594e+003
-3.304087519646e-001  7.862657714844e+003
-3.359089791775e-001  7.859481933594e+003
-3.414611220360e-001  7.814823242188e+003
-3.470720946789e-001  7.747843750000e+003
-3.527351915836e-001  7.679350097656e+003
-3.584540486336e-001  7.626448242188e+003
-3.642337322235e-001  7.599866210938e+003
-3.700670599937e-001  7.595769531250e+003
-3.759509325027e-001  7.602278320313e+003
-3.818879127502e-001  7.601665039063e+003
-3.878822326660e-001  7.574550781250e+003
-3.939318656921e-001  7.501452148438e+003
-4.000289142132e-001  7.377404296875e+003
-4.061793684959e-001  7.205807128906e+003
-4.123797118664e-001  6.999893066406e+003
-4.186298251152e-001  6.779458496094e+003
-4.249277114868e-001  6.569720703125e+003
-4.312782883644e-001  6.391647949219e+003
-4.376725852489e-001  6.259009277344e+003
-4.441129267216e-001  6.176775390625e+003
-4.506052732468e-001  6.140489257813e+003
-4.571485817432e-001  6.137748046875e+003
-4.637387990952e-001  6.146046386719e+003
-4.703823924065e-001  6.144871582031e+003
-4.770687520504e-001  6.117441406250e+003
-4.838092625141e-001  6.053952636719e+003
-4.906019568443e-001  5.952537597656e+003
-4.974451065063e-001  5.825712890625e+003
-5.043363571167e-001  5.690630859375e+003
-5.112756490707e-001  5.566777343750e+003
-5.182645320892e-001  5.472360839844e+003
-5.253071784973e-001  5.423756347656e+003
-5.323930382729e-001  5.424487792969e+003
-5.395317077637e-001  5.470354492188e+003
-5.467160940170e-001  5.549673339844e+003
-5.539422631264e-001  5.645089355469e+003
-5.612303614616e-001  5.735485351563e+003
-5.685598850250e-001  5.801337890625e+003
-5.759385824203e-001  5.829727050781e+003
-5.833729505539e-001  5.814195312500e+003
-5.908494591713e-001  5.755325683594e+003
-5.983809232712e-001  5.658364746094e+003
-6.059646010399e-001  5.536511718750e+003
-6.135915517807e-001  5.401766113281e+003
-6.212720870972e-001  5.263404296875e+003
-6.289964318275e-001  5.127740234375e+003
-6.367686390877e-001  4.996910156250e+003
-6.445935964584e-001  4.868461425781e+003
-6.524592638016e-001  4.738697753906e+003
-6.603705883026e-001  4.603176269531e+003
-6.683266162872e-001  4.458974609375e+003
-6.763298511505e-001  4.304749023438e+003
-6.843779087067e-001  4.143051757813e+003
-6.924650669098e-001  3.978718505859e+003
-7.005949616432e-001  3.817674804688e+003
-7.087696790695e-001  3.666347656250e+003
-7.169881463051e-001  3.531690673828e+003
-7.252444624901e-001  3.417562988281e+003
-7.335368394852e-001  3.325337890625e+003
-7.418770194054e-001  3.254499023438e+003
-7.502472400665e-001  3.202967529297e+003
-7.586650848389e-001  3.167620605469e+003
-7.671141624451e-001  3.143260253906e+003
-7.755975723267e-001  3.125098632813e+003
-7.841216325760e-001  3.108879394531e+003
-7.926806211472e-001  3.090946289063e+003
-8.012731671333e-001  3.068218750000e+003
-8.098990321159e-001  3.039074707031e+003
-8.185631036758e-001  3.003120849609e+003
-8.272585868835e-001  2.960927246094e+003
-8.359864354134e-001  2.913893554688e+003
-8.447521924973e-001  2.863836181641e+003
-8.535549044609e-001  2.813153564453e+003
-8.623874783516e-001  2.763611083984e+003
-8.712559938431e-001  2.716201171875e+003
-8.801549673080e-001  2.671053222656e+003
-8.890984058380e-001  2.626889648438e+003
-8.980693817139e-001  2.581123535156e+003
-9.070763587952e-001  2.529965576172e+003
-9.161174297333e-001  2.469020751953e+003
-9.251917004585e-001  2.393385986328e+003
-9.342969059944e-001  2.297179199219e+003
-9.434390068054e-001  2.176328369141e+003
-9.526066184044e-001  2.028643554688e+003
-9.618043899536e-001  1.853462036133e+003
-9.710314869881e-001  1.652742309570e+003
-9.802898168564e-001  1.430500122070e+003
-9.895756840706e-001  1.195765136719e+003
-9.988841414452e-001  9.586546020508e+002
-1.008213400841e+000  7.306717529297e+002
-1.017563104630e+000  5.236151123047e+002
-1.026941537857e+000  3.508565673828e+002
-1.036344766617e+000  2.228657073975e+002
-1.045762300491e+000  1.461548461914e+002
-1.055197715759e+000  1.244494705200e+002
-1.064660549164e+000  1.579039001465e+002
-1.074134707451e+000  2.439117126465e+002
-1.083632588387e+000  3.716421203613e+002
-1.093151211739e+000  5.254460449219e+002
-1.102684140205e+000  6.870012817383e+002
-1.112249255180e+000  8.357318115234e+002
-1.121831417084e+000  9.478200073242e+002
-1.131428718567e+000  1.003884338379e+003
-1.141056895256e+000  9.934483642578e+002
-1.150699734688e+000  9.134379272461e+002
-1.160362243652e+000  7.695629882813e+002
-1.170049548149e+000  5.742792968750e+002
-1.179758548737e+000  3.489771118164e+002
-1.189487934113e+000  1.149996795654e+002
-1.199227333069e+000 -1.096595993042e+002
-1.208988785744e+000 -3.116869506836e+002
-1.218766212463e+000 -4.806674804688e+002
-1.228545308113e+000 -6.124655151367e+002
-1.238335132599e+000 -7.089180908203e+002
-1.248132944107e+000 -7.740524291992e+002
-1.257927536964e+000 -8.138340454102e+002
-1.267732262611e+000 -8.345931396484e+002
-1.277535319328e+000 -8.432946166992e+002
-1.287343859673e+000 -8.456184692383e+002
-1.297159790993e+000 -8.454450073242e+002
-1.306989073753e+000 -8.454149780273e+002
-1.316821336746e+000 -8.471176757813e+002
-1.326677203178e+000 -8.511751708984e+002
-1.336542844772e+000 -8.575026855469e+002
-1.346422433853e+000 -8.658858032227e+002
-1.356314778328e+000 -8.761392211914e+002
-1.366214275360e+000 -8.883538208008e+002
-1.376119732857e+000 -9.028378295898e+002
-1.386023640633e+000 -9.199671630859e+002
-1.395932912827e+000 -9.400987548828e+002
-1.405846118927e+000 -9.632632446289e+002
-1.415749192238e+000 -9.889217529297e+002
-1.425665259361e+000 -1.015601562500e+003
-1.435574293137e+000 -1.040785522461e+003
-1.445479273796e+000 -1.061136474609e+003
-1.455392837524e+000 -1.072309448242e+003
-1.465308666229e+000 -1.068408081055e+003
-1.475225806236e+000 -1.042713500977e+003
-1.485140562057e+000 -9.897339477539e+002
-1.495055794716e+000 -9.045997314453e+002
-1.504975199699e+000 -7.849906616211e+002
-1.514895439148e+000 -6.324398193359e+002
-1.524810552597e+000 -4.580293884277e+002
-1.534729242325e+000 -2.834764099121e+002
-1.544649124146e+000 -1.414860534668e+002
-1.554573416710e+000 -7.761809539795e+001
-1.564492106438e+000 -1.556593627930e+002
-1.574418663979e+000 -4.540308837891e+002
-1.584336638451e+000 -1.040245117188e+003
-1.594260096550e+000 -1.980042724609e+003
-1.604173898697e+000 -3.313789306641e+003
-1.614062428474e+000 -5.045145507813e+003
-1.623931884766e+000 -7.092289550781e+003
-1.633772253990e+000 -9.248566406250e+003
-1.643564343452e+000 -1.121246289063e+004
-1.653317213058e+000 -1.263079101563e+004
-1.663021087646e+000 -1.317429785156e+004
-1.672663092613e+000 -1.269838964844e+004
-1.682263016701e+000 -1.136501074219e+004
-1.691811203957e+000 -9.468297851563e+003
-1.701324343681e+000 -7.354590332031e+003
-1.710805416107e+000 -5.327124023438e+003
-1.720251917839e+000 -3.600170166016e+003
-1.729689359665e+000 -2.240624511719e+003
-1.739115357399e+000 -1.257444580078e+003
-1.748520970345e+000 -6.104246826172e+002
-1.757921457291e+000 -2.352590026855e+002
-1.767302751541e+000 -5.404546737671e+001
-1.776682853699e+000  1.505269527435e+001
-1.786049365997e+000  2.789778709412e+001
-1.795414328575e+000  2.180243110657e+001
-1.804766058922e+000  1.238163375854e+001
-1.814117908478e+000 -1.090541267395e+001
-1.823461413383e+000 -8.217276000977e+001
-1.832801222801e+000 -2.547541809082e+002
-1.842133879662e+000 -5.959672851563e+002
-1.851457595825e+000 -1.186222412109e+003
-1.860766410828e+000 -2.108112548828e+003
-1.870052814484e+000 -3.393445068359e+003
-1.879321813583e+000 -5.040808105469e+003
-1.888555049896e+000 -6.976743164063e+003
-1.897763490677e+000 -9.036578125000e+003
-1.906922340393e+000 -1.090903125000e+004
-1.916043519974e+000 -1.225536230469e+004
-1.925104022026e+000 -1.279306347656e+004
-1.934119820595e+000 -1.238821484375e+004
-1.943067789078e+000 -1.109265332031e+004
-1.951975822449e+000 -9.155534179688e+003
-1.960837006569e+000 -6.972955078125e+003
-1.969661235809e+000 -4.879443359375e+003
-1.978455543518e+000 -3.144428955078e+003
-1.987229466438e+000 -1.960738159180e+003
-1.995978951454e+000 -1.466024658203e+003
-2.004713058472e+000 -1.666171386719e+003
-2.013429880142e+000 -2.541867675781e+003
-2.022127151489e+000 -4.018224121094e+003
-2.030799627304e+000 -5.955031250000e+003
-2.039433002472e+000 -8.107896972656e+003
-2.048019647598e+000 -1.013768164063e+004
-2.056556701660e+000 -1.171194042969e+004
-2.065044641495e+000 -1.255034277344e+004
-2.073465347290e+000 -1.248777929688e+004
-2.081831693649e+000 -1.152492871094e+004
-2.090139150620e+000 -9.933736328125e+003
-2.098398685455e+000 -8.039815429688e+003
-2.106612682343e+000 -6.190644531250e+003
-2.114776134491e+000 -4.697364746094e+003
-2.122907161713e+000 -3.815271728516e+003
-2.131006002426e+000 -3.631854492188e+003
-2.139071464539e+000 -4.154197753906e+003
-2.147107839584e+000 -5.292597167969e+003
-2.155115842819e+000 -6.866302734375e+003
-2.163087844849e+000 -8.592635742188e+003
-2.171030998230e+000 -1.014194042969e+004
-2.178934097290e+000 -1.123767578125e+004
-2.186792135239e+000 -1.169725195313e+004
-2.194595813751e+000 -1.146720507813e+004
-2.202358722687e+000 -1.063912988281e+004
-2.210064172745e+000 -9.499474609375e+003
-2.217731952667e+000 -8.339060546875e+003
-2.225356101990e+000 -7.430216308594e+003
-2.232942819595e+000 -6.976329589844e+003
-2.240492343903e+000 -7.103115722656e+003
-2.248011350632e+000 -7.749806640625e+003
-2.255486726761e+000 -8.779577148438e+003
-2.262923955917e+000 -9.985222656250e+003
-2.270315647125e+000 -1.112447070313e+004
-2.277643203735e+000 -1.194777636719e+004
-2.284909009933e+000 -1.232895019531e+004
-2.292110919952e+000 -1.224561621094e+004
-2.299257755280e+000 -1.178140527344e+004
-2.306343793869e+000 -1.110365136719e+004
-2.313374042511e+000 -1.043049804688e+004
-2.320347785950e+000 -9.954993164063e+003
-2.327274560928e+000 -9.788359375000e+003
-2.334154844284e+000 -9.955837890625e+003
-2.340984106064e+000 -1.039256250000e+004
-2.347761392593e+000 -1.095275488281e+004
-2.354492425919e+000 -1.143544433594e+004
-2.361169576645e+000 -1.167279199219e+004
-2.367792367935e+000 -1.155513281250e+004
-2.374363899231e+000 -1.105918164063e+004
-2.380889892578e+000 -1.024902441406e+004
-2.387368440628e+000 -9.313946289063e+003
-2.393806695938e+000 -8.447673828125e+003
-2.400208473206e+000 -7.832389160156e+003
-2.406572818756e+000 -7.605485351563e+003
-2.412905454636e+000 -7.862486816406e+003
-2.419198513031e+000 -8.550031250000e+003
-2.425448417664e+000 -9.561092773438e+003
-2.431657314301e+000 -1.073344726563e+004
-2.437819480896e+000 -1.187658300781e+004
-2.443920373917e+000 -1.278648046875e+004
-2.449973106384e+000 -1.334259667969e+004
-2.455964088440e+000 -1.350088769531e+004
-2.461903333664e+000 -1.329943359375e+004
-2.467780828476e+000 -1.284461132813e+004
-2.473606109619e+000 -1.228466894531e+004
-2.479378700256e+000 -1.177898144531e+004
-2.485103845596e+000 -1.143050976563e+004
-2.490786314011e+000 -1.128572070313e+004
-2.496418714523e+000 -1.132988476563e+004
-2.502010345459e+000 -1.149511718750e+004
-2.507553577423e+000 -1.166573242188e+004
-2.513052225113e+000 -1.174068066406e+004
-2.518506765366e+000 -1.164780761719e+004
-2.523915529251e+000 -1.136102539063e+004
-2.529275417328e+000 -1.090241796875e+004
-2.534597635269e+000 -1.035918261719e+004
-2.539871215820e+000 -9.829918945313e+003
-2.545102834702e+000 -9.405625000000e+003
-2.550300598145e+000 -9.155424804688e+003
-2.555452585220e+000 -9.126441406250e+003
-2.560566425323e+000 -9.300875000000e+003
-2.565642595291e+000 -9.634956054688e+003
-2.570675134659e+000 -1.006516503906e+004
-2.575668096542e+000 -1.052051269531e+004
-2.580610990524e+000 -1.092766210938e+004
-2.585511922836e+000 -1.123383593750e+004
-2.590362787247e+000 -1.140853222656e+004
-2.595169544220e+000 -1.144174804688e+004
-2.599927663803e+000 -1.134087890625e+004
-2.604645013809e+000 -1.112389355469e+004
-2.609318971634e+000 -1.083063964844e+004
-2.613953113556e+000 -1.049879492188e+004
-2.618551015854e+000 -1.016304492188e+004
-2.623110294342e+000 -9.853722656250e+003
-2.627634525299e+000 -9.595960937500e+003
-2.632124662399e+000 -9.398709960938e+003
-2.636590480804e+000 -9.257592773438e+003
-2.641026258469e+000 -9.157634765625e+003
-2.645432949066e+000 -9.074956054688e+003
-2.649812221527e+000 -8.980752929688e+003
-2.654160022736e+000 -8.852006835938e+003
-2.658476114273e+000 -8.678705078125e+003
-2.662767887115e+000 -8.462517578125e+003
-2.667033433914e+000 -8.215493164063e+003
-2.671277046204e+000 -7.955664062500e+003
-2.675495386124e+000 -7.703309082031e+003
-2.679690599442e+000 -7.472351562500e+003
-2.683859348297e+000 -7.271582519531e+003
-2.688000202179e+000 -7.104186035156e+003
-2.692107915878e+000 -6.971261718750e+003
-2.696187019348e+000 -6.868984375000e+003
-2.700235605240e+000 -6.794503417969e+003
-2.704266786575e+000 -6.745904296875e+003
-2.708286046982e+000 -6.721854003906e+003
-2.712299823761e+000 -6.720809082031e+003
-2.716320037842e+000 -6.736480468750e+003
-2.720351934433e+000 -6.759421875000e+003
-2.724398374557e+000 -6.778101074219e+003
-2.728460311890e+000 -6.782121093750e+003
-2.732539653778e+000 -6.768311035156e+003
-2.736621856689e+000 -6.754196289063e+003
-2.740691900253e+000 -6.782681640625e+003
-2.744725942612e+000 -6.923658203125e+003
-2.748699665070e+000 -7.270139648438e+003
-2.752568483353e+000 -7.942389160156e+003
-2.756287336349e+000 -9.027034179688e+003
-2.759806156158e+000 -1.055127929688e+004
-2.763071060181e+000 -1.246342968750e+004
-2.766035318375e+000 -1.460121777344e+004
-2.768658876419e+000 -1.665950000000e+004
-2.770951271057e+000 -1.824021289063e+004
-2.772951841354e+000 -1.898753320313e+004
-2.774699211121e+000 -1.863483593750e+004
-2.776242971420e+000 -1.709559960938e+004
-2.777628421783e+000 -1.449925976563e+004
-2.778906583786e+000 -1.127528320313e+004
-2.780122041702e+000 -7.901362304688e+003
-2.781303644180e+000 -4.776695800781e+003
-2.782476902008e+000 -2.191208984375e+003
-2.783659934998e+000 -3.498125000000e+002
-2.784862995148e+000  6.767988281250e+002
-2.786089658737e+000  8.961192016602e+002
-2.787339925766e+000  3.363277893066e+002
-2.788609027863e+000 -9.412808837891e+002
-2.789888620377e+000 -2.851552734375e+003
-2.791171073914e+000 -5.202803222656e+003
-2.792442083359e+000 -7.720545898438e+003
-2.793692588806e+000 -1.006606933594e+004
-2.794911384583e+000 -1.187392089844e+004
-2.796087741852e+000 -1.280005175781e+004
-2.797217369080e+000 -1.269967773438e+004
-2.798301935196e+000 -1.168426171875e+004
-2.799340248108e+000 -1.002610937500e+004
-2.800339937210e+000 -8.105444824219e+003
-2.801307439804e+000 -6.331539550781e+003
-2.802252531052e+000 -5.047098632813e+003
-2.803181409836e+000 -4.433849609375e+003
-2.804099559784e+000 -4.552791992188e+003
-2.805008411407e+000 -5.342153808594e+003
-2.805908203125e+000 -6.632351562500e+003
-2.806794643402e+000 -8.119315917969e+003
-2.807663202286e+000 -9.473250000000e+003
-2.808506965637e+000 -1.041115332031e+004
-2.809319972992e+000 -1.074109765625e+004
-2.810098409653e+000 -1.038744042969e+004
-2.810840845108e+000 -9.469736328125e+003
-2.811549663544e+000 -8.248040039063e+003
-2.812226295471e+000 -7.013510253906e+003
-2.812870502472e+000 -6.045887207031e+003
-2.813481807709e+000 -5.583597656250e+003
-2.814060211182e+000 -5.757960449219e+003
-2.814606189728e+000 -6.555440429688e+003
-2.815119028091e+000 -7.875574707031e+003
-2.815596342087e+000 -9.529114257813e+003
-2.816034555435e+000 -1.126021875000e+004
-2.816427946091e+000 -1.277610156250e+004
-2.816773176193e+000 -1.385224609375e+004
-2.817065954208e+000 -1.434757714844e+004
-2.817303180695e+000 -1.422390039063e+004
-2.817482471466e+000 -1.353767675781e+004
-2.817604780197e+000 -1.245968066406e+004
-2.817674875259e+000 -1.120944042969e+004
-2.817696332932e+000 -9.977442382813e+003
-2.817673444748e+000 -8.912842773438e+003
-2.817608594894e+000 -8.113142578125e+003
-2.817503690720e+000 -7.605250488281e+003
-2.817363500595e+000 -7.347278320313e+003
-2.817190647125e+000 -7.281199707031e+003
-2.816987514496e+000 -7.346500976563e+003
-2.816755056381e+000 -7.501739257813e+003
-2.816492795944e+000 -7.736001464844e+003
-2.816199541092e+000 -8.066040039063e+003
-2.815871238708e+000 -8.524006835938e+003
-2.815505266190e+000 -9.135218750000e+003
-2.815098285675e+000 -9.902160156250e+003
-2.814648628235e+000 -1.077942382813e+004
-2.814154863358e+000 -1.167441992188e+004
-2.813613891602e+000 -1.247611425781e+004
-2.813021659851e+000 -1.307064453125e+004
-2.812374830246e+000 -1.335711621094e+004
-2.811670780182e+000 -1.328089648438e+004
-2.810911893845e+000 -1.287473828125e+004
-2.810099840164e+000 -1.221409960938e+004
-2.809237718582e+000 -1.141287500000e+004
-2.808328628540e+000 -1.060125390625e+004
-2.807372808456e+000 -9.904341796875e+003
-2.806375026703e+000 -9.394530273438e+003
-2.805334806442e+000 -9.097683593750e+003
-2.804253816605e+000 -8.995015625000e+003
-2.803131103516e+000 -9.033060546875e+003
-2.801968097687e+000 -9.132122070313e+003
-2.800762891769e+000 -9.216924804688e+003
-2.799516677856e+000 -9.242309570313e+003
-2.798227310181e+000 -9.197170898438e+003
-2.796894311905e+000 -9.106544921875e+003
-2.795513868332e+000 -9.030535156250e+003
-2.794088840485e+000 -9.037547851563e+003
-2.792620658875e+000 -9.184109375000e+003
-2.791105985641e+000 -9.502780273438e+003
-2.789545297623e+000 -9.995096679688e+003
-2.787935733795e+000 -1.062161523438e+004
-2.786275625229e+000 -1.130262500000e+004
-2.784564495087e+000 -1.195155859375e+004
-2.782798528671e+000 -1.248109472656e+004
-2.780972480774e+000 -1.281237011719e+004
-2.779086112976e+000 -1.288599023438e+004
-2.777135848999e+000 -1.270216406250e+004
-2.775125980377e+000 -1.228780664063e+004
-2.773055791855e+000 -1.169936328125e+004
-2.770927190781e+000 -1.101065429688e+004
-2.768739461899e+000 -1.030426171875e+004
-2.766501665115e+000 -9.648583984375e+003
-2.764213562012e+000 -9.087614257813e+003
-2.761879444122e+000 -8.644821289063e+003
-2.759503602982e+000 -8.327539062500e+003
-2.757086277008e+000 -8.133198242188e+003
-2.754629850388e+000 -8.045894531250e+003
-2.752136230469e+000 -8.058991210938e+003
-2.749602794647e+000 -8.170601562500e+003
-2.747032642365e+000 -8.382099609375e+003
-2.744420289993e+000 -8.691454101563e+003
-2.741767406464e+000 -9.072837890625e+003
-2.739073514938e+000 -9.486512695313e+003
-2.736335515976e+000 -9.876229492188e+003
-2.733551263809e+000 -1.017670214844e+004
-2.730717658997e+000 -1.032268652344e+004
-2.727836847305e+000 -1.029259179688e+004
-2.724908351898e+000 -1.009610644531e+004
-2.721934556961e+000 -9.778388671875e+003
-2.718912363052e+000 -9.411283203125e+003
-2.715844869614e+000 -9.084130859375e+003
-2.712735414505e+000 -8.867374023438e+003
-2.709584951401e+000 -8.799258789063e+003
-2.706390142441e+000 -8.880559570313e+003
-2.703152656555e+000 -9.074346679688e+003
-2.699862957001e+000 -9.307746093750e+003
-2.696532487869e+000 -9.491580078125e+003
-2.693160295486e+000 -9.553946289063e+003
-2.689738035202e+000 -9.450997070313e+003
-2.686267614365e+000 -9.176932617188e+003
-2.682752609253e+000 -8.766770507813e+003
-2.679190397263e+000 -8.302388671875e+003
-2.675588846207e+000 -7.865532714844e+003
-2.671943426132e+000 -7.530251464844e+003
-2.668253183365e+000 -7.349922851563e+003
-2.664523601532e+000 -7.353270507813e+003
-2.660750150681e+000 -7.508103515625e+003
-2.656939029694e+000 -7.758807128906e+003
-2.653087377548e+000 -8.025158691406e+003
-2.649192094803e+000 -8.221940429688e+003
-2.645256519318e+000 -8.264050781250e+003
-2.641276121140e+000 -8.119754882813e+003
-2.637257575989e+000 -7.800551269531e+003
-2.633197546005e+000 -7.354858886719e+003
-2.629101991653e+000 -6.866588378906e+003
-2.624963283539e+000 -6.437713867188e+003
-2.620786190033e+000 -6.152298828125e+003
-2.616581439972e+000 -6.068109863281e+003
-2.612340688705e+000 -6.199851074219e+003
-2.608067512512e+000 -6.530631347656e+003
-2.603760004044e+000 -6.996566406250e+003
-2.599412441254e+000 -7.502049316406e+003
-2.595024347305e+000 -7.940616210938e+003
-2.590601205826e+000 -8.223666992188e+003
-2.586134910583e+000 -8.288018554688e+003
-2.581628799438e+000 -8.098257324219e+003
-2.577078819275e+000 -7.700181640625e+003
-2.572485685349e+000 -7.163680175781e+003
-2.567859649658e+000 -6.579979492188e+003
-2.563199758530e+000 -6.042418945313e+003
-2.558503150940e+000 -5.638252929688e+003
-2.553783655167e+000 -5.402041503906e+003
-2.549036264420e+000 -5.332432617188e+003
-2.544263124466e+000 -5.393345214844e+003
-2.539465904236e+000 -5.521574707031e+003
-2.534636974335e+000 -5.634220214844e+003
-2.529782772064e+000 -5.657067382813e+003
-2.524903535843e+000 -5.546690917969e+003
-2.520001173019e+000 -5.294971679688e+003
-2.515083551407e+000 -4.930389160156e+003
-2.510148286819e+000 -4.512234863281e+003
-2.505190134048e+000 -4.119926269531e+003
-2.500214576721e+000 -3.820247558594e+003
-2.495218276978e+000 -3.665216552734e+003
-2.490197420120e+000 -3.687017578125e+003
-2.485147476196e+000 -3.903332763672e+003
-2.480073451996e+000 -4.281984863281e+003
-2.474973201752e+000 -4.774800781250e+003
-2.469846725464e+000 -5.315554687500e+003
-2.464689254761e+000 -5.827052734375e+003
-2.459504842758e+000 -6.221187988281e+003
-2.454284906387e+000 -6.435916015625e+003
-2.449038028717e+000 -6.436200683594e+003
-2.443760871887e+000 -6.217222167969e+003
-2.438448429108e+000 -5.804698730469e+003
-2.433112144470e+000 -5.244701660156e+003
-2.427749156952e+000 -4.611057617188e+003
-2.422363758087e+000 -3.965032226563e+003
-2.416962862015e+000 -3.356403564453e+003
-2.411541938782e+000 -2.820777832031e+003
-2.406101226807e+000 -2.384642333984e+003
-2.400639772415e+000 -2.052083251953e+003
-2.395170927048e+000 -1.820966796875e+003
-2.389689922333e+000 -1.685241577148e+003
-2.384197950363e+000 -1.636481933594e+003
-2.378707408905e+000 -1.668784057617e+003
-2.373211622238e+000 -1.768516845703e+003
-2.367712020874e+000 -1.924342529297e+003
-2.362208843231e+000 -2.123933105469e+003
-2.356698989868e+000 -2.352253662109e+003
-2.351179122925e+000 -2.590559814453e+003
-2.345645189285e+000 -2.815834716797e+003
-2.340095520020e+000 -3.005677978516e+003
-2.334530591965e+000 -3.138747314453e+003
-2.328953742981e+000 -3.197193359375e+003
-2.323351860046e+000 -3.164981445313e+003
-2.317748069763e+000 -3.043608154297e+003
-2.312134504318e+000 -2.843743896484e+003
-2.306519031525e+000 -2.584018554688e+003
-2.300900220871e+000 -2.289349609375e+003
-2.295280218124e+000 -1.987901611328e+003
-2.289659976959e+000 -1.705697753906e+003
-2.284040451050e+000 -1.459175292969e+003
-2.278423070908e+000 -1.257075439453e+003
-2.272801160812e+000 -1.101143920898e+003
-2.267187118530e+000 -9.889587402344e+002
-2.261570930481e+000 -9.107330932617e+002
-2.255956411362e+000 -8.567904663086e+002
-2.250339746475e+000 -8.188637695313e+002
-2.244724750519e+000 -7.903259277344e+002
-2.239113092422e+000 -7.665297241211e+002
-2.233496665955e+000 -7.445386352539e+002
-2.227880716324e+000 -7.232946777344e+002
-2.222270011902e+000 -7.026018066406e+002
-2.216658115387e+000 -6.826619873047e+002
-2.211041450500e+000 -6.642598266602e+002
-2.205427169800e+000 -6.487296142578e+002
-2.199818134308e+000 -6.372756347656e+002
-2.194203853607e+000 -6.302080688477e+002
-2.188592672348e+000 -6.264166870117e+002
-2.182978153229e+000 -6.233446044922e+002
-2.177365064621e+000 -6.175016479492e+002
-2.171746969223e+000 -6.059528808594e+002
-2.166129827499e+000 -5.868007202148e+002
-2.160511970520e+000 -5.596974487305e+002
-2.154893636703e+000 -5.260455932617e+002
-2.149274587631e+000 -4.897487792969e+002
-2.143652439117e+000 -4.546477661133e+002
-2.138029813766e+000 -4.243219909668e+002
-2.132409572601e+000 -4.007261657715e+002
-2.126789331436e+000 -3.837026062012e+002
-2.121170997620e+000 -3.709486389160e+002
-2.115559816360e+000 -3.591762390137e+002
-2.109954833984e+000 -3.450938110352e+002
-2.104361772537e+000 -3.258059082031e+002
-2.098781347275e+000 -2.995910949707e+002
-2.093217611313e+000 -2.680136108398e+002
-2.087668418884e+000 -2.359258422852e+002
-2.082133769989e+000 -2.104980010986e+002
-2.076611757278e+000 -2.012087249756e+002
-2.071100950241e+000 -2.194237365723e+002
-2.065600872040e+000 -2.741947021484e+002
-2.060113668442e+000 -3.698142395020e+002
-2.054630756378e+000 -5.052608337402e+002
-2.049161434174e+000 -6.713529052734e+002
-2.043704271317e+000 -8.476245727539e+002
-2.038260698318e+000 -9.974711914063e+002
-2.032828569412e+000 -1.072915893555e+003
-2.027406215668e+000 -1.014045227051e+003
-2.021994590759e+000 -7.514888305664e+002
-2.016592264175e+000 -1.983890380859e+002
-2.011200904846e+000  7.142133789063e+002
-2.005817651749e+000  2.020585693359e+003
-2.000451564789e+000  3.717638916016e+003
-1.995104193687e+000  5.734562011719e+003
-1.989782452583e+000  7.899496093750e+003
-1.984502553940e+000  9.889990234375e+003
-1.979260683060e+000  1.133756054688e+004
-1.974070310593e+000  1.193301269531e+004
-1.968920469284e+000  1.153624707031e+004
-1.963827729225e+000  1.021234765625e+004
-1.958779692650e+000  8.288596679688e+003
-1.953771948814e+000  6.149464355469e+003
-1.948798060417e+000  4.098933593750e+003
-1.943857550621e+000  2.339417236328e+003
-1.938938021660e+000  9.855692138672e+002
-1.934044480324e+000  5.188061523438e+001
-1.929163932800e+000 -5.129302978516e+002
-1.924303412437e+000 -7.758036499023e+002
-1.919452190399e+000 -8.148317871094e+002
-1.914613008499e+000 -7.062391357422e+002
-1.909793019295e+000 -5.267535400391e+002
-1.904986023903e+000 -3.356988220215e+002
-1.900195121765e+000 -1.742050781250e+002
-1.895424604416e+000 -7.005297851563e+001
-1.890669822693e+000 -4.225769805908e+001
-1.885923266411e+000 -9.687297058105e+001
-1.881189584732e+000 -2.269225158691e+002
-1.876468539238e+000 -4.179111633301e+002
-1.871755242348e+000 -6.444204101563e+002
-1.867041110992e+000 -8.669954833984e+002
-1.862334966660e+000 -1.026790527344e+003
-1.857631087303e+000 -1.054467529297e+003
-1.852934837341e+000 -8.666114501953e+002
-1.848245382309e+000 -3.702550964355e+002
-1.843569755554e+000  5.426262817383e+002
-1.838909983635e+000  1.958458740234e+003
-1.834266304970e+000  3.893890625000e+003
-1.829651594162e+000  6.306775390625e+003
-1.825070142746e+000  9.048577148438e+003
-1.820534467697e+000  1.182170703125e+004
-1.816055893898e+000  1.415371582031e+004
-1.811642527580e+000  1.559891406250e+004
-1.807291865349e+000  1.585831933594e+004
-1.803015828133e+000  1.487890722656e+004
-1.798805594444e+000  1.285625390625e+004
-1.794665217400e+000  1.021994824219e+004
-1.790575504303e+000  7.426495605469e+003
-1.786526560783e+000  4.803654296875e+003
-1.782517075539e+000  2.557333496094e+003
-1.778535723686e+000  7.941579589844e+002
-1.774572134018e+000 -4.696632690430e+002
-1.770628929138e+000 -1.290549560547e+003
-1.766698479652e+000 -1.719625122070e+003
-1.762779951096e+000 -1.802825195313e+003
-1.758863925934e+000 -1.563101440430e+003
-1.754952669144e+000 -1.004774353027e+003
-1.751045107841e+000 -1.322177734375e+002
-1.747142672539e+000  1.063944580078e+003
-1.743244409561e+000  2.577978515625e+003
-1.739356040955e+000  4.371809570313e+003
-1.735491752625e+000  6.325258789063e+003
-1.731652617455e+000  8.221928710938e+003
-1.727847218513e+000  9.799083984375e+003
-1.724083662033e+000  1.080015332031e+004
-1.720365762711e+000  1.103719335938e+004
-1.716699719429e+000  1.048672851563e+004
-1.713079690933e+000  9.355976562500e+003
-1.709505081177e+000  7.926897460938e+003
-1.705975770950e+000  6.518227539063e+003
-1.702483892441e+000  5.401929687500e+003
-1.699029326439e+000  4.795670898438e+003
-1.695607066154e+000  4.760281738281e+003
-1.692220449448e+000  5.267386718750e+003
-1.688867092133e+000  6.192689453125e+003
-1.685556888580e+000  7.329526367188e+003
-1.682289719582e+000  8.402721679688e+003
-1.679065227509e+000  9.182775390625e+003
-1.675887823105e+000  9.487112304688e+003
-1.672757387161e+000  9.249164062500e+003
-1.669668793678e+000  8.495930664063e+003
-1.666623830795e+000  7.391393554688e+003
-1.663616776466e+000  6.144097167969e+003
-1.660637140274e+000  4.955190429688e+003
-1.657679915428e+000  3.983132080078e+003
-1.654745101929e+000  3.338031738281e+003
-1.651829719543e+000  3.071606445313e+003
-1.648927569389e+000  3.148300781250e+003
-1.646041631699e+000  3.505942626953e+003
-1.643173694611e+000  4.056222900391e+003
-1.640323638916e+000  4.701636230469e+003
-1.637497425079e+000  5.345805664063e+003
-1.634692549706e+000  5.922012695313e+003
-1.631918311119e+000  6.398025390625e+003
-1.629175782204e+000  6.770247070313e+003
-1.626468300819e+000  7.056420898438e+003
-1.623797297478e+000  7.289091796875e+003
-1.621163010597e+000  7.505647949219e+003
-1.618569254875e+000  7.734662597656e+003
-1.616017103195e+000  7.997433593750e+003
-1.613505125046e+000  8.307164062500e+003
-1.611037731171e+000  8.665961914063e+003
-1.608614444733e+000  9.055631835938e+003
-1.606237411499e+000  9.442622070313e+003
-1.603907585144e+000  9.774765625000e+003
-1.601623415947e+000  9.980701171875e+003
-1.599390029907e+000  9.968460937500e+003
-1.597199440002e+000  9.673446289063e+003
-1.595049262047e+000  9.051905273438e+003
-1.592935919762e+000  8.103357421875e+003
-1.590850114822e+000  6.879075683594e+003
-1.588794112206e+000  5.491325195313e+003
-1.586752891541e+000  4.100972656250e+003
-1.584726691246e+000  2.858699218750e+003
-1.582712650299e+000  1.895599731445e+003
-1.580707311630e+000  1.313852905273e+003
-1.578712821007e+000  1.192418090820e+003
-1.576731920242e+000  1.523813720703e+003
-1.574767947197e+000  2.280792968750e+003
-1.572825312614e+000  3.393648681641e+003
-1.570909142494e+000  4.747276855469e+003
-1.569025993347e+000  6.167460937500e+003
-1.567180991173e+000  7.446278320313e+003
-1.565375924110e+000  8.398997070313e+003
-1.563614368439e+000  8.888987304688e+003
-1.561898231506e+000  8.856742187500e+003
-1.560227990150e+000  8.335197265625e+003
-1.558601021767e+000  7.502739746094e+003
-1.557011723518e+000  6.553417968750e+003
-1.555457234383e+000  5.680543945313e+003
-1.553935289383e+000  5.041856445313e+003
-1.552443027496e+000  4.748610839844e+003
-1.550974369049e+000  4.795329101563e+003
-1.549530267715e+000  5.124097656250e+003
-1.548109292984e+000  5.624754394531e+003
-1.546713232994e+000  6.154277832031e+003
-1.545345067978e+000  6.548131835938e+003
-1.544004797935e+000  6.689197753906e+003
-1.542693018913e+000  6.514917968750e+003
-1.541409134865e+000  6.023870605469e+003
-1.540152430534e+000  5.270154785156e+003
-1.538923263550e+000  4.347112792969e+003
-1.537717580795e+000  3.377352050781e+003
-1.536534309387e+000  2.453939941406e+003
-1.535371661186e+000  1.645800292969e+003
-1.534226894379e+000  9.952205810547e+002
-1.533099412918e+000  5.284470214844e+002
-1.531987428665e+000  2.289487609863e+002
-1.530889749527e+000  7.838934326172e+001
-1.529805660248e+000  5.397320938110e+001
-1.528735637665e+000  1.335312500000e+002
-1.527681469917e+000  3.024352111816e+002
-1.526641726494e+000  5.419993286133e+002
-1.525618910789e+000  8.446779785156e+002
-1.524613380432e+000  1.205175292969e+003
-1.523623824120e+000  1.615629028320e+003
-1.522652626038e+000  2.058304199219e+003
-1.521697521210e+000  2.492697509766e+003
-1.520758271217e+000  2.874183837891e+003
-1.519833445549e+000  3.146161865234e+003
-1.518925547600e+000  3.267461669922e+003
-1.518032670021e+000  3.206282470703e+003
-1.517155528069e+000  2.984779541016e+003
-1.516291499138e+000  2.637641601563e+003
-1.515439510345e+000  2.217235595703e+003
-1.514597058296e+000  1.778251464844e+003
-1.513762831688e+000  1.369391601563e+003
-1.512934327126e+000  1.026361694336e+003
-1.512111544609e+000  7.592215576172e+002
-1.511296749115e+000  5.700331420898e+002
-1.510493874550e+000  4.513037109375e+002
-1.509713888168e+000  3.939539184570e+002
-1.508965253830e+000  3.790730590820e+002
-1.508262872696e+000  3.925357360840e+002
-1.507624506950e+000  4.220046691895e+002
-1.507068872452e+000  4.573692321777e+002
-1.506624341011e+000  4.902453918457e+002
-1.506300687790e+000  5.154475708008e+002
-1.506101369858e+000  5.310183715820e+002
-1.506012201309e+000  5.377513427734e+002
-1.505994796753e+000  5.389923706055e+002
endcurve
