Curveplot
LS-DYNA keyword deck by LS-PrePost
Abscissa
Ordinate
XY data
NBDLHeadxCoo-1 #pts=2000
* Minval=     3.8422401428e+01 at time=         0.0000000000
* Maxval=     3.0338702393e+02 at time=       161.8006134033
    0.0000000000e+00    3.8422401428e+01
    9.9978484213e-02    3.8422401428e+01
    1.9995696843e-01    3.8422401428e+01
    2.9993546009e-01    3.8422401428e+01
    3.9991393685e-01    3.8422401428e+01
    4.9989241362e-01    3.8422401428e+01
    5.9987092018e-01    3.8422401428e+01
    6.9984936714e-01    3.8422401428e+01
    7.9982787371e-01    3.8422401428e+01
    8.9998811483e-01    3.8422401428e+01
    9.9996662140e-01    3.8422401428e+01
    1.0998470783e+00    3.8422500610e+01
    1.1999276876e+00    3.8422500610e+01
    1.2998653650e+00    3.8422500610e+01
    1.3999714851e+00    3.8422500610e+01
    1.4999939203e+00    3.8422599792e+01
    1.5999723673e+00    3.8422599792e+01
    1.6999509335e+00    3.8422599792e+01
    1.7999293804e+00    3.8422698975e+01
    1.8999865055e+00    3.8422698975e+01
    1.9998966455e+00    3.8422798157e+01
    2.0999231339e+00    3.8422798157e+01
    2.1999855042e+00    3.8422798157e+01
    2.2998526096e+00    3.8422897339e+01
    2.3998310566e+00    3.8423000336e+01
    2.4999914169e+00    3.8423000336e+01
    2.5999698639e+00    3.8423099518e+01
    2.6999483109e+00    3.8423099518e+01
    2.7999267578e+00    3.8423202515e+01
    2.8999052048e+00    3.8423301697e+01
    2.9998836517e+00    3.8423400879e+01
    3.0998620987e+00    3.8423400879e+01
    3.1998407841e+00    3.8423500061e+01
    3.2999122143e+00    3.8423599243e+01
    3.3998906612e+00    3.8423698425e+01
    3.4998784065e+00    3.8423797607e+01
    3.5999190807e+00    3.8423900604e+01
    3.6998751163e+00    3.8423999786e+01
    3.7999842167e+00    3.8424098969e+01
    3.8999629021e+00    3.8424201965e+01
    3.9999413490e+00    3.8424301147e+01
    4.0999197960e+00    3.8424400330e+01
    4.1998982430e+00    3.8424499512e+01
    4.2998766899e+00    3.8424697876e+01
    4.3999166489e+00    3.8424797058e+01
    4.4999246597e+00    3.8424900055e+01
    4.5999031067e+00    3.8424999237e+01
    4.6999020576e+00    3.8425201416e+01
    4.7999763489e+00    3.8425300598e+01
    4.8999571800e+00    3.8425399780e+01
    4.9999375343e+00    3.8425598145e+01
    5.0999183655e+00    3.8425697327e+01
    5.1998987198e+00    3.8425899506e+01
    5.2998795509e+00    3.8426002502e+01
    5.3998599052e+00    3.8426200867e+01
    5.4998407364e+00    3.8426399231e+01
    5.5998210907e+00    3.8426498413e+01
    5.6999945641e+00    3.8426700592e+01
    5.7999234200e+00    3.8426898956e+01
    5.8999018669e+00    3.8427001953e+01
    5.9998803139e+00    3.8427200317e+01
    6.0998592377e+00    3.8427398682e+01
    6.1998381615e+00    3.8427597046e+01
    6.2998170853e+00    3.8427799225e+01
    6.3999781609e+00    3.8428001404e+01
    6.4999575615e+00    3.8428199768e+01
    6.5999364853e+00    3.8428398132e+01
    6.6999158859e+00    3.8428600311e+01
    6.7999749184e+00    3.8428802490e+01
    6.8999562263e+00    3.8429000854e+01
    6.9999375343e+00    3.8429199219e+01
    7.0998644829e+00    3.8429500580e+01
    7.1998457909e+00    3.8429698944e+01
    7.2999219894e+00    3.8429901123e+01
    7.3998613358e+00    3.8430198669e+01
    7.4998426437e+00    3.8430397034e+01
    7.5998239517e+00    3.8430599213e+01
    7.6998043060e+00    3.8430900574e+01
    7.7999777794e+00    3.8431098938e+01
    7.8999586105e+00    3.8431400299e+01
    7.9999542236e+00    3.8431701660e+01
    8.0999698639e+00    3.8431900024e+01
    8.1998519897e+00    3.8432197571e+01
    8.2999811172e+00    3.8432498932e+01
    8.3999681473e+00    3.8432701111e+01
    8.4998235703e+00    3.8432998657e+01
    8.5999593735e+00    3.8433300018e+01
    8.6998682022e+00    3.8433601379e+01
    8.7999353409e+00    3.8433898926e+01
    8.8999137878e+00    3.8434200287e+01
    8.9999847412e+00    3.8434501648e+01
    9.0999631882e+00    3.8434799194e+01
    9.1999425888e+00    3.8435100555e+01
    9.2999219894e+00    3.8435401917e+01
    9.3999013901e+00    3.8435699463e+01
    9.4998798370e+00    3.8436000824e+01
    9.5998191833e+00    3.8436401367e+01
    9.6998233795e+00    3.8436698914e+01
    9.7999553680e+00    3.8437000275e+01
    9.8999843597e+00    3.8437400818e+01
    9.9999647141e+00    3.8437698364e+01
    1.0099827766e+01    3.8437999725e+01
    1.0199905396e+01    3.8438400269e+01
    1.0299841881e+01    3.8438800812e+01
    1.0399955750e+01    3.8439102173e+01
    1.0499891281e+01    3.8439498901e+01
    1.0599830627e+01    3.8439800262e+01
    1.0699885368e+01    3.8440200806e+01
    1.0799842834e+01    3.8440597534e+01
    1.0899869919e+01    3.8441001892e+01
    1.0999868393e+01    3.8441398621e+01
    1.1099852562e+01    3.8441799164e+01
    1.1199917793e+01    3.8442199707e+01
    1.1299908638e+01    3.8442600250e+01
    1.1399843216e+01    3.8443000793e+01
    1.1499883652e+01    3.8443397522e+01
    1.1599918365e+01    3.8443801880e+01
    1.1699867249e+01    3.8444198608e+01
    1.1799959183e+01    3.8444599152e+01
    1.1899858475e+01    3.8445098877e+01
    1.1999937057e+01    3.8445499420e+01
    1.2099918365e+01    3.8445899963e+01
    1.2199950218e+01    3.8446399689e+01
    1.2299837112e+01    3.8446800232e+01
    1.2399982452e+01    3.8447299957e+01
    1.2499898911e+01    3.8447700500e+01
    1.2599884987e+01    3.8448200226e+01
    1.2700007439e+01    3.8448699951e+01
    1.2799927711e+01    3.8449100494e+01
    1.2899987221e+01    3.8449600220e+01
    1.2999841690e+01    3.8450099945e+01
    1.3099983215e+01    3.8450599670e+01
    1.3199859619e+01    3.8451099396e+01
    1.3299861908e+01    3.8451599121e+01
    1.3399961472e+01    3.8452102661e+01
    1.3499853134e+01    3.8452598572e+01
    1.3600012779e+01    3.8453102112e+01
    1.3699961662e+01    3.8453598022e+01
    1.3799942970e+01    3.8454101562e+01
    1.3900003433e+01    3.8454597473e+01
    1.3999868393e+01    3.8455200195e+01
    1.4100000381e+01    3.8455699921e+01
    1.4199913979e+01    3.8456298828e+01
    1.4299979210e+01    3.8456802368e+01
    1.4400015831e+01    3.8457298279e+01
    1.4499876976e+01    3.8457901001e+01
    1.4599875450e+01    3.8458499908e+01
    1.4699855804e+01    3.8458999634e+01
    1.4799836159e+01    3.8459602356e+01
    1.4899973869e+01    3.8460197449e+01
    1.4999974251e+01    3.8460800171e+01
    1.5099850655e+01    3.8461299896e+01
    1.5200016975e+01    3.8461898804e+01
    1.5299935341e+01    3.8462501526e+01
    1.5399970055e+01    3.8463100433e+01
    1.5499949455e+01    3.8463699341e+01
    1.5599944115e+01    3.8464401245e+01
    1.5699892998e+01    3.8465000153e+01
    1.5799921036e+01    3.8465599060e+01
    1.5899955750e+01    3.8466201782e+01
    1.5999994278e+01    3.8466899872e+01
    1.6100019455e+01    3.8467498779e+01
    1.6199987411e+01    3.8468101501e+01
    1.6300016403e+01    3.8468799591e+01
    1.6399852753e+01    3.8469398499e+01
    1.6499933243e+01    3.8470100403e+01
    1.6600000381e+01    3.8470802307e+01
    1.6699867249e+01    3.8471397400e+01
    1.6800012589e+01    3.8472099304e+01
    1.6899913788e+01    3.8472801208e+01
    1.6999879837e+01    3.8473499298e+01
    1.7099973679e+01    3.8474197388e+01
    1.7199907303e+01    3.8474899292e+01
    1.7299987793e+01    3.8475601196e+01
    1.7399848938e+01    3.8476299286e+01
    1.7499868393e+01    3.8476997375e+01
    1.7599872589e+01    3.8477699280e+01
    1.7699853897e+01    3.8478500366e+01
    1.7800014496e+01    3.8479202271e+01
    1.7899948120e+01    3.8479900360e+01
    1.8000030518e+01    3.8480697632e+01
    1.8099979401e+01    3.8481399536e+01
    1.8199941635e+01    3.8482200623e+01
    1.8300014496e+01    3.8482902527e+01
    1.8399894714e+01    3.8483699799e+01
    1.8499895096e+01    3.8484397888e+01
    1.8599962234e+01    3.8485099792e+01
    1.8699876785e+01    3.8485900879e+01
    1.8799894333e+01    3.8486698151e+01
    1.8899995804e+01    3.8487499237e+01
    1.8999921799e+01    3.8488300323e+01
    1.9099922180e+01    3.8489101410e+01
    1.9199981689e+01    3.8489898682e+01
    1.9299959183e+01    3.8490699768e+01
    1.9399986267e+01    3.8491600037e+01
    1.9499988556e+01    3.8492401123e+01
    1.9599861145e+01    3.8493198395e+01
    1.9700000763e+01    3.8494098663e+01
    1.9799907684e+01    3.8494899750e+01
    1.9900005341e+01    3.8495800018e+01
    2.0000022888e+01    3.8496601105e+01
    2.0100015640e+01    3.8497501373e+01
    2.0200017929e+01    3.8498298645e+01
    2.0299852371e+01    3.8499099731e+01
    2.0399864197e+01    3.8500000000e+01
    2.0499935150e+01    3.8500900269e+01
    2.0599969864e+01    3.8501800537e+01
    2.0699987411e+01    3.8502700806e+01
    2.0800018311e+01    3.8503601074e+01
    2.0899913788e+01    3.8504501343e+01
    2.0999887466e+01    3.8505500793e+01
    2.1100042343e+01    3.8506401062e+01
    2.1200012207e+01    3.8507301331e+01
    2.1299978256e+01    3.8508201599e+01
    2.1399972916e+01    3.8509101868e+01
    2.1500009537e+01    3.8510002136e+01
    2.1599910736e+01    3.8511001587e+01
    2.1700023651e+01    3.8512001038e+01
    2.1799957275e+01    3.8512901306e+01
    2.1899896622e+01    3.8513900757e+01
    2.1999971390e+01    3.8514900208e+01
    2.2099929810e+01    3.8515800476e+01
    2.2199937820e+01    3.8516799927e+01
    2.2299861908e+01    3.8517799377e+01
    2.2400035858e+01    3.8518798828e+01
    2.2499893188e+01    3.8519802094e+01
    2.2599950790e+01    3.8520801544e+01
    2.2699886322e+01    3.8521800995e+01
    2.2800022125e+01    3.8522800446e+01
    2.2899906158e+01    3.8523799896e+01
    2.2999900818e+01    3.8524799347e+01
    2.3099880219e+01    3.8525901794e+01
    2.3200021744e+01    3.8527000427e+01
    2.3299928665e+01    3.8527999878e+01
    2.3400033951e+01    3.8528999329e+01
    2.3500022888e+01    3.8530101776e+01
    2.3599964142e+01    3.8531101227e+01
    2.3700002670e+01    3.8532199860e+01
    2.3799966812e+01    3.8533298492e+01
    2.3900037766e+01    3.8534301758e+01
    2.4000015259e+01    3.8535400391e+01
    2.4099887848e+01    3.8536598206e+01
    2.4200027466e+01    3.8537700653e+01
    2.4299989700e+01    3.8538799286e+01
    2.4400039673e+01    3.8539897919e+01
    2.4499969482e+01    3.8541000366e+01
    2.4599910736e+01    3.8542098999e+01
    2.4699981689e+01    3.8543300629e+01
    2.4800033569e+01    3.8544399261e+01
    2.4899883270e+01    3.8545501709e+01
    2.5000001907e+01    3.8546699524e+01
    2.5099962234e+01    3.8547897339e+01
    2.5200004578e+01    3.8548999786e+01
    2.5300001144e+01    3.8550201416e+01
    2.5400045395e+01    3.8551399231e+01
    2.5499912262e+01    3.8552600861e+01
    2.5599889755e+01    3.8553699493e+01
    2.5700042725e+01    3.8554901123e+01
    2.5799886703e+01    3.8556201935e+01
    2.5899898529e+01    3.8557399750e+01
    2.6000009537e+01    3.8558502197e+01
    2.6100057602e+01    3.8559799194e+01
    2.6199903488e+01    3.8561000824e+01
    2.6299972534e+01    3.8562198639e+01
    2.6400056839e+01    3.8563499451e+01
    2.6499908447e+01    3.8564800262e+01
    2.6599969864e+01    3.8566001892e+01
    2.6699974060e+01    3.8567199707e+01
    2.6799995422e+01    3.8568500519e+01
    2.6899902344e+01    3.8569801331e+01
    2.6999963760e+01    3.8571098328e+01
    2.7099901199e+01    3.8572399139e+01
    2.7200038910e+01    3.8573600769e+01
    2.7299972534e+01    3.8574897766e+01
    2.7400012970e+01    3.8576301575e+01
    2.7499927521e+01    3.8577499390e+01
    2.7600015640e+01    3.8578903198e+01
    2.7699941635e+01    3.8580299377e+01
    2.7799909592e+01    3.8581501007e+01
    2.7899925232e+01    3.8582901001e+01
    2.7999967575e+01    3.8584197998e+01
    2.8100044250e+01    3.8585601807e+01
    2.8199949265e+01    3.8586997986e+01
    2.8299892426e+01    3.8588298798e+01
    2.8399890900e+01    3.8589698792e+01
    2.8499971390e+01    3.8590999603e+01
    2.8599884033e+01    3.8592498779e+01
    2.8700067520e+01    3.8593799591e+01
    2.8800031662e+01    3.8595199585e+01
    2.8899967194e+01    3.8596698761e+01
    2.8999929428e+01    3.8597999573e+01
    2.9099964142e+01    3.8599498749e+01
    2.9200057983e+01    3.8600898743e+01
    2.9299907684e+01    3.8602401733e+01
    2.9400001526e+01    3.8603801727e+01
    2.9499927521e+01    3.8605300903e+01
    2.9599931717e+01    3.8606700897e+01
    2.9700012207e+01    3.8608200073e+01
    2.9799995422e+01    3.8609600067e+01
    2.9899957657e+01    3.8611099243e+01
    2.9999889374e+01    3.8612499237e+01
    3.0100076675e+01    3.8614097595e+01
    3.0200069427e+01    3.8615501404e+01
    3.0300050735e+01    3.8616996765e+01
    3.0399951935e+01    3.8618598938e+01
    3.0500064850e+01    3.8620101929e+01
    3.0599916458e+01    3.8621601105e+01
    3.0699962616e+01    3.8623100281e+01
    3.0800077438e+01    3.8624698639e+01
    3.0900070190e+01    3.8626300812e+01
    3.1000034332e+01    3.8627799988e+01
    3.1100049973e+01    3.8629398346e+01
    3.1200063705e+01    3.8631000519e+01
    3.1299907684e+01    3.8632598877e+01
    3.1399890900e+01    3.8634201050e+01
    3.1500045776e+01    3.8635799408e+01
    3.1600030899e+01    3.8637496948e+01
    3.1700052261e+01    3.8639099121e+01
    3.1799936295e+01    3.8640701294e+01
    3.1899904251e+01    3.8642398834e+01
    3.1999935150e+01    3.8644001007e+01
    3.2099964142e+01    3.8645698547e+01
    3.2199962616e+01    3.8647399902e+01
    3.2299892426e+01    3.8649101257e+01
    3.2400035858e+01    3.8650798798e+01
    3.2499904633e+01    3.8652500153e+01
    3.2599910736e+01    3.8654296875e+01
    3.2699932098e+01    3.8655998230e+01
    3.2800006866e+01    3.8657699585e+01
    3.2899936676e+01    3.8659500122e+01
    3.2999897003e+01    3.8661300659e+01
    3.3099899292e+01    3.8663101196e+01
    3.3199974060e+01    3.8664901733e+01
    3.3299999237e+01    3.8666698456e+01
    3.3400024414e+01    3.8668598175e+01
    3.3500003815e+01    3.8670398712e+01
    3.3600036621e+01    3.8672302246e+01
    3.3700035095e+01    3.8674098969e+01
    3.3799964905e+01    3.8676002502e+01
    3.3899883270e+01    3.8678001404e+01
    3.3999893188e+01    3.8679901123e+01
    3.4099880219e+01    3.8681800842e+01
    3.4199924469e+01    3.8683799744e+01
    3.4300014496e+01    3.8685699463e+01
    3.4400043488e+01    3.8687698364e+01
    3.4499973297e+01    3.8689701080e+01
    3.4599910736e+01    3.8691600800e+01
    3.4699939728e+01    3.8693801880e+01
    3.4799850464e+01    3.8695800781e+01
    3.4899990082e+01    3.8697799683e+01
    3.5000007629e+01    3.8699901581e+01
    3.5099903107e+01    3.8701999664e+01
    3.5199974060e+01    3.8704101562e+01
    3.5300006866e+01    3.8706199646e+01
    3.5399963379e+01    3.8708297729e+01
    3.5499870300e+01    3.8710498810e+01
    3.5599925995e+01    3.8712699890e+01
    3.5699993134e+01    3.8714797974e+01
    3.5799831390e+01    3.8716999054e+01
    3.5899917603e+01    3.8719299316e+01
    3.5999908447e+01    3.8721500397e+01
    3.6100002289e+01    3.8723800659e+01
    3.6199878693e+01    3.8726100922e+01
    3.6300014496e+01    3.8728401184e+01
    3.6399913788e+01    3.8730701447e+01
    3.6499870300e+01    3.8732902527e+01
    3.6599937439e+01    3.8735301971e+01
    3.6699829102e+01    3.8737701416e+01
    3.6799938202e+01    3.8740100861e+01
    3.6899948120e+01    3.8742500305e+01
    3.6999881744e+01    3.8744899750e+01
    3.7099990845e+01    3.8747398376e+01
    3.7199832916e+01    3.8749900818e+01
    3.7299980164e+01    3.8752300262e+01
    3.7399959564e+01    3.8754798889e+01
    3.7499820709e+01    3.8757400513e+01
    3.7599884033e+01    3.8759998322e+01
    3.7699859619e+01    3.8762500763e+01
    3.7799968719e+01    3.8765098572e+01
    3.7899860382e+01    3.8767799377e+01
    3.7999816895e+01    3.8770401001e+01
    3.8099857330e+01    3.8772998810e+01
    3.8199825287e+01    3.8775798798e+01
    3.8299835205e+01    3.8778499603e+01
    3.8399806976e+01    3.8781200409e+01
    3.8499923706e+01    3.8784000397e+01
    3.8599853516e+01    3.8786800385e+01
    3.8699958801e+01    3.8789497375e+01
    3.8799850464e+01    3.8792400360e+01
    3.8899860382e+01    3.8795299530e+01
    3.8999809265e+01    3.8798099518e+01
    3.9099887848e+01    3.8801101685e+01
    3.9199947357e+01    3.8804000854e+01
    3.9299854279e+01    3.8806999207e+01
    3.9399814606e+01    3.8810001373e+01
    3.9499824524e+01    3.8812999725e+01
    3.9599880219e+01    3.8816101074e+01
    3.9699913025e+01    3.8819099426e+01
    3.9799877167e+01    3.8822200775e+01
    3.9899894714e+01    3.8825302124e+01
    3.9999912262e+01    3.8828399658e+01
    4.0099914551e+01    3.8831699371e+01
    4.0199893951e+01    3.8834800720e+01
    4.0299804688e+01    3.8838100433e+01
    4.0399948120e+01    3.8841300964e+01
    4.0499835968e+01    3.8844699860e+01
    4.0599922180e+01    3.8847999573e+01
    4.0699909210e+01    3.8851299286e+01
    4.0799816132e+01    3.8854698181e+01
    4.0899898529e+01    3.8858100891e+01
    4.0999935150e+01    3.8861499786e+01
    4.1099929810e+01    3.8865100861e+01
    4.1199760437e+01    3.8868499756e+01
    4.1299900055e+01    3.8872001648e+01
    4.1399925232e+01    3.8875598907e+01
    4.1499919891e+01    3.8879199982e+01
    4.1599872589e+01    3.8882801056e+01
    4.1699752808e+01    3.8886497498e+01
    4.1799789429e+01    3.8890098572e+01
    4.1899768829e+01    3.8893798828e+01
    4.1999752045e+01    3.8897697449e+01
    4.2099834442e+01    3.8901397705e+01
    4.2199790955e+01    3.8905197144e+01
    4.2299854279e+01    3.8909099579e+01
    4.2399879456e+01    3.8912899017e+01
    4.2499816895e+01    3.8916801453e+01
    4.2599876404e+01    3.8920799255e+01
    4.2699844360e+01    3.8924697876e+01
    4.2799797058e+01    3.8928802490e+01
    4.2899894714e+01    3.8932800293e+01
    4.2999797821e+01    3.8936901093e+01
    4.3099784851e+01    3.8941001892e+01
    4.3199867249e+01    3.8945198059e+01
    4.3299751282e+01    3.8949298859e+01
    4.3399730682e+01    3.8953598022e+01
    4.3499862671e+01    3.8957801819e+01
    4.3599842072e+01    3.8962097168e+01
    4.3699726105e+01    3.8966499329e+01
    4.3799751282e+01    3.8970802307e+01
    4.3899768829e+01    3.8975196838e+01
    4.3999744415e+01    3.8979598999e+01
    4.4099803925e+01    3.8984100342e+01
    4.4199714661e+01    3.8988601685e+01
    4.4299701691e+01    3.8993099213e+01
    4.4399784088e+01    3.8997699738e+01
    4.4499786377e+01    3.9002399445e+01
    4.4599861145e+01    3.9006999969e+01
    4.4699787140e+01    3.9011699677e+01
    4.4799709320e+01    3.9016498566e+01
    4.4899871826e+01    3.9021202087e+01
    4.4999771118e+01    3.9026100159e+01
    4.5099750519e+01    3.9030899048e+01
    4.5199760437e+01    3.9035800934e+01
    4.5299850464e+01    3.9040702820e+01
    4.5399711609e+01    3.9045799255e+01
    4.5499698639e+01    3.9050701141e+01
    4.5599731445e+01    3.9055900574e+01
    4.5699748993e+01    3.9061000824e+01
    4.5799686432e+01    3.9066200256e+01
    4.5899711609e+01    3.9071399689e+01
    4.5999805450e+01    3.9076599121e+01
    4.6099761963e+01    3.9082000732e+01
    4.6199798584e+01    3.9087299347e+01
    4.6299755096e+01    3.9092700958e+01
    4.6399730682e+01    3.9098098755e+01
    4.6499851227e+01    3.9103698730e+01
    4.6599678040e+01    3.9109199524e+01
    4.6699825287e+01    3.9114799500e+01
    4.6799678802e+01    3.9120498657e+01
    4.6899757385e+01    3.9126201630e+01
    4.6999683380e+01    3.9131999969e+01
    4.7099811554e+01    3.9137802124e+01
    4.7199710846e+01    3.9143798828e+01
    4.7299736023e+01    3.9149700165e+01
    4.7399749756e+01    3.9155700684e+01
    4.7499786377e+01    3.9161800385e+01
    4.7599742889e+01    3.9167800903e+01
    4.7699718475e+01    3.9173999786e+01
    4.7799823761e+01    3.9180198669e+01
    4.7899753571e+01    3.9186500549e+01
    4.7999778748e+01    3.9192901611e+01
    4.8099697113e+01    3.9199298859e+01
    4.8199806213e+01    3.9205902100e+01
    4.8299800873e+01    3.9212299347e+01
    4.8399787903e+01    3.9219001770e+01
    4.8499740601e+01    3.9225700378e+01
    4.8599704742e+01    3.9232501984e+01
    4.8699787140e+01    3.9239200592e+01
    4.8799770355e+01    3.9246200562e+01
    4.8899726868e+01    3.9253101349e+01
    4.8999706268e+01    3.9260101318e+01
    4.9099693298e+01    3.9267200470e+01
    4.9199722290e+01    3.9274398804e+01
    4.9299640656e+01    3.9281600952e+01
    4.9399684906e+01    3.9289100647e+01
    4.9499626160e+01    3.9296398163e+01
    4.9599678040e+01    3.9304000854e+01
    4.9699726105e+01    3.9311599731e+01
    4.9799709320e+01    3.9319198608e+01
    4.9899654388e+01    3.9326999664e+01
    4.9999668121e+01    3.9334899902e+01
    5.0099781036e+01    3.9342800140e+01
    5.0199707031e+01    3.9350799561e+01
    5.0299766541e+01    3.9358898163e+01
    5.0399639130e+01    3.9367198944e+01
    5.0499649048e+01    3.9375499725e+01
    5.0599704742e+01    3.9383899689e+01
    5.0699642181e+01    3.9392398834e+01
    5.0799621582e+01    3.9401000977e+01
    5.0899742126e+01    3.9409698486e+01
    5.0999729156e+01    3.9418498993e+01
    5.1099594116e+01    3.9427299500e+01
    5.1199665070e+01    3.9436401367e+01
    5.1299671173e+01    3.9445499420e+01
    5.1399772644e+01    3.9454799652e+01
    5.1499618530e+01    3.9464099884e+01
    5.1599651337e+01    3.9473499298e+01
    5.1699710846e+01    3.9483200073e+01
    5.1799751282e+01    3.9492900848e+01
    5.1899730682e+01    3.9502700806e+01
    5.1999736786e+01    3.9512699127e+01
    5.2099716187e+01    3.9522701263e+01
    5.2199676514e+01    3.9532897949e+01
    5.2299659729e+01    3.9543201447e+01
    5.2399738312e+01    3.9553699493e+01
    5.2499767303e+01    3.9564300537e+01
    5.2599662781e+01    3.9575000763e+01
    5.2699695587e+01    3.9585800171e+01
    5.2799621582e+01    3.9596900940e+01
    5.2899677277e+01    3.9607997894e+01
    5.2999649048e+01    3.9619300842e+01
    5.3099750519e+01    3.9630699158e+01
    5.3199729919e+01    3.9642299652e+01
    5.3299728394e+01    3.9653999329e+01
    5.3399707794e+01    3.9665802002e+01
    5.3499660492e+01    3.9677902222e+01
    5.3599586487e+01    3.9689998627e+01
    5.3699623108e+01    3.9702400208e+01
    5.3799591064e+01    3.9714900970e+01
    5.3899669647e+01    3.9727500916e+01
    5.3999729156e+01    3.9740398407e+01
    5.4099582672e+01    3.9753398895e+01
    5.4199676514e+01    3.9766502380e+01
    5.4299655914e+01    3.9779899597e+01
    5.4399684906e+01    3.9793399811e+01
    5.4499641418e+01    3.9807197571e+01
    5.4599674225e+01    3.9820999146e+01
    5.4699680328e+01    3.9835201263e+01
    5.4799617767e+01    3.9849399567e+01
    5.4899673462e+01    3.9863899231e+01
    5.4999637604e+01    3.9878498077e+01
    5.5099704742e+01    3.9893501282e+01
    5.5199642181e+01    3.9908500671e+01
    5.5299640656e+01    3.9923801422e+01
    5.5399620056e+01    3.9939201355e+01
    5.5499706268e+01    3.9954898834e+01
    5.5599685669e+01    3.9970798492e+01
    5.5699604034e+01    3.9986900330e+01
    5.5799549103e+01    4.0003200531e+01
    5.5899547577e+01    4.0019798279e+01
    5.5999645233e+01    4.0036598206e+01
    5.6099678040e+01    4.0053501129e+01
    5.6199668884e+01    4.0070800781e+01
    5.6299594879e+01    4.0088199615e+01
    5.6399635315e+01    4.0105899811e+01
    5.6499668121e+01    4.0123802185e+01
    5.6599552155e+01    4.0141998291e+01
    5.6699531555e+01    4.0160301208e+01
    5.6799652100e+01    4.0179000854e+01
    5.6899631500e+01    4.0197799683e+01
    5.6999626160e+01    4.0216899872e+01
    5.7099605560e+01    4.0236297607e+01
    5.7199569702e+01    4.0255897522e+01
    5.7299514771e+01    4.0275798798e+01
    5.7399593353e+01    4.0295898438e+01
    5.7499534607e+01    4.0316299438e+01
    5.7599681854e+01    4.0337097168e+01
    5.7699653625e+01    4.0357898712e+01
    5.7799663544e+01    4.0379199982e+01
    5.7899555206e+01    4.0400600433e+01
    5.7999504089e+01    4.0422401428e+01
    5.8099674225e+01    4.0444400787e+01
    5.8199653625e+01    4.0466800690e+01
    5.8299644470e+01    4.0489398956e+01
    5.8399623871e+01    4.0512199402e+01
    5.8499538422e+01    4.0535400391e+01
    5.8599544525e+01    4.0558898926e+01
    5.8699539185e+01    4.0582599640e+01
    5.8799621582e+01    4.0606700897e+01
    5.8899559021e+01    4.0631099701e+01
    5.8999576569e+01    4.0655700684e+01
    5.9099563599e+01    4.0680698395e+01
    5.9199573517e+01    4.0705898285e+01
    5.9299583435e+01    4.0731498718e+01
    5.9399547577e+01    4.0757301331e+01
    5.9499599457e+01    4.0783599854e+01
    5.9599594116e+01    4.0809997559e+01
    5.9699523926e+01    4.0836799622e+01
    5.9799598694e+01    4.0863899231e+01
    5.9899604797e+01    4.0891300201e+01
    5.9999633789e+01    4.0919097900e+01
    6.0099628448e+01    4.0947097778e+01
    6.0199493408e+01    4.0975399017e+01
    6.0299625397e+01    4.1004100800e+01
    6.0399467468e+01    4.1033000946e+01
    6.0499645233e+01    4.1062400818e+01
    6.0599594116e+01    4.1091999054e+01
    6.0699577332e+01    4.1121902466e+01
    6.0799602509e+01    4.1152198792e+01
    6.0899562836e+01    4.1182701111e+01
    6.0999542236e+01    4.1213699341e+01
    6.1099597931e+01    4.1244899750e+01
    6.1199462891e+01    4.1276500702e+01
    6.1299468994e+01    4.1308300018e+01
    6.1399532318e+01    4.1340599060e+01
    6.1499580383e+01    4.1373199463e+01
    6.1599521637e+01    4.1406101227e+01
    6.1699501038e+01    4.1439300537e+01
    6.1799594879e+01    4.1472900391e+01
    6.1899448395e+01    4.1506801605e+01
    6.1999530792e+01    4.1541099548e+01
    6.2099483490e+01    4.1575599670e+01
    6.2199577332e+01    4.1610599518e+01
    6.2299480438e+01    4.1645797729e+01
    6.2399524689e+01    4.1681400299e+01
    6.2499534607e+01    4.1717399597e+01
    6.2599536896e+01    4.1753700256e+01
    6.2699455261e+01    4.1790298462e+01
    6.2799602509e+01    4.1827301025e+01
    6.2899509430e+01    4.1864700317e+01
    6.2999492645e+01    4.1902397156e+01
    6.3099544525e+01    4.1940498352e+01
    6.3199466705e+01    4.1978797913e+01
    6.3299579620e+01    4.2017700195e+01
    6.3399459839e+01    4.2056800842e+01
    6.3499511719e+01    4.2096298218e+01
    6.3599422455e+01    4.2136100769e+01
    6.3699451447e+01    4.2176300049e+01
    6.3799495697e+01    4.2216899872e+01
    6.3899475098e+01    4.2257900238e+01
    6.3999450684e+01    4.2299098969e+01
    6.4099510193e+01    4.2340900421e+01
    6.4199478149e+01    4.2382900238e+01
    6.4299468994e+01    4.2425300598e+01
    6.4399559021e+01    4.2468200684e+01
    6.4499542236e+01    4.2511398315e+01
    6.4599395752e+01    4.2555000305e+01
    6.4699455261e+01    4.2598999023e+01
    6.4799522400e+01    4.2643398285e+01
    6.4899398804e+01    4.2688098907e+01
    6.4999443054e+01    4.2733200073e+01
    6.5099433899e+01    4.2778800964e+01
    6.5199409485e+01    4.2824802399e+01
    6.5299514771e+01    4.2871200562e+01
    6.5399497986e+01    4.2917999268e+01
    6.5499450684e+01    4.2965202332e+01
    6.5599525452e+01    4.3012901306e+01
    6.5699386597e+01    4.3060897827e+01
    6.5799453735e+01    4.3109401703e+01
    6.5899436951e+01    4.3158298492e+01
    6.5999519348e+01    4.3207702637e+01
    6.6099472046e+01    4.3257499695e+01
    6.6199424744e+01    4.3307701111e+01
    6.6299377441e+01    4.3358497620e+01
    6.6399536133e+01    4.3409698486e+01
    6.6499443054e+01    4.3461296082e+01
    6.6599395752e+01    4.3513298035e+01
    6.6699371338e+01    4.3565902710e+01
    6.6799446106e+01    4.3618896484e+01
    6.6899421692e+01    4.3672401428e+01
    6.6999504089e+01    4.3726501465e+01
    6.7099449158e+01    4.3780998230e+01
    6.7199447632e+01    4.3835998535e+01
    6.7299522400e+01    4.3891502380e+01
    6.7399459839e+01    4.3947502136e+01
    6.7499397278e+01    4.4003997803e+01
    6.7599479675e+01    4.4061199188e+01
    6.7699516296e+01    4.4118797302e+01
    6.7799362183e+01    4.4176799774e+01
    6.7899391174e+01    4.4235496521e+01
    6.7999374390e+01    4.4294700623e+01
    6.8099365234e+01    4.4354499817e+01
    6.8199417114e+01    4.4414901733e+01
    6.8299499512e+01    4.4475700378e+01
    6.8399482727e+01    4.4537200928e+01
    6.8499343872e+01    4.4599201202e+01
    6.8599365234e+01    4.4661800385e+01
    6.8699516296e+01    4.4725200653e+01
    6.8799339294e+01    4.4788997650e+01
    6.8899475098e+01    4.4853500366e+01
    6.8999374390e+01    4.4918601990e+01
    6.9099388123e+01    4.4984302521e+01
    6.9199409485e+01    4.5050598145e+01
    6.9299392700e+01    4.5117599487e+01
    6.9399467468e+01    4.5185302734e+01
    6.9499427795e+01    4.5253597260e+01
    6.9599464417e+01    4.5322601318e+01
    6.9699363708e+01    4.5392101288e+01
    6.9799392700e+01    4.5462501526e+01
    6.9899414062e+01    4.5533500671e+01
    6.9999320984e+01    4.5605201721e+01
    7.0099342346e+01    4.5677700043e+01
    7.0199378967e+01    4.5750801086e+01
    7.0299461365e+01    4.5824897766e+01
    7.0399444580e+01    4.5899398804e+01
    7.0499359131e+01    4.5974800110e+01
    7.0599334717e+01    4.6050899506e+01
    7.0699409485e+01    4.6127902985e+01
    7.0799461365e+01    4.6205600739e+01
    7.0899421692e+01    4.6284099579e+01
    7.0999389648e+01    4.6363304138e+01
    7.1099395752e+01    4.6443500519e+01
    7.1199417114e+01    4.6524398804e+01
    7.1299293518e+01    4.6606101990e+01
    7.1399383545e+01    4.6688701630e+01
    7.1499328613e+01    4.6772098541e+01
    7.1599449158e+01    4.6856498718e+01
    7.1699432373e+01    4.6941699982e+01
    7.1799308777e+01    4.7027698517e+01
    7.1899291992e+01    4.7114700317e+01
    7.1999328613e+01    4.7202697754e+01
    7.2099304199e+01    4.7291500092e+01
    7.2199424744e+01    4.7381401062e+01
    7.2299301147e+01    4.7472000122e+01
    7.2399383545e+01    4.7563899994e+01
    7.2499389648e+01    4.7656600952e+01
    7.2599365234e+01    4.7750198364e+01
    7.2699371338e+01    4.7845001221e+01
    7.2799331665e+01    4.7940696716e+01
    7.2899375916e+01    4.8037498474e+01
    7.2999389648e+01    4.8135398865e+01
    7.3099311829e+01    4.8234401703e+01
    7.3199295044e+01    4.8334400177e+01
    7.3299423218e+01    4.8435600281e+01
    7.3399314880e+01    4.8537696838e+01
    7.3499420166e+01    4.8641300201e+01
    7.3599395752e+01    4.8745800018e+01
    7.3699440002e+01    4.8851600647e+01
    7.3799438477e+01    4.8958396912e+01
    7.3899391174e+01    4.9066398621e+01
    7.3999275208e+01    4.9175598145e+01
    7.4099388123e+01    4.9286098480e+01
    7.4199371338e+01    4.9397899628e+01
    7.4299369812e+01    4.9510799408e+01
    7.4399353027e+01    4.9625000000e+01
    7.4499359131e+01    4.9740402222e+01
    7.4599411011e+01    4.9857200623e+01
    7.4699378967e+01    4.9975101471e+01
    7.4799407959e+01    5.0094398499e+01
    7.4899337769e+01    5.0215000153e+01
    7.4999320984e+01    5.0336898804e+01
    7.5099319458e+01    5.0459999084e+01
    7.5199310303e+01    5.0584602356e+01
    7.5299407959e+01    5.0710601807e+01
    7.5399299622e+01    5.0837600708e+01
    7.5499374390e+01    5.0966197968e+01
    7.5599380493e+01    5.1095897675e+01
    7.5699348450e+01    5.1226997375e+01
    7.5799232483e+01    5.1359298706e+01
    7.5899368286e+01    5.1493297577e+01
    7.5999298096e+01    5.1628299713e+01
    7.6099266052e+01    5.1764701843e+01
    7.6199386597e+01    5.1902702332e+01
    7.6299369812e+01    5.2041900635e+01
    7.6399230957e+01    5.2182300568e+01
    7.6499229431e+01    5.2324398041e+01
    7.6599227905e+01    5.2467998505e+01
    7.6699302673e+01    5.2613201141e+01
    7.6799240112e+01    5.2759696960e+01
    7.6899276733e+01    5.2908000946e+01
    7.6999382019e+01    5.3057800293e+01
    7.7099243164e+01    5.3208801270e+01
    7.7199279785e+01    5.3361598969e+01
    7.7299247742e+01    5.3516098022e+01
    7.7399253845e+01    5.3672100067e+01
    7.7499336243e+01    5.3829898834e+01
    7.7599319458e+01    5.3989200592e+01
    7.7699325562e+01    5.4150096893e+01
    7.7799324036e+01    5.4312702179e+01
    7.7899276733e+01    5.4476902008e+01
    7.7999229431e+01    5.4642799377e+01
    7.8099342346e+01    5.4810649872e+01
    7.8199249268e+01    5.4979938507e+01
    7.8299301147e+01    5.5151130676e+01
    7.8399368286e+01    5.5324127197e+01
    7.8499252319e+01    5.5498558044e+01
    7.8599197388e+01    5.5674812317e+01
    7.8699264526e+01    5.5853069305e+01
    7.8799285889e+01    5.6033039093e+01
    7.8899314880e+01    5.6214832306e+01
    7.8999229431e+01    5.6398139954e+01
    7.9099288940e+01    5.6583530426e+01
    7.9199195862e+01    5.6770420074e+01
    7.9299339294e+01    5.6959671021e+01
    7.9399291992e+01    5.7150207520e+01
    7.9499176025e+01    5.7342514038e+01
    7.9599281311e+01    5.7537017822e+01
    7.9699317932e+01    5.7733146667e+01
    7.9799285889e+01    5.7930900574e+01
    7.9899192810e+01    5.8130352020e+01
    7.9999275208e+01    5.8331958771e+01
    8.0099197388e+01    5.8534969330e+01
    8.0199302673e+01    5.8740230560e+01
    8.0299240112e+01    5.8946880341e+01
    8.0399215698e+01    5.9155521393e+01
    8.0499229431e+01    5.9366050720e+01
    8.0599174500e+01    5.9578281403e+01
    8.0699226379e+01    5.9792720795e+01
    8.0799255371e+01    6.0009078979e+01
    8.0899291992e+01    6.0227378845e+01
    8.0999145508e+01    6.0447238922e+01
    8.1099212646e+01    6.0669517517e+01
    8.1199157715e+01    6.0893669128e+01
    8.1299278259e+01    6.1120250702e+01
    8.1399299622e+01    6.1348598480e+01
    8.1499214172e+01    6.1578720093e+01
    8.1599304199e+01    6.1811462402e+01
    8.1699234009e+01    6.2045879364e+01
    8.1799186707e+01    6.2282341003e+01
    8.1899284363e+01    6.2521423340e+01
    8.1999198914e+01    6.2762058258e+01
    8.2099212646e+01    6.3005119324e+01
    8.2199157715e+01    6.3250209808e+01
    8.2299140930e+01    6.3497489929e+01
    8.2399185181e+01    6.3746959686e+01
    8.2499206543e+01    6.3998607635e+01
    8.2599182129e+01    6.4252220154e+01
    8.2699302673e+01    6.4508361816e+01
    8.2799171448e+01    6.4765968323e+01
    8.2899185181e+01    6.5026077271e+01
    8.2999137878e+01    6.5288208008e+01
    8.3099205017e+01    6.5552719116e+01
    8.3199256897e+01    6.5819328308e+01
    8.3299118042e+01    6.6087661743e+01
    8.3399185181e+01    6.6358657837e+01
    8.3499282837e+01    6.6631851196e+01
    8.3599143982e+01    6.6906700134e+01
    8.3699211121e+01    6.7184326172e+01
    8.3799140930e+01    6.7463813782e+01
    8.3899223328e+01    6.7745903015e+01
    8.3999244690e+01    6.8030151367e+01
    8.4099189758e+01    6.8316566467e+01
    8.4199157715e+01    6.8605232239e+01
    8.4299240112e+01    6.8896629333e+01
    8.4399177551e+01    6.9190002441e+01
    8.4499221802e+01    6.9485908508e+01
    8.4599197388e+01    6.9784088135e+01
    8.4699104309e+01    7.0084411621e+01
    8.4799156189e+01    7.0387641907e+01
    8.4899238586e+01    7.0693283081e+01
    8.4999130249e+01    7.1000762939e+01
    8.5099166870e+01    7.1311088562e+01
    8.5199226379e+01    7.1623878479e+01
    8.5299110413e+01    7.1938461304e+01
    8.5399185181e+01    7.2256019592e+01
    8.5499176025e+01    7.2575607300e+01
    8.5599174500e+01    7.2897689819e+01
    8.5699081421e+01    7.3221763611e+01
    8.5799240112e+01    7.3548919678e+01
    8.5899177551e+01    7.3877685547e+01
    8.5999191284e+01    7.4209075928e+01
    8.6099182129e+01    7.4542724609e+01
    8.6199142456e+01    7.4878616333e+01
    8.6299156189e+01    7.5217063904e+01
    8.6399223328e+01    7.5558059692e+01
    8.6499237061e+01    7.5901153564e+01
    8.6599189758e+01    7.6246551514e+01
    8.6699150085e+01    7.6594352722e+01
    8.6799064636e+01    7.6944465637e+01
    8.6899177551e+01    7.7297637939e+01
    8.6999122620e+01    7.7652702332e+01
    8.7099098206e+01    7.8010269165e+01
    8.7199165344e+01    7.8370643616e+01
    8.7299140930e+01    7.8733184814e+01
    8.7399230957e+01    7.9098617554e+01
    8.7499076843e+01    7.9465560913e+01
    8.7599189758e+01    7.9835937500e+01
    8.7699081421e+01    8.0208000183e+01
    8.7799217224e+01    8.0583282471e+01
    8.7899101257e+01    8.0960144043e+01
    8.7999153137e+01    8.1339904785e+01
    8.8099166870e+01    8.1721954346e+01
    8.8199073792e+01    8.2105979919e+01
    8.8299072266e+01    8.2492622375e+01
    8.8399131775e+01    8.2881858826e+01
    8.8499114990e+01    8.3273139954e+01
    8.8599082947e+01    8.3666633606e+01
    8.8699188232e+01    8.4062995911e+01
    8.8799125671e+01    8.4460929871e+01
    8.8899147034e+01    8.4861541748e+01
    8.8999183655e+01    8.5264450073e+01
    8.9099037170e+01    8.5668830872e+01
    8.9199195862e+01    8.6076789856e+01
    8.9299102783e+01    8.6485954285e+01
    8.9399093628e+01    8.6897583008e+01
    8.9499137878e+01    8.7311660767e+01
    8.9599090576e+01    8.7727584839e+01
    8.9699150085e+01    8.8146118164e+01
    8.9799072266e+01    8.8566177368e+01
    8.9899032593e+01    8.8988479614e+01
    8.9999076843e+01    8.9413169861e+01
    9.0099029541e+01    8.9839622498e+01
    9.0199073792e+01    9.0268341064e+01
    9.0299156189e+01    9.0699325562e+01
    9.0399047852e+01    9.1131362915e+01
    9.0499008179e+01    9.1565528870e+01
    9.0599060059e+01    9.2002006531e+01
    9.0699073792e+01    9.2440238953e+01
    9.0799079895e+01    9.2880111694e+01
    9.0899169922e+01    9.3322166443e+01
    9.0999160767e+01    9.3765701294e+01
    9.1099159241e+01    9.4210861206e+01
    9.1198989868e+01    9.4657035828e+01
    9.1299125671e+01    9.5106300354e+01
    9.1399002075e+01    9.5556144714e+01
    9.1499053955e+01    9.6008354187e+01
    9.1599166870e+01    9.6462562561e+01
    9.1699150085e+01    9.6917701721e+01
    9.1799072266e+01    9.7374221802e+01
    9.1898986816e+01    9.7832183838e+01
    9.1999114990e+01    9.8292655945e+01
    9.2099151611e+01    9.8754211426e+01
    9.2199066162e+01    9.9216636658e+01
    9.2299140930e+01    9.9681274414e+01
    9.2399063110e+01    1.0014635468e+02
    9.2498970032e+01    1.0061281586e+02
    9.2599151611e+01    1.0108164978e+02
    9.2699104309e+01    1.0155072784e+02
    9.2799057007e+01    1.0202082825e+02
    9.2899009705e+01    1.0249201965e+02
    9.2999038696e+01    1.0296464539e+02
    9.3099113464e+01    1.0343843842e+02
    9.3199020386e+01    1.0391240692e+02
    9.3299140930e+01    1.0438841248e+02
    9.3399040222e+01    1.0486414337e+02
    9.3499046326e+01    1.0534128571e+02
    9.3599067688e+01    1.0581979370e+02
    9.3699058533e+01    1.0629761505e+02
    9.3799118042e+01    1.0677758789e+02
    9.3898994446e+01    1.0725788116e+02
    9.3999099731e+01    1.0773921204e+02
    9.4099098206e+01    1.0822080994e+02
    9.4199043274e+01    1.0870262909e+02
    9.4298988342e+01    1.0918562317e+02
    9.4399078369e+01    1.0966865540e+02
    9.4499061584e+01    1.1015291595e+02
    9.4598999023e+01    1.1063632965e+02
    9.4699043274e+01    1.1112075806e+02
    9.4799072266e+01    1.1160629272e+02
    9.4899078369e+01    1.1209090424e+02
    9.4999069214e+01    1.1257557678e+02
    9.5099082947e+01    1.1306024933e+02
    9.5198936462e+01    1.1354507446e+02
    9.5299011230e+01    1.1402972412e+02
    9.5398971558e+01    1.1451448059e+02
    9.5499000549e+01    1.1499916840e+02
    9.5598930359e+01    1.1548395538e+02
    9.5699043274e+01    1.1596855927e+02
    9.5799041748e+01    1.1645228577e+02
    9.5898963928e+01    1.1693609619e+02
    9.5998962402e+01    1.1741986847e+02
    9.6099014282e+01    1.1790361786e+02
    9.6198989868e+01    1.1838647461e+02
    9.6299064636e+01    1.1886928558e+02
    9.6398948669e+01    1.1935131836e+02
    9.6498908997e+01    1.1983333588e+02
    9.6598922729e+01    1.2031534576e+02
    9.6699005127e+01    1.2079733276e+02
    9.6798927307e+01    1.2127749634e+02
    9.6899078369e+01    1.2175945282e+02
    9.6998916626e+01    1.2223873138e+02
    9.7099029541e+01    1.2271872711e+02
    9.7198959351e+01    1.2319689941e+02
    9.7298965454e+01    1.2367597198e+02
    9.7399002075e+01    1.2415396118e+02
    9.7499015808e+01    1.2463092041e+02
    9.7599006653e+01    1.2510784912e+02
    9.7698928833e+01    1.2558378601e+02
    9.7798988342e+01    1.2605950928e+02
    9.7899070740e+01    1.2653511810e+02
    9.7998893738e+01    1.2700892639e+02
    9.8099021912e+01    1.2748332977e+02
    9.8199058533e+01    1.2795674133e+02
    9.8298927307e+01    1.2842825317e+02
    9.8398918152e+01    1.2889952087e+02
    9.8498878479e+01    1.2937074280e+02
    9.8599029541e+01    1.2984162903e+02
    9.8698898315e+01    1.3031072998e+02
    9.8798988342e+01    1.3078042603e+02
    9.8898880005e+01    1.3124824524e+02
    9.8999015808e+01    1.3171559143e+02
    9.9098937988e+01    1.3218203735e+02
    9.9199012756e+01    1.3264910889e+02
    9.9298866272e+01    1.3311326599e+02
    9.9399017334e+01    1.3357885742e+02
    9.9499008179e+01    1.3404240417e+02
    9.9598953247e+01    1.3450581360e+02
    9.9698928833e+01    1.3496794128e+02
    9.9798873901e+01    1.3542886353e+02
    9.9898933411e+01    1.3589041138e+02
    9.9998992920e+01    1.3635070801e+02
    1.0009896088e+02    1.3680989075e+02
    1.0019893646e+02    1.3726780701e+02
    1.0029895020e+02    1.3772645569e+02
    1.0039897156e+02    1.3818385315e+02
    1.0049887848e+02    1.3864016724e+02
    1.0059892273e+02    1.3909606934e+02
    1.0069885254e+02    1.3955087280e+02
    1.0079901123e+02    1.4000611877e+02
    1.0089897919e+02    1.4046038818e+02
    1.0099891663e+02    1.4091346741e+02
    1.0109893799e+02    1.4136717224e+02
    1.0119895935e+02    1.4181958008e+02
    1.0129891205e+02    1.4227185059e+02
    1.0139890289e+02    1.4272276306e+02
    1.0149883270e+02    1.4317346191e+02
    1.0159896851e+02    1.4362455750e+02
    1.0169889069e+02    1.4407466125e+02
    1.0179886627e+02    1.4452433777e+02
    1.0189897156e+02    1.4497451782e+02
    1.0199889374e+02    1.4542362976e+02
    1.0209887695e+02    1.4587133789e+02
    1.0219895935e+02    1.4632051086e+02
    1.0229892731e+02    1.4676853943e+02
    1.0239885712e+02    1.4721629333e+02
    1.0249897003e+02    1.4766444397e+02
    1.0259893036e+02    1.4811149597e+02
    1.0269882965e+02    1.4855831909e+02
    1.0279891205e+02    1.4900650024e+02
    1.0289888763e+02    1.4945352173e+02
    1.0299897766e+02    1.4990103149e+02
    1.0309898376e+02    1.5034835815e+02
    1.0319895935e+02    1.5079437256e+02
    1.0329882050e+02    1.5124128723e+02
    1.0339881134e+02    1.5168859863e+02
    1.0349881744e+02    1.5213551331e+02
    1.0359887695e+02    1.5258297729e+02
    1.0369892883e+02    1.5303005981e+02
    1.0379889679e+02    1.5347694397e+02
    1.0389881897e+02    1.5392446899e+02
    1.0399887085e+02    1.5437138367e+02
    1.0409890747e+02    1.5481990051e+02
    1.0419893646e+02    1.5526698303e+02
    1.0429891205e+02    1.5571478271e+02
    1.0439893341e+02    1.5616302490e+02
    1.0449887085e+02    1.5661097717e+02
    1.0459879303e+02    1.5705853271e+02
    1.0469882965e+02    1.5750741577e+02
    1.0479884338e+02    1.5795590210e+02
    1.0489894104e+02    1.5840475464e+02
    1.0499886322e+02    1.5885350037e+02
    1.0509892273e+02    1.5930252075e+02
    1.0519882202e+02    1.5975143433e+02
    1.0529882812e+02    1.6020159912e+02
    1.0539887238e+02    1.6065130615e+02
    1.0549893951e+02    1.6110150146e+02
    1.0559886932e+02    1.6155139160e+02
    1.0569888306e+02    1.6200180054e+02
    1.0579888916e+02    1.6245259094e+02
    1.0589884949e+02    1.6290310669e+02
    1.0599878693e+02    1.6335420227e+02
    1.0609890747e+02    1.6380639648e+02
    1.0619886017e+02    1.6425740051e+02
    1.0629885101e+02    1.6470890808e+02
    1.0639881897e+02    1.6516090393e+02
    1.0649886322e+02    1.6561329651e+02
    1.0659877014e+02    1.6606549072e+02
    1.0669892120e+02    1.6651860046e+02
    1.0679878998e+02    1.6697090149e+02
    1.0689884949e+02    1.6742419434e+02
    1.0699889374e+02    1.6787710571e+02
    1.0709883881e+02    1.6833068848e+02
    1.0719876862e+02    1.6878390503e+02
    1.0729885101e+02    1.6923820496e+02
    1.0739888763e+02    1.6969210815e+02
    1.0749874878e+02    1.7014590454e+02
    1.0759892273e+02    1.7060150146e+02
    1.0769889069e+02    1.7105499268e+02
    1.0779891968e+02    1.7150981140e+02
    1.0789891052e+02    1.7196520996e+02
    1.0799877930e+02    1.7241940308e+02
    1.0809873962e+02    1.7287379456e+02
    1.0819891357e+02    1.7333000183e+02
    1.0829881287e+02    1.7378439331e+02
    1.0839877319e+02    1.7424009705e+02
    1.0849880981e+02    1.7469490051e+02
    1.0859876251e+02    1.7515039062e+02
    1.0869876099e+02    1.7560510254e+02
    1.0879879761e+02    1.7606109619e+02
    1.0889884949e+02    1.7651651001e+02
    1.0899874878e+02    1.7697160339e+02
    1.0909887695e+02    1.7742649841e+02
    1.0919886780e+02    1.7788209534e+02
    1.0929885101e+02    1.7833709717e+02
    1.0939877319e+02    1.7879159546e+02
    1.0949873352e+02    1.7924630737e+02
    1.0959871674e+02    1.7970030212e+02
    1.0969873047e+02    1.8015460205e+02
    1.0979873657e+02    1.8060920715e+02
    1.0989884186e+02    1.8106399536e+02
    1.0999887085e+02    1.8151820374e+02
    1.1009880829e+02    1.8197100830e+02
    1.1019876099e+02    1.8242420959e+02
    1.1029876709e+02    1.8287741089e+02
    1.1039875793e+02    1.8333110046e+02
    1.1049874115e+02    1.8378309631e+02
    1.1059873199e+02    1.8423539734e+02
    1.1069872284e+02    1.8468798828e+02
    1.1079878998e+02    1.8513969421e+02
    1.1089869690e+02    1.8559109497e+02
    1.1099884033e+02    1.8604220581e+02
    1.1109870911e+02    1.8649229431e+02
    1.1119869995e+02    1.8694338989e+02
    1.1129872894e+02    1.8739259338e+02
    1.1139874268e+02    1.8784219360e+02
    1.1149873352e+02    1.8829209900e+02
    1.1159870148e+02    1.8874031067e+02
    1.1169869232e+02    1.8918879700e+02
    1.1179868317e+02    1.8963650513e+02
    1.1189868164e+02    1.9008340454e+02
    1.1199874115e+02    1.9053039551e+02
    1.1209882355e+02    1.9097650146e+02
    1.1219873810e+02    1.9142250061e+02
    1.1229873657e+02    1.9186740112e+02
    1.1239882660e+02    1.9231221008e+02
    1.1249884033e+02    1.9275650024e+02
    1.1259866333e+02    1.9319869995e+02
    1.1269883728e+02    1.9364300537e+02
    1.1279876709e+02    1.9408520508e+02
    1.1289865875e+02    1.9452578735e+02
    1.1299873352e+02    1.9496710205e+02
    1.1309867096e+02    1.9540789795e+02
    1.1319876862e+02    1.9584739685e+02
    1.1329865265e+02    1.9628590393e+02
    1.1339866638e+02    1.9672509766e+02
    1.1349880219e+02    1.9716310120e+02
    1.1359867096e+02    1.9760031128e+02
    1.1369869995e+02    1.9803599548e+02
    1.1379865265e+02    1.9847219849e+02
    1.1389875793e+02    1.9890710449e+02
    1.1399877167e+02    1.9934150696e+02
    1.1409873962e+02    1.9977520752e+02
    1.1419869232e+02    2.0020820618e+02
    1.1429866028e+02    2.0063929749e+02
    1.1439868927e+02    2.0107141113e+02
    1.1449877167e+02    2.0150250244e+02
    1.1459867859e+02    2.0193139648e+02
    1.1469879150e+02    2.0236170959e+02
    1.1479863739e+02    2.0278919983e+02
    1.1489871979e+02    2.0321699524e+02
    1.1499873352e+02    2.0364421082e+02
    1.1509864044e+02    2.0406990051e+02
    1.1519879913e+02    2.0449578857e+02
    1.1529866028e+02    2.0491899109e+02
    1.1539878845e+02    2.0534339905e+02
    1.1549864960e+02    2.0576579285e+02
    1.1559868622e+02    2.0618769836e+02
    1.1569876862e+02    2.0660861206e+02
    1.1579872894e+02    2.0702908325e+02
    1.1589878082e+02    2.0744830322e+02
    1.1599871826e+02    2.0786709595e+02
    1.1609871674e+02    2.0828469849e+02
    1.1619872284e+02    2.0870138550e+02
    1.1629871368e+02    2.0911730957e+02
    1.1639862061e+02    2.0953149414e+02
    1.1649859619e+02    2.0994560242e+02
    1.1659864807e+02    2.1035949707e+02
    1.1669869995e+02    2.1077148438e+02
    1.1679871368e+02    2.1118370056e+02
    1.1689866638e+02    2.1159329224e+02
    1.1699861145e+02    2.1200288391e+02
    1.1709877777e+02    2.1241270447e+02
    1.1719860840e+02    2.1282000732e+02
    1.1729866028e+02    2.1322650146e+02
    1.1739865875e+02    2.1363319397e+02
    1.1749868011e+02    2.1403799438e+02
    1.1759870148e+02    2.1444270325e+02
    1.1769872284e+02    2.1484559631e+02
    1.1779862213e+02    2.1524801636e+02
    1.1789862061e+02    2.1564910889e+02
    1.1799871063e+02    2.1604978943e+02
    1.1809870911e+02    2.1644900513e+02
    1.1819860077e+02    2.1684768677e+02
    1.1829857635e+02    2.1724499512e+02
    1.1839868927e+02    2.1764190674e+02
    1.1849871826e+02    2.1803710938e+02
    1.1859864807e+02    2.1843170166e+02
    1.1869872284e+02    2.1882580566e+02
    1.1879872894e+02    2.1921809387e+02
    1.1889864349e+02    2.1961000061e+02
    1.1899858856e+02    2.1999971008e+02
    1.1909860992e+02    2.2039001465e+02
    1.1919872284e+02    2.2077899170e+02
    1.1929871368e+02    2.2116648865e+02
    1.1939868927e+02    2.2155300903e+02
    1.1949868011e+02    2.2193849182e+02
    1.1959871674e+02    2.2232369995e+02
    1.1969862366e+02    2.2270660400e+02
    1.1979859924e+02    2.2308911133e+02
    1.1989872742e+02    2.2347090149e+02
    1.1999868774e+02    2.2385139465e+02
    1.2009866333e+02    2.2423078918e+02
    1.2019872284e+02    2.2460870361e+02
    1.2029871368e+02    2.2498689270e+02
    1.2039859009e+02    2.2536270142e+02
    1.2049855042e+02    2.2573690796e+02
    1.2059867096e+02    2.2611128235e+02
    1.2069860077e+02    2.2648460388e+02
    1.2079862976e+02    2.2685629272e+02
    1.2089871216e+02    2.2722769165e+02
    1.2099858856e+02    2.2759600830e+02
    1.2109860992e+02    2.2796459961e+02
    1.2119866943e+02    2.2833279419e+02
    1.2129872131e+02    2.2869911194e+02
    1.2139868164e+02    2.2906370544e+02
    1.2149858093e+02    2.2942761230e+02
    1.2159866333e+02    2.2979141235e+02
    1.2169863892e+02    2.3015267944e+02
    1.2179853821e+02    2.3051330566e+02
    1.2189855194e+02    2.3087318420e+02
    1.2199861145e+02    2.3123179626e+02
    1.2209863281e+02    2.3158949280e+02
    1.2219857025e+02    2.3194551086e+02
    1.2229857635e+02    2.3230010986e+02
    1.2239852905e+02    2.3265380859e+02
    1.2249851990e+02    2.3300720215e+02
    1.2259855652e+02    2.3335929871e+02
    1.2269854736e+02    2.3370948792e+02
    1.2279866791e+02    2.3405889893e+02
    1.2289853668e+02    2.3440750122e+02
    1.2299852753e+02    2.3475430298e+02
    1.2309864044e+02    2.3510140991e+02
    1.2319860840e+02    2.3544610596e+02
    1.2329862213e+02    2.3578930664e+02
    1.2339853668e+02    2.3613198853e+02
    1.2349858093e+02    2.3647378540e+02
    1.2359858704e+02    2.3681369019e+02
    1.2369866943e+02    2.3715299988e+02
    1.2379862976e+02    2.3749081421e+02
    1.2389856720e+02    2.3782749939e+02
    1.2399858093e+02    2.3816380310e+02
    1.2409866333e+02    2.3849841309e+02
    1.2419860840e+02    2.3883158875e+02
    1.2429853058e+02    2.3916390991e+02
    1.2439864349e+02    2.3949481201e+02
    1.2449859619e+02    2.3982548523e+02
    1.2459851074e+02    2.4015420532e+02
    1.2469851685e+02    2.4048217773e+02
    1.2479850769e+02    2.4080819702e+02
    1.2489859009e+02    2.4113439941e+02
    1.2499849701e+02    2.4145849609e+02
    1.2509860229e+02    2.4178219604e+02
    1.2519863892e+02    2.4210418701e+02
    1.2529862213e+02    2.4242529297e+02
    1.2539853668e+02    2.4274560547e+02
    1.2549862671e+02    2.4306469727e+02
    1.2559851837e+02    2.4338269043e+02
    1.2569854736e+02    2.4369879150e+02
    1.2579862213e+02    2.4401541138e+02
    1.2589849854e+02    2.4432989502e+02
    1.2599858856e+02    2.4464300537e+02
    1.2609848785e+02    2.4495590210e+02
    1.2619850159e+02    2.4526712036e+02
    1.2629852295e+02    2.4557690430e+02
    1.2639851379e+02    2.4588681030e+02
    1.2649845886e+02    2.4619461060e+02
    1.2659848022e+02    2.4650169373e+02
    1.2669848633e+02    2.4680780029e+02
    1.2679846954e+02    2.4711270142e+02
    1.2689853668e+02    2.4741690063e+02
    1.2699855042e+02    2.4772030640e+02
    1.2709844971e+02    2.4802200317e+02
    1.2719851685e+02    2.4832250977e+02
    1.2729850769e+02    2.4862231445e+02
    1.2739862061e+02    2.4892208862e+02
    1.2749845886e+02    2.4921929932e+02
    1.2759851074e+02    2.4951599121e+02
    1.2769847870e+02    2.4981201172e+02
    1.2779855347e+02    2.5010700989e+02
    1.2789843750e+02    2.5039999390e+02
    1.2799859619e+02    2.5069400024e+02
    1.2809854126e+02    2.5098498535e+02
    1.2819854736e+02    2.5127499390e+02
    1.2829861450e+02    2.5156600952e+02
    1.2839848328e+02    2.5185398865e+02
    1.2849851990e+02    2.5214199829e+02
    1.2859858704e+02    2.5242900085e+02
    1.2869854736e+02    2.5271499634e+02
    1.2879850769e+02    2.5299900818e+02
    1.2889848328e+02    2.5328399658e+02
    1.2899859619e+02    2.5356701660e+02
    1.2909861755e+02    2.5384899902e+02
    1.2919865417e+02    2.5413000488e+02
    1.2929861450e+02    2.5440998840e+02
    1.2939854431e+02    2.5468901062e+02
    1.2949856567e+02    2.5496798706e+02
    1.2959852600e+02    2.5524499512e+02
    1.2969854736e+02    2.5552099609e+02
    1.2979861450e+02    2.5579699707e+02
    1.2989862061e+02    2.5607202148e+02
    1.2999862671e+02    2.5634600830e+02
    1.3009857178e+02    2.5661901855e+02
    1.3019856262e+02    2.5689099121e+02
    1.3029859924e+02    2.5716302490e+02
    1.3039862061e+02    2.5743200684e+02
    1.3049862671e+02    2.5770199585e+02
    1.3059872437e+02    2.5797198486e+02
    1.3069868469e+02    2.5823999023e+02
    1.3079864502e+02    2.5850601196e+02
    1.3089874268e+02    2.5877301025e+02
    1.3099867249e+02    2.5903802490e+02
    1.3109870911e+02    2.5930297852e+02
    1.3119865417e+02    2.5956600952e+02
    1.3129862976e+02    2.5982897949e+02
    1.3139872742e+02    2.6009197998e+02
    1.3149865723e+02    2.6035302734e+02
    1.3159881592e+02    2.6061401367e+02
    1.3169877625e+02    2.6087298584e+02
    1.3179869080e+02    2.6113299561e+02
    1.3189869690e+02    2.6139099121e+02
    1.3199884033e+02    2.6164898682e+02
    1.3209869385e+02    2.6190499878e+02
    1.3219866943e+02    2.6216101074e+02
    1.3229870605e+02    2.6241699219e+02
    1.3239877319e+02    2.6267102051e+02
    1.3249870300e+02    2.6292498779e+02
    1.3259886169e+02    2.6317800903e+02
    1.3269877625e+02    2.6342999268e+02
    1.3279888916e+02    2.6368200684e+02
    1.3289877319e+02    2.6393298340e+02
    1.3299880981e+02    2.6418298340e+02
    1.3309873962e+02    2.6443200684e+02
    1.3319883728e+02    2.6468200684e+02
    1.3329873657e+02    2.6492999268e+02
    1.3339884949e+02    2.6517800903e+02
    1.3349890137e+02    2.6542498779e+02
    1.3359892273e+02    2.6567098999e+02
    1.3369883728e+02    2.6591601562e+02
    1.3379876709e+02    2.6616101074e+02
    1.3389894104e+02    2.6640499878e+02
    1.3399890137e+02    2.6664898682e+02
    1.3409895325e+02    2.6689099121e+02
    1.3419897461e+02    2.6713299561e+02
    1.3429893494e+02    2.6737600708e+02
    1.3439895630e+02    2.6761599731e+02
    1.3449882507e+02    2.6785601807e+02
    1.3459883118e+02    2.6809600830e+02
    1.3469898987e+02    2.6833502197e+02
    1.3479901123e+02    2.6857202148e+02
    1.3489898682e+02    2.6880999756e+02
    1.3499893188e+02    2.6904699707e+02
    1.3509899902e+02    2.6928298950e+02
    1.3519885254e+02    2.6951898193e+02
    1.3529899597e+02    2.6975402832e+02
    1.3539895630e+02    2.6998797607e+02
    1.3549903870e+02    2.7022198486e+02
    1.3559906006e+02    2.7045397949e+02
    1.3569892883e+02    2.7068600464e+02
    1.3579901123e+02    2.7091796875e+02
    1.3589900208e+02    2.7114898682e+02
    1.3599908447e+02    2.7138000488e+02
    1.3609892273e+02    2.7160900879e+02
    1.3619903564e+02    2.7183898926e+02
    1.3629895020e+02    2.7206597900e+02
    1.3639907837e+02    2.7229501343e+02
    1.3649902344e+02    2.7252301025e+02
    1.3659904480e+02    2.7275000000e+02
    1.3669900513e+02    2.7297601318e+02
    1.3679905701e+02    2.7320202637e+02
    1.3689906311e+02    2.7342797852e+02
    1.3699899292e+02    2.7365298462e+02
    1.3709907532e+02    2.7387600708e+02
    1.3719898987e+02    2.7409899902e+02
    1.3729904175e+02    2.7432199097e+02
    1.3739909363e+02    2.7454302979e+02
    1.3749917603e+02    2.7476400757e+02
    1.3759913635e+02    2.7498303223e+02
    1.3769911194e+02    2.7520199585e+02
    1.3779913330e+02    2.7542102051e+02
    1.3789909363e+02    2.7563897705e+02
    1.3799917603e+02    2.7585498047e+02
    1.3809916687e+02    2.7607098389e+02
    1.3819909668e+02    2.7628500366e+02
    1.3829910278e+02    2.7650000000e+02
    1.3839909363e+02    2.7671301270e+02
    1.3849923706e+02    2.7692599487e+02
    1.3859909058e+02    2.7713800049e+02
    1.3869908142e+02    2.7734899902e+02
    1.3879922485e+02    2.7755902100e+02
    1.3889916992e+02    2.7776901245e+02
    1.3899926758e+02    2.7797802734e+02
    1.3909913635e+02    2.7818499756e+02
    1.3919914246e+02    2.7839199829e+02
    1.3929924011e+02    2.7859802246e+02
    1.3939913940e+02    2.7880300903e+02
    1.3949916077e+02    2.7900799561e+02
    1.3959915161e+02    2.7921099854e+02
    1.3969920349e+02    2.7941400146e+02
    1.3979914856e+02    2.7961599731e+02
    1.3989924622e+02    2.7981799316e+02
    1.3999929810e+02    2.8001696777e+02
    1.4009918213e+02    2.8021697998e+02
    1.4019918823e+02    2.8041500854e+02
    1.4029931641e+02    2.8061297607e+02
    1.4039929199e+02    2.8080899048e+02
    1.4049920654e+02    2.8100500488e+02
    1.4059930420e+02    2.8120098877e+02
    1.4069924927e+02    2.8139501953e+02
    1.4079920959e+02    2.8158801270e+02
    1.4089924622e+02    2.8178100586e+02
    1.4099935913e+02    2.8197302246e+02
    1.4109933472e+02    2.8216299438e+02
    1.4119935608e+02    2.8235299683e+02
    1.4129934692e+02    2.8254299927e+02
    1.4139926147e+02    2.8273101807e+02
    1.4149926758e+02    2.8291900635e+02
    1.4159938049e+02    2.8310501099e+02
    1.4169943237e+02    2.8329101562e+02
    1.4179934692e+02    2.8347598267e+02
    1.4189941406e+02    2.8366000366e+02
    1.4199931335e+02    2.8384298706e+02
    1.4209942627e+02    2.8402600098e+02
    1.4219943237e+02    2.8420800781e+02
    1.4229934692e+02    2.8438800049e+02
    1.4239939880e+02    2.8456799316e+02
    1.4249934387e+02    2.8474597168e+02
    1.4259938049e+02    2.8492401123e+02
    1.4269940186e+02    2.8510198975e+02
    1.4279948425e+02    2.8527899170e+02
    1.4289944458e+02    2.8545401001e+02
    1.4299946594e+02    2.8562799072e+02
    1.4309950256e+02    2.8580200195e+02
    1.4319938660e+02    2.8597503662e+02
    1.4329937744e+02    2.8614697266e+02
    1.4339939880e+02    2.8631802368e+02
    1.4349942017e+02    2.8648901367e+02
    1.4359954834e+02    2.8665802002e+02
    1.4369940186e+02    2.8682699585e+02
    1.4379951477e+02    2.8699499512e+02
    1.4389950562e+02    2.8716302490e+02
    1.4399957275e+02    2.8732897949e+02
    1.4409950256e+02    2.8749401855e+02
    1.4419960022e+02    2.8765802002e+02
    1.4429951477e+02    2.8782202148e+02
    1.4439947510e+02    2.8798498535e+02
    1.4449949646e+02    2.8814697266e+02
    1.4459956360e+02    2.8830798340e+02
    1.4469958496e+02    2.8846902466e+02
    1.4479957581e+02    2.8862902832e+02
    1.4489961243e+02    2.8878698730e+02
    1.4499952698e+02    2.8894500732e+02
    1.4509956360e+02    2.8910198975e+02
    1.4519961548e+02    2.8925799561e+02
    1.4529957581e+02    2.8941400146e+02
    1.4539952087e+02    2.8956900024e+02
    1.4549949646e+02    2.8972302246e+02
    1.4559967041e+02    2.8987600708e+02
    1.4569952393e+02    2.9002899170e+02
    1.4579960632e+02    2.9018103027e+02
    1.4589956665e+02    2.9033197021e+02
    1.4599961853e+02    2.9048202515e+02
    1.4609956360e+02    2.9063198853e+02
    1.4619961548e+02    2.9077999878e+02
    1.4629963684e+02    2.9092901611e+02
    1.4639955139e+02    2.9107498169e+02
    1.4649958801e+02    2.9122100830e+02
    1.4659968567e+02    2.9136700439e+02
    1.4669967651e+02    2.9151199341e+02
    1.4679960632e+02    2.9165502930e+02
    1.4689964294e+02    2.9179797363e+02
    1.4699961853e+02    2.9194000244e+02
    1.4709973145e+02    2.9208099365e+02
    1.4719960022e+02    2.9222100830e+02
    1.4729972839e+02    2.9236196899e+02
    1.4739967346e+02    2.9249996948e+02
    1.4749961853e+02    2.9263900757e+02
    1.4759976196e+02    2.9277597046e+02
    1.4769970703e+02    2.9291198730e+02
    1.4779972839e+02    2.9304797363e+02
    1.4789976501e+02    2.9318197632e+02
    1.4799981689e+02    2.9331698608e+02
    1.4809980774e+02    2.9344900513e+02
    1.4819975281e+02    2.9358203125e+02
    1.4829966736e+02    2.9371398926e+02
    1.4839968872e+02    2.9384396362e+02
    1.4849969482e+02    2.9397396851e+02
    1.4859971619e+02    2.9410403442e+02
    1.4869979858e+02    2.9423196411e+02
    1.4879983521e+02    2.9435900879e+02
    1.4889974976e+02    2.9448596191e+02
    1.4899981689e+02    2.9461199951e+02
    1.4909974670e+02    2.9473696899e+02
    1.4919981384e+02    2.9486199951e+02
    1.4929977417e+02    2.9498501587e+02
    1.4939985657e+02    2.9510797119e+02
    1.4949981689e+02    2.9523101807e+02
    1.4959985352e+02    2.9535202026e+02
    1.4969985962e+02    2.9547201538e+02
    1.4979988098e+02    2.9559197998e+02
    1.4989988708e+02    2.9570999146e+02
    1.4999978638e+02    2.9582797241e+02
    1.5009979248e+02    2.9594598389e+02
    1.5019979858e+02    2.9606201172e+02
    1.5029986572e+02    2.9617800903e+02
    1.5039991760e+02    2.9629202271e+02
    1.5049992371e+02    2.9640698242e+02
    1.5059985352e+02    2.9651998901e+02
    1.5069996643e+02    2.9663201904e+02
    1.5079981995e+02    2.9674301147e+02
    1.5089988708e+02    2.9685397339e+02
    1.5099990845e+02    2.9696401978e+02
    1.5109997559e+02    2.9707400513e+02
    1.5119999695e+02    2.9718197632e+02
    1.5129991150e+02    2.9728799438e+02
    1.5139996338e+02    2.9739495850e+02
    1.5150001526e+02    2.9750097656e+02
    1.5160003662e+02    2.9760598755e+02
    1.5170001221e+02    2.9770901489e+02
    1.5180000305e+02    2.9781198120e+02
    1.5189988708e+02    2.9791403198e+02
    1.5200003052e+02    2.9801602173e+02
    1.5210006714e+02    2.9811602783e+02
    1.5219993591e+02    2.9821499634e+02
    1.5229998779e+02    2.9831402588e+02
    1.5240005493e+02    2.9841101074e+02
    1.5249998474e+02    2.9850903320e+02
    1.5260003662e+02    2.9860397339e+02
    1.5270007324e+02    2.9870001221e+02
    1.5280009460e+02    2.9879400635e+02
    1.5289996338e+02    2.9888699341e+02
    1.5300001526e+02    2.9898001099e+02
    1.5310000610e+02    2.9907199097e+02
    1.5320004272e+02    2.9916101074e+02
    1.5330014038e+02    2.9925198364e+02
    1.5340002441e+02    2.9934100342e+02
    1.5350001526e+02    2.9942800903e+02
    1.5360006714e+02    2.9951498413e+02
    1.5370010376e+02    2.9960101318e+02
    1.5380014038e+02    2.9968600464e+02
    1.5390017700e+02    2.9977099609e+02
    1.5400004578e+02    2.9985498047e+02
    1.5410006714e+02    2.9993798828e+02
    1.5420019531e+02    3.0002001953e+02
    1.5430012512e+02    3.0009997559e+02
    1.5440011597e+02    3.0018002319e+02
    1.5450021362e+02    3.0025897217e+02
    1.5460021973e+02    3.0033703613e+02
    1.5470011902e+02    3.0041500854e+02
    1.5480015564e+02    3.0049096680e+02
    1.5490019226e+02    3.0056802368e+02
    1.5500024414e+02    3.0064300537e+02
    1.5510015869e+02    3.0071600342e+02
    1.5520024109e+02    3.0079000854e+02
    1.5530026245e+02    3.0086300659e+02
    1.5540020752e+02    3.0093298340e+02
    1.5550021362e+02    3.0100500488e+02
    1.5560014343e+02    3.0107403564e+02
    1.5570027161e+02    3.0114297485e+02
    1.5580017090e+02    3.0121096802e+02
    1.5590017700e+02    3.0127801514e+02
    1.5600016785e+02    3.0134500122e+02
    1.5610026550e+02    3.0141000366e+02
    1.5620031738e+02    3.0147500610e+02
    1.5630029297e+02    3.0153799438e+02
    1.5640028381e+02    3.0160101318e+02
    1.5650030518e+02    3.0166198730e+02
    1.5660034180e+02    3.0172302246e+02
    1.5670028687e+02    3.0178298950e+02
    1.5680027771e+02    3.0184100342e+02
    1.5690029907e+02    3.0189797974e+02
    1.5700032043e+02    3.0195602417e+02
    1.5710023499e+02    3.0201000977e+02
    1.5720025635e+02    3.0206500244e+02
    1.5730026245e+02    3.0211898804e+02
    1.5740029907e+02    3.0217199707e+02
    1.5750035095e+02    3.0222399902e+02
    1.5760026550e+02    3.0227401733e+02
    1.5770030212e+02    3.0232403564e+02
    1.5780029297e+02    3.0237298584e+02
    1.5790034485e+02    3.0242102051e+02
    1.5800030518e+02    3.0246697998e+02
    1.5810037231e+02    3.0251199341e+02
    1.5820031738e+02    3.0255603027e+02
    1.5830036926e+02    3.0260000610e+02
    1.5840034485e+02    3.0264199829e+02
    1.5850036621e+02    3.0268301392e+02
    1.5860043335e+02    3.0272302246e+02
    1.5870034790e+02    3.0276101685e+02
    1.5880039978e+02    3.0279998779e+02
    1.5890046692e+02    3.0283596802e+02
    1.5900047302e+02    3.0287200928e+02
    1.5910038757e+02    3.0290597534e+02
    1.5920039368e+02    3.0293899536e+02
    1.5930041504e+02    3.0297097778e+02
    1.5940040588e+02    3.0300198364e+02
    1.5950047302e+02    3.0303198242e+02
    1.5960047913e+02    3.0305996704e+02
    1.5970039368e+02    3.0308898926e+02
    1.5980044556e+02    3.0311502075e+02
    1.5990051270e+02    3.0313998413e+02
    1.6000042725e+02    3.0316497803e+02
    1.6010041809e+02    3.0318801880e+02
    1.6020043945e+02    3.0320999146e+02
    1.6030053711e+02    3.0322900391e+02
    1.6040051270e+02    3.0324801636e+02
    1.6050056458e+02    3.0326599121e+02
    1.6060055542e+02    3.0328298950e+02
    1.6070060730e+02    3.0329901123e+02
    1.6080056763e+02    3.0331301880e+02
    1.6090060425e+02    3.0332598877e+02
    1.6100059509e+02    3.0333801270e+02
    1.6110061646e+02    3.0334902954e+02
    1.6120048523e+02    3.0335803223e+02
    1.6130058289e+02    3.0336602783e+02
    1.6140060425e+02    3.0337200928e+02
    1.6150050354e+02    3.0337802124e+02
    1.6160058594e+02    3.0338195801e+02
    1.6170060730e+02    3.0338497925e+02
    1.6180061340e+02    3.0338702393e+02
    1.6190057373e+02    3.0338598633e+02
    1.6200064087e+02    3.0338598633e+02
    1.6210061646e+02    3.0338400269e+02
    1.6220066833e+02    3.0338000488e+02
    1.6230056763e+02    3.0337496948e+02
    1.6240066528e+02    3.0336798096e+02
    1.6250071716e+02    3.0336102295e+02
    1.6260072327e+02    3.0335195923e+02
    1.6270063782e+02    3.0334197998e+02
    1.6280068970e+02    3.0332998657e+02
    1.6290061951e+02    3.0331698608e+02
    1.6300064087e+02    3.0330200195e+02
    1.6310067749e+02    3.0328604126e+02
    1.6320068359e+02    3.0326797485e+02
    1.6330064392e+02    3.0324899292e+02
    1.6340075684e+02    3.0322900391e+02
    1.6350065613e+02    3.0320599365e+02
    1.6360078430e+02    3.0318301392e+02
    1.6370071411e+02    3.0315603638e+02
    1.6380073547e+02    3.0313000488e+02
    1.6390075684e+02    3.0310000610e+02
    1.6400073242e+02    3.0306997681e+02
    1.6410069275e+02    3.0303802490e+02
    1.6420065308e+02    3.0300399780e+02
    1.6430076599e+02    3.0296902466e+02
    1.6440069580e+02    3.0293099976e+02
    1.6450068665e+02    3.0289300537e+02
    1.6460078430e+02    3.0285198975e+02
    1.6470080566e+02    3.0280999756e+02
    1.6480072021e+02    3.0276699829e+02
    1.6490084839e+02    3.0272097778e+02
    1.6500073242e+02    3.0267498779e+02
    1.6510086060e+02    3.0262597656e+02
    1.6520077515e+02    3.0257598877e+02
    1.6530085754e+02    3.0252496338e+02
    1.6540072632e+02    3.0247204590e+02
    1.6550086975e+02    3.0241601562e+02
    1.6560084534e+02    3.0236004639e+02
    1.6570079041e+02    3.0230200195e+02
    1.6580076599e+02    3.0224200439e+02
    1.6590086365e+02    3.0217999268e+02
    1.6600091553e+02    3.0211694336e+02
    1.6610084534e+02    3.0205200195e+02
    1.6620088196e+02    3.0198602295e+02
    1.6630093384e+02    3.0191802979e+02
    1.6640081787e+02    3.0184796143e+02
    1.6650094604e+02    3.0177600098e+02
    1.6660084534e+02    3.0170300293e+02
    1.6670088196e+02    3.0162799072e+02
    1.6680093384e+02    3.0155200195e+02
    1.6690093994e+02    3.0147296143e+02
    1.6700094604e+02    3.0139300537e+02
    1.6710093689e+02    3.0131103516e+02
    1.6720097351e+02    3.0122705078e+02
    1.6730085754e+02    3.0114196777e+02
    1.6740097046e+02    3.0105499268e+02
    1.6750088501e+02    3.0096594238e+02
    1.6760098267e+02    3.0087500000e+02
    1.6770094299e+02    3.0078302002e+02
    1.6780087280e+02    3.0068798828e+02
    1.6790098572e+02    3.0059301758e+02
    1.6800097656e+02    3.0049499512e+02
    1.6810095215e+02    3.0039501953e+02
    1.6820094299e+02    3.0029400635e+02
    1.6830097961e+02    3.0019201660e+02
    1.6840095520e+02    3.0008605957e+02
    1.6850097656e+02    2.9997900391e+02
    1.6860101318e+02    2.9987103271e+02
    1.6870094299e+02    2.9976000977e+02
    1.6880108643e+02    2.9964801025e+02
    1.6890109253e+02    2.9953399658e+02
    1.6900096130e+02    2.9941796875e+02
    1.6910107422e+02    2.9929998779e+02
    1.6920103455e+02    2.9918096924e+02
    1.6930110168e+02    2.9905902100e+02
    1.6940110779e+02    2.9893499756e+02
    1.6950111389e+02    2.9880999756e+02
    1.6960107422e+02    2.9868194580e+02
    1.6970103455e+02    2.9855303955e+02
    1.6980105591e+02    2.9842303467e+02
    1.6990103149e+02    2.9829003906e+02
    1.7000102234e+02    2.9815502930e+02
    1.7010107422e+02    2.9801800537e+02
    1.7020112610e+02    2.9788000488e+02
    1.7030110168e+02    2.9773895264e+02
    1.7040112305e+02    2.9759698486e+02
    1.7050115967e+02    2.9745202637e+02
    1.7060108948e+02    2.9730596924e+02
    1.7070109558e+02    2.9715899658e+02
    1.7080107117e+02    2.9700799561e+02
    1.7090121460e+02    2.9685699463e+02
    1.7100117493e+02    2.9670300293e+02
    1.7110116577e+02    2.9654699707e+02
    1.7120123291e+02    2.9638800049e+02
    1.7130120850e+02    2.9622900391e+02
    1.7140124512e+02    2.9606799316e+02
    1.7150123596e+02    2.9590399170e+02
    1.7160124207e+02    2.9573895264e+02
    1.7170123291e+02    2.9557202148e+02
    1.7180114746e+02    2.9540301514e+02
    1.7190116882e+02    2.9523199463e+02
    1.7200123596e+02    2.9505798340e+02
    1.7210116577e+02    2.9488397217e+02
    1.7220118713e+02    2.9470703125e+02
    1.7230126953e+02    2.9452801514e+02
    1.7240124512e+02    2.9434698486e+02
    1.7250129700e+02    2.9416503906e+02
    1.7260125732e+02    2.9397998047e+02
    1.7270129395e+02    2.9379400635e+02
    1.7280128479e+02    2.9360504150e+02
    1.7290127563e+02    2.9341400146e+02
    1.7300122070e+02    2.9322100830e+02
    1.7310133362e+02    2.9302502441e+02
    1.7320135498e+02    2.9282897949e+02
    1.7330134583e+02    2.9262799072e+02
    1.7340127563e+02    2.9242700195e+02
    1.7350137329e+02    2.9222302246e+02
    1.7360136414e+02    2.9201800537e+02
    1.7370129395e+02    2.9180999756e+02
    1.7380128479e+02    2.9160003662e+02
    1.7390139771e+02    2.9138800049e+02
    1.7400128174e+02    2.9117504883e+02
    1.7410134888e+02    2.9095898438e+02
    1.7420130920e+02    2.9073999023e+02
    1.7430128479e+02    2.9052105713e+02
    1.7440138245e+02    2.9029901123e+02
    1.7450135803e+02    2.9007598877e+02
    1.7460134888e+02    2.8985003662e+02
    1.7470138550e+02    2.8962200928e+02
    1.7480143738e+02    2.8939300537e+02
    1.7490138245e+02    2.8916101074e+02
    1.7500141907e+02    2.8892700195e+02
    1.7510142517e+02    2.8869201660e+02
    1.7520137024e+02    2.8845501709e+02
    1.7530148315e+02    2.8821398926e+02
    1.7540135193e+02    2.8797302246e+02
    1.7550140381e+02    2.8772900391e+02
    1.7560147095e+02    2.8748297119e+02
    1.7570135498e+02    2.8723504639e+02
    1.7580136108e+02    2.8698400879e+02
    1.7590138245e+02    2.8673199463e+02
    1.7600152588e+02    2.8647698975e+02
    1.7610153198e+02    2.8621997070e+02
    1.7620146179e+02    2.8596203613e+02
    1.7630140686e+02    2.8570098877e+02
    1.7640148926e+02    2.8543701172e+02
    1.7650143433e+02    2.8517297363e+02
    1.7660147095e+02    2.8490594482e+02
    1.7670147705e+02    2.8463598633e+02
    1.7680155945e+02    2.8436401367e+02
    1.7690148926e+02    2.8409197998e+02
    1.7700149536e+02    2.8381597900e+02
    1.7710159302e+02    2.8353601074e+02
    1.7720152283e+02    2.8325598145e+02
    1.7730160522e+02    2.8297100830e+02
    1.7740150452e+02    2.8268695068e+02
    1.7750161743e+02    2.8240698242e+02
    1.7760157776e+02    2.8211602783e+02
    1.7770162964e+02    2.8183203125e+02
    1.7780160522e+02    2.8153601074e+02
    1.7790153503e+02    2.8123901367e+02
    1.7800163269e+02    2.8094500732e+02
    1.7810156250e+02    2.8064306641e+02
    1.7820153809e+02    2.8034698486e+02
    1.7830152893e+02    2.8003796387e+02
    1.7840165710e+02    2.7973400879e+02
    1.7850155640e+02    2.7943206787e+02
    1.7860165405e+02    2.7911395264e+02
    1.7870170593e+02    2.7880401611e+02
    1.7880157471e+02    2.7849603271e+02
    1.7890155029e+02    2.7818206787e+02
    1.7900166321e+02    2.7786395264e+02
    1.7910171509e+02    2.7754498291e+02
    1.7920169067e+02    2.7722406006e+02
    1.7930169678e+02    2.7689996338e+02
    1.7940164185e+02    2.7657501221e+02
    1.7950173950e+02    2.7624499512e+02
    1.7960174561e+02    2.7591406250e+02
    1.7970166016e+02    2.7558294678e+02
    1.7980166626e+02    2.7524700928e+02
    1.7990173340e+02    2.7491705322e+02
    1.8000167847e+02    2.7457794189e+02
    1.8010165405e+02    2.7423498535e+02
    1.8020179749e+02    2.7389703369e+02
    1.8030180359e+02    2.7354895020e+02
    1.8040167236e+02    2.7321197510e+02
    1.8050173950e+02    2.7285803223e+02
    1.8060180664e+02    2.7251196289e+02
    1.8070181274e+02    2.7216400146e+02
    1.8080181885e+02    2.7180505371e+02
    1.8090179443e+02    2.7145294189e+02
    1.8100169373e+02    2.7109100342e+02
    1.8110183716e+02    2.7074200439e+02
    1.8120170593e+02    2.7037597656e+02
    1.8130178833e+02    2.7001300049e+02
    1.8140185547e+02    2.6964801025e+02
    1.8150181580e+02    2.6928295898e+02
    1.8160174561e+02    2.6891601562e+02
    1.8170173645e+02    2.6854504395e+02
    1.8180175781e+02    2.6817193604e+02
    1.8190179443e+02    2.6779602051e+02
    1.8200181580e+02    2.6741802979e+02
    1.8210180664e+02    2.6704797363e+02
    1.8220185852e+02    2.6666400146e+02
    1.8230181885e+02    2.6627996826e+02
    1.8240179443e+02    2.6590301514e+02
    1.8250181580e+02    2.6551306152e+02
    1.8260177612e+02    2.6512194824e+02
    1.8270193481e+02    2.6473400879e+02
    1.8280186462e+02    2.6434893799e+02
    1.8290194702e+02    2.6394897461e+02
    1.8300186157e+02    2.6355908203e+02
    1.8310180664e+02    2.6316699219e+02
    1.8320195007e+02    2.6275805664e+02
    1.8330195618e+02    2.6235998535e+02
    1.8340196228e+02    2.6196002197e+02
    1.8350192261e+02    2.6155792236e+02
    1.8360191345e+02    2.6115399170e+02
    1.8370185852e+02    2.6074804688e+02
    1.8380186462e+02    2.6033898926e+02
    1.8390188599e+02    2.5992803955e+02
    1.8400198364e+02    2.5951300049e+02
    1.8410195923e+02    2.5909802246e+02
    1.8420187378e+02    2.5868194580e+02
    1.8430198669e+02    2.5827001953e+02
    1.8440191650e+02    2.5784997559e+02
    1.8450204468e+02    2.5742303467e+02
    1.8460191345e+02    2.5700897217e+02
    1.8470198059e+02    2.5657897949e+02
    1.8480195618e+02    2.5615893555e+02
    1.8490205383e+02    2.5572399902e+02
    1.8500196838e+02    2.5530004883e+02
    1.8510206604e+02    2.5486096191e+02
    1.8520199585e+02    2.5443304443e+02
    1.8530206299e+02    2.5400000000e+02
    1.8540202332e+02    2.5356707764e+02
    1.8550201416e+02    2.5312097168e+02
    1.8560200500e+02    2.5268304443e+02
    1.8570211792e+02    2.5223999023e+02
    1.8580200195e+02    2.5180108643e+02
    1.8590200806e+02    2.5135601807e+02
    1.8600210571e+02    2.5091693115e+02
    1.8610209656e+02    2.5046899414e+02
    1.8620214844e+02    2.5001696777e+02
    1.8630200195e+02    2.4956701660e+02
    1.8640199280e+02    2.4911193848e+02
    1.8650218201e+02    2.4866101074e+02
    1.8660211182e+02    2.4820300293e+02
    1.8670208740e+02    2.4774304199e+02
    1.8680216980e+02    2.4728698730e+02
    1.8690211487e+02    2.4682305908e+02
    1.8700215149e+02    2.4636499023e+02
    1.8710209656e+02    2.4590698242e+02
    1.8720213318e+02    2.4543402100e+02
    1.8730209351e+02    2.4497198486e+02
    1.8740214539e+02    2.4450506592e+02
    1.8750213623e+02    2.4403802490e+02
    1.8760212708e+02    2.4356793213e+02
    1.8770217896e+02    2.4309600830e+02
    1.8780224609e+02    2.4262194824e+02
    1.8790214539e+02    2.4214904785e+02
    1.8800224304e+02    2.4167102051e+02
    1.8810215759e+02    2.4119396973e+02
    1.8820222473e+02    2.4071301270e+02
    1.8830224609e+02    2.4024200439e+02
    1.8840213013e+02    2.3976202393e+02
    1.8850219727e+02    2.3927697754e+02
    1.8860217285e+02    2.3884399414e+02
    1.8870220947e+02    2.3853802490e+02
    1.8880227661e+02    2.3842401123e+02
    1.8890229797e+02    2.3843395996e+02
    1.8900224304e+02    2.3849505615e+02
    1.8910227966e+02    2.3855499268e+02
    1.8920230103e+02    2.3860192871e+02
    1.8930223083e+02    2.3865802002e+02
    1.8940232849e+02    2.3870996094e+02
    1.8950233459e+02    2.3876092529e+02
    1.8960234070e+02    2.3880902100e+02
    1.8970228577e+02    2.3885699463e+02
    1.8980226135e+02    2.3890197754e+02
    1.8990228271e+02    2.3894403076e+02
    1.9000236511e+02    2.3898297119e+02
    1.9010238647e+02    2.3902093506e+02
    1.9020228577e+02    2.3906805420e+02
    1.9030224609e+02    2.3910302734e+02
    1.9040229797e+02    2.3913397217e+02
    1.9050227356e+02    2.3916406250e+02
    1.9060237122e+02    2.3920001221e+02
    1.9070231628e+02    2.3922601318e+02
    1.9080239868e+02    2.3925793457e+02
    1.9090240479e+02    2.3929003906e+02
    1.9100230408e+02    2.3930999756e+02
    1.9110229492e+02    2.3933996582e+02
    1.9120236206e+02    2.3935998535e+02
    1.9130241394e+02    2.3938006592e+02
    1.9140231323e+02    2.3939001465e+02
    1.9150231934e+02    2.3940997314e+02
    1.9160246277e+02    2.3942993164e+02
    1.9170243835e+02    2.3944006348e+02
    1.9180247498e+02    2.3945001221e+02
    1.9190240479e+02    2.3945996094e+02
    1.9200241089e+02    2.3947998047e+02
    1.9210243225e+02    2.3949005127e+02
    1.9220236206e+02    2.3949005127e+02
    1.9230241394e+02    2.3950000000e+02
    1.9240243530e+02    2.3951000977e+02
    1.9250239563e+02    2.3951000977e+02
    1.9260250854e+02    2.3951000977e+02
    1.9270251465e+02    2.3950000000e+02
    1.9280255127e+02    2.3951000977e+02
    1.9290252686e+02    2.3950000000e+02
    1.9300244141e+02    2.3950000000e+02
    1.9310252380e+02    2.3950000000e+02
    1.9320242310e+02    2.3947998047e+02
    1.9330241394e+02    2.3947998047e+02
    1.9340249634e+02    2.3946997070e+02
    1.9350253296e+02    2.3945996094e+02
    1.9360252380e+02    2.3944995117e+02
    1.9370257568e+02    2.3943005371e+02
    1.9380247498e+02    2.3941003418e+02
    1.9390254211e+02    2.3939001465e+02
    1.9400256348e+02    2.3936999512e+02
    1.9410253906e+02    2.3934997559e+02
    1.9420251465e+02    2.3932995605e+02
    1.9430262756e+02    2.3930004883e+02
    1.9440254211e+02    2.3927001953e+02
    1.9450253296e+02    2.3923999023e+02
    1.9460255432e+02    2.3921997070e+02
    1.9470260620e+02    2.3918994141e+02
    1.9480249023e+02    2.3915002441e+02
    1.9490252686e+02    2.3913000488e+02
    1.9500253296e+02    2.3908996582e+02
    1.9510269165e+02    2.3905004883e+02
    1.9520266724e+02    2.3901000977e+02
    1.9530255127e+02    2.3897998047e+02
    1.9540261841e+02    2.3894006348e+02
    1.9550263977e+02    2.3889001465e+02
    1.9560252380e+02    2.3885998535e+02
    1.9570260620e+02    2.3880993652e+02
    1.9580264282e+02    2.3877001953e+02
    1.9590274048e+02    2.3871997070e+02
    1.9600263977e+02    2.3866003418e+02
    1.9610273743e+02    2.3861010742e+02
    1.9620263672e+02    2.3856005859e+02
    1.9630262756e+02    2.3850000000e+02
    1.9640277100e+02    2.3845007324e+02
    1.9650268555e+02    2.3839001465e+02
    1.9660267639e+02    2.3833996582e+02
    1.9670268250e+02    2.3828002930e+02
    1.9680267334e+02    2.3820996094e+02
    1.9690272522e+02    2.3814001465e+02
    1.9700280762e+02    2.3808996582e+02
    1.9710264587e+02    2.3802001953e+02
    1.9720280457e+02    2.3794995117e+02
    1.9730274963e+02    2.3788000488e+02
    1.9740269470e+02    2.3780993652e+02
    1.9750280762e+02    2.3773999023e+02
    1.9760270691e+02    2.3765991211e+02
    1.9770280457e+02    2.3758996582e+02
    1.9780274963e+02    2.3750988770e+02
    1.9790284729e+02    2.3743005371e+02
    1.9800285339e+02    2.3735009766e+02
    1.9810284424e+02    2.3727001953e+02
    1.9820272827e+02    2.3718005371e+02
    1.9830285645e+02    2.3710009766e+02
    1.9840287781e+02    2.3701000977e+02
    1.9850286865e+02    2.3692004395e+02
    1.9860273743e+02    2.3684008789e+02
    1.9870274353e+02    2.3675000000e+02
    1.9880279541e+02    2.3665002441e+02
    1.9890289307e+02    2.3656005859e+02
    1.9900289917e+02    2.3647009277e+02
    1.9910293579e+02    2.3636999512e+02
    1.9920286560e+02    2.3627001953e+02
    1.9930294800e+02    2.3616003418e+02
    1.9940289307e+02    2.3606005859e+02
    1.9950279236e+02    2.3595996094e+02
    1.9960281372e+02    2.3584997559e+02
    1.9970286560e+02    2.3573999023e+02
    1.9980285645e+02    2.3563989258e+02
    1.9990289307e+02    2.3551989746e+02
endcurve
