Curveplot
LS-DYNA keyword deck by LS-PrePost
Abscissa
Ordinate
XY data
NBDLHeadzCoo-1 #pts=2000
* Minval=    -6.5761100769e+01 at time=       188.6021728516
* Maxval=     1.5358110046e+02 at time=         0.0000000000
    0.0000000000e+00    1.5358110046e+02
    9.9978484213e-02    1.5358110046e+02
    1.9995696843e-01    1.5358110046e+02
    2.9993546009e-01    1.5358110046e+02
    3.9991393685e-01    1.5358110046e+02
    4.9989241362e-01    1.5358110046e+02
    5.9987092018e-01    1.5358110046e+02
    6.9984936714e-01    1.5358110046e+02
    7.9982787371e-01    1.5358110046e+02
    8.9998811483e-01    1.5358110046e+02
    9.9996662140e-01    1.5358110046e+02
    1.0998470783e+00    1.5358110046e+02
    1.1999276876e+00    1.5358110046e+02
    1.2998653650e+00    1.5358110046e+02
    1.3999714851e+00    1.5358110046e+02
    1.4999939203e+00    1.5358110046e+02
    1.5999723673e+00    1.5358110046e+02
    1.6999509335e+00    1.5358110046e+02
    1.7999293804e+00    1.5358110046e+02
    1.8999865055e+00    1.5358110046e+02
    1.9998966455e+00    1.5358110046e+02
    2.0999231339e+00    1.5358110046e+02
    2.1999855042e+00    1.5358110046e+02
    2.2998526096e+00    1.5358110046e+02
    2.3998310566e+00    1.5358110046e+02
    2.4999914169e+00    1.5358110046e+02
    2.5999698639e+00    1.5358110046e+02
    2.6999483109e+00    1.5358110046e+02
    2.7999267578e+00    1.5358110046e+02
    2.8999052048e+00    1.5358110046e+02
    2.9998836517e+00    1.5358110046e+02
    3.0998620987e+00    1.5358110046e+02
    3.1998407841e+00    1.5358110046e+02
    3.2999122143e+00    1.5358110046e+02
    3.3998906612e+00    1.5358110046e+02
    3.4998784065e+00    1.5358110046e+02
    3.5999190807e+00    1.5358110046e+02
    3.6998751163e+00    1.5358110046e+02
    3.7999842167e+00    1.5358110046e+02
    3.8999629021e+00    1.5358110046e+02
    3.9999413490e+00    1.5358110046e+02
    4.0999197960e+00    1.5358110046e+02
    4.1998982430e+00    1.5358110046e+02
    4.2998766899e+00    1.5358110046e+02
    4.3999166489e+00    1.5358110046e+02
    4.4999246597e+00    1.5358110046e+02
    4.5999031067e+00    1.5358110046e+02
    4.6999020576e+00    1.5358110046e+02
    4.7999763489e+00    1.5358110046e+02
    4.8999571800e+00    1.5358110046e+02
    4.9999375343e+00    1.5358110046e+02
    5.0999183655e+00    1.5358110046e+02
    5.1998987198e+00    1.5358110046e+02
    5.2998795509e+00    1.5358110046e+02
    5.3998599052e+00    1.5358110046e+02
    5.4998407364e+00    1.5358110046e+02
    5.5998210907e+00    1.5358110046e+02
    5.6999945641e+00    1.5358110046e+02
    5.7999234200e+00    1.5358110046e+02
    5.8999018669e+00    1.5358110046e+02
    5.9998803139e+00    1.5358110046e+02
    6.0998592377e+00    1.5358110046e+02
    6.1998381615e+00    1.5358110046e+02
    6.2998170853e+00    1.5358110046e+02
    6.3999781609e+00    1.5358110046e+02
    6.4999575615e+00    1.5358110046e+02
    6.5999364853e+00    1.5358110046e+02
    6.6999158859e+00    1.5358110046e+02
    6.7999749184e+00    1.5358110046e+02
    6.8999562263e+00    1.5358110046e+02
    6.9999375343e+00    1.5358110046e+02
    7.0998644829e+00    1.5358110046e+02
    7.1998457909e+00    1.5358110046e+02
    7.2999219894e+00    1.5358110046e+02
    7.3998613358e+00    1.5358110046e+02
    7.4998426437e+00    1.5358110046e+02
    7.5998239517e+00    1.5358110046e+02
    7.6998043060e+00    1.5358110046e+02
    7.7999777794e+00    1.5358110046e+02
    7.8999586105e+00    1.5358110046e+02
    7.9999542236e+00    1.5358110046e+02
    8.0999698639e+00    1.5358110046e+02
    8.1998519897e+00    1.5358110046e+02
    8.2999811172e+00    1.5358110046e+02
    8.3999681473e+00    1.5358110046e+02
    8.4998235703e+00    1.5358110046e+02
    8.5999593735e+00    1.5358110046e+02
    8.6998682022e+00    1.5358110046e+02
    8.7999353409e+00    1.5358110046e+02
    8.8999137878e+00    1.5358110046e+02
    8.9999847412e+00    1.5358110046e+02
    9.0999631882e+00    1.5358110046e+02
    9.1999425888e+00    1.5358110046e+02
    9.2999219894e+00    1.5358110046e+02
    9.3999013901e+00    1.5358110046e+02
    9.4998798370e+00    1.5358110046e+02
    9.5998191833e+00    1.5358110046e+02
    9.6998233795e+00    1.5358110046e+02
    9.7999553680e+00    1.5358110046e+02
    9.8999843597e+00    1.5358110046e+02
    9.9999647141e+00    1.5358110046e+02
    1.0099827766e+01    1.5358110046e+02
    1.0199905396e+01    1.5358110046e+02
    1.0299841881e+01    1.5358110046e+02
    1.0399955750e+01    1.5358110046e+02
    1.0499891281e+01    1.5358110046e+02
    1.0599830627e+01    1.5358110046e+02
    1.0699885368e+01    1.5358110046e+02
    1.0799842834e+01    1.5358110046e+02
    1.0899869919e+01    1.5358110046e+02
    1.0999868393e+01    1.5358110046e+02
    1.1099852562e+01    1.5358110046e+02
    1.1199917793e+01    1.5358110046e+02
    1.1299908638e+01    1.5358110046e+02
    1.1399843216e+01    1.5358110046e+02
    1.1499883652e+01    1.5358110046e+02
    1.1599918365e+01    1.5358110046e+02
    1.1699867249e+01    1.5358110046e+02
    1.1799959183e+01    1.5358110046e+02
    1.1899858475e+01    1.5358110046e+02
    1.1999937057e+01    1.5358110046e+02
    1.2099918365e+01    1.5358110046e+02
    1.2199950218e+01    1.5358110046e+02
    1.2299837112e+01    1.5358110046e+02
    1.2399982452e+01    1.5358110046e+02
    1.2499898911e+01    1.5358110046e+02
    1.2599884987e+01    1.5358110046e+02
    1.2700007439e+01    1.5358110046e+02
    1.2799927711e+01    1.5358110046e+02
    1.2899987221e+01    1.5358110046e+02
    1.2999841690e+01    1.5358110046e+02
    1.3099983215e+01    1.5358110046e+02
    1.3199859619e+01    1.5358110046e+02
    1.3299861908e+01    1.5358110046e+02
    1.3399961472e+01    1.5358110046e+02
    1.3499853134e+01    1.5358110046e+02
    1.3600012779e+01    1.5358110046e+02
    1.3699961662e+01    1.5358110046e+02
    1.3799942970e+01    1.5358110046e+02
    1.3900003433e+01    1.5358110046e+02
    1.3999868393e+01    1.5358110046e+02
    1.4100000381e+01    1.5358110046e+02
    1.4199913979e+01    1.5358110046e+02
    1.4299979210e+01    1.5358110046e+02
    1.4400015831e+01    1.5358110046e+02
    1.4499876976e+01    1.5358110046e+02
    1.4599875450e+01    1.5358110046e+02
    1.4699855804e+01    1.5358110046e+02
    1.4799836159e+01    1.5358110046e+02
    1.4899973869e+01    1.5358110046e+02
    1.4999974251e+01    1.5358110046e+02
    1.5099850655e+01    1.5358110046e+02
    1.5200016975e+01    1.5358110046e+02
    1.5299935341e+01    1.5358110046e+02
    1.5399970055e+01    1.5358110046e+02
    1.5499949455e+01    1.5358110046e+02
    1.5599944115e+01    1.5358110046e+02
    1.5699892998e+01    1.5358110046e+02
    1.5799921036e+01    1.5358110046e+02
    1.5899955750e+01    1.5358110046e+02
    1.5999994278e+01    1.5358110046e+02
    1.6100019455e+01    1.5358110046e+02
    1.6199987411e+01    1.5358110046e+02
    1.6300016403e+01    1.5358110046e+02
    1.6399852753e+01    1.5358110046e+02
    1.6499933243e+01    1.5358110046e+02
    1.6600000381e+01    1.5358110046e+02
    1.6699867249e+01    1.5358110046e+02
    1.6800012589e+01    1.5358110046e+02
    1.6899913788e+01    1.5358110046e+02
    1.6999879837e+01    1.5358110046e+02
    1.7099973679e+01    1.5358110046e+02
    1.7199907303e+01    1.5358110046e+02
    1.7299987793e+01    1.5358110046e+02
    1.7399848938e+01    1.5358110046e+02
    1.7499868393e+01    1.5358110046e+02
    1.7599872589e+01    1.5358110046e+02
    1.7699853897e+01    1.5358110046e+02
    1.7800014496e+01    1.5358110046e+02
    1.7899948120e+01    1.5358110046e+02
    1.8000030518e+01    1.5358110046e+02
    1.8099979401e+01    1.5358110046e+02
    1.8199941635e+01    1.5358110046e+02
    1.8300014496e+01    1.5358110046e+02
    1.8399894714e+01    1.5358110046e+02
    1.8499895096e+01    1.5358110046e+02
    1.8599962234e+01    1.5358110046e+02
    1.8699876785e+01    1.5358110046e+02
    1.8799894333e+01    1.5358110046e+02
    1.8899995804e+01    1.5358110046e+02
    1.8999921799e+01    1.5358110046e+02
    1.9099922180e+01    1.5358110046e+02
    1.9199981689e+01    1.5358110046e+02
    1.9299959183e+01    1.5358110046e+02
    1.9399986267e+01    1.5358110046e+02
    1.9499988556e+01    1.5358110046e+02
    1.9599861145e+01    1.5358110046e+02
    1.9700000763e+01    1.5358110046e+02
    1.9799907684e+01    1.5358110046e+02
    1.9900005341e+01    1.5358110046e+02
    2.0000022888e+01    1.5358110046e+02
    2.0100015640e+01    1.5358110046e+02
    2.0200017929e+01    1.5358110046e+02
    2.0299852371e+01    1.5358110046e+02
    2.0399864197e+01    1.5358110046e+02
    2.0499935150e+01    1.5358110046e+02
    2.0599969864e+01    1.5358110046e+02
    2.0699987411e+01    1.5358110046e+02
    2.0800018311e+01    1.5358110046e+02
    2.0899913788e+01    1.5358110046e+02
    2.0999887466e+01    1.5358110046e+02
    2.1100042343e+01    1.5358110046e+02
    2.1200012207e+01    1.5358110046e+02
    2.1299978256e+01    1.5358110046e+02
    2.1399972916e+01    1.5358009338e+02
    2.1500009537e+01    1.5358009338e+02
    2.1599910736e+01    1.5358009338e+02
    2.1700023651e+01    1.5358009338e+02
    2.1799957275e+01    1.5358009338e+02
    2.1899896622e+01    1.5358009338e+02
    2.1999971390e+01    1.5358009338e+02
    2.2099929810e+01    1.5358009338e+02
    2.2199937820e+01    1.5358009338e+02
    2.2299861908e+01    1.5358009338e+02
    2.2400035858e+01    1.5358009338e+02
    2.2499893188e+01    1.5358009338e+02
    2.2599950790e+01    1.5358009338e+02
    2.2699886322e+01    1.5358009338e+02
    2.2800022125e+01    1.5358009338e+02
    2.2899906158e+01    1.5358009338e+02
    2.2999900818e+01    1.5358009338e+02
    2.3099880219e+01    1.5358009338e+02
    2.3200021744e+01    1.5358009338e+02
    2.3299928665e+01    1.5358009338e+02
    2.3400033951e+01    1.5358009338e+02
    2.3500022888e+01    1.5358009338e+02
    2.3599964142e+01    1.5358009338e+02
    2.3700002670e+01    1.5358009338e+02
    2.3799966812e+01    1.5358009338e+02
    2.3900037766e+01    1.5358009338e+02
    2.4000015259e+01    1.5358009338e+02
    2.4099887848e+01    1.5358009338e+02
    2.4200027466e+01    1.5358009338e+02
    2.4299989700e+01    1.5358009338e+02
    2.4400039673e+01    1.5358009338e+02
    2.4499969482e+01    1.5358009338e+02
    2.4599910736e+01    1.5358009338e+02
    2.4699981689e+01    1.5358009338e+02
    2.4800033569e+01    1.5358009338e+02
    2.4899883270e+01    1.5358009338e+02
    2.5000001907e+01    1.5358009338e+02
    2.5099962234e+01    1.5358009338e+02
    2.5200004578e+01    1.5358009338e+02
    2.5300001144e+01    1.5358009338e+02
    2.5400045395e+01    1.5358009338e+02
    2.5499912262e+01    1.5358009338e+02
    2.5599889755e+01    1.5358009338e+02
    2.5700042725e+01    1.5358009338e+02
    2.5799886703e+01    1.5358009338e+02
    2.5899898529e+01    1.5357910156e+02
    2.6000009537e+01    1.5357910156e+02
    2.6100057602e+01    1.5357910156e+02
    2.6199903488e+01    1.5357910156e+02
    2.6299972534e+01    1.5357910156e+02
    2.6400056839e+01    1.5357910156e+02
    2.6499908447e+01    1.5357910156e+02
    2.6599969864e+01    1.5357910156e+02
    2.6699974060e+01    1.5357910156e+02
    2.6799995422e+01    1.5357910156e+02
    2.6899902344e+01    1.5357910156e+02
    2.6999963760e+01    1.5357910156e+02
    2.7099901199e+01    1.5357910156e+02
    2.7200038910e+01    1.5357910156e+02
    2.7299972534e+01    1.5357910156e+02
    2.7400012970e+01    1.5357910156e+02
    2.7499927521e+01    1.5357910156e+02
    2.7600015640e+01    1.5357910156e+02
    2.7699941635e+01    1.5357910156e+02
    2.7799909592e+01    1.5357910156e+02
    2.7899925232e+01    1.5357910156e+02
    2.7999967575e+01    1.5357910156e+02
    2.8100044250e+01    1.5357910156e+02
    2.8199949265e+01    1.5357809448e+02
    2.8299892426e+01    1.5357809448e+02
    2.8399890900e+01    1.5357809448e+02
    2.8499971390e+01    1.5357809448e+02
    2.8599884033e+01    1.5357809448e+02
    2.8700067520e+01    1.5357809448e+02
    2.8800031662e+01    1.5357809448e+02
    2.8899967194e+01    1.5357809448e+02
    2.8999929428e+01    1.5357809448e+02
    2.9099964142e+01    1.5357809448e+02
    2.9200057983e+01    1.5357809448e+02
    2.9299907684e+01    1.5357809448e+02
    2.9400001526e+01    1.5357809448e+02
    2.9499927521e+01    1.5357809448e+02
    2.9599931717e+01    1.5357809448e+02
    2.9700012207e+01    1.5357809448e+02
    2.9799995422e+01    1.5357809448e+02
    2.9899957657e+01    1.5357809448e+02
    2.9999889374e+01    1.5357710266e+02
    3.0100076675e+01    1.5357710266e+02
    3.0200069427e+01    1.5357710266e+02
    3.0300050735e+01    1.5357710266e+02
    3.0399951935e+01    1.5357710266e+02
    3.0500064850e+01    1.5357710266e+02
    3.0599916458e+01    1.5357710266e+02
    3.0699962616e+01    1.5357710266e+02
    3.0800077438e+01    1.5357710266e+02
    3.0900070190e+01    1.5357710266e+02
    3.1000034332e+01    1.5357710266e+02
    3.1100049973e+01    1.5357710266e+02
    3.1200063705e+01    1.5357710266e+02
    3.1299907684e+01    1.5357609558e+02
    3.1399890900e+01    1.5357609558e+02
    3.1500045776e+01    1.5357609558e+02
    3.1600030899e+01    1.5357609558e+02
    3.1700052261e+01    1.5357609558e+02
    3.1799936295e+01    1.5357609558e+02
    3.1899904251e+01    1.5357609558e+02
    3.1999935150e+01    1.5357609558e+02
    3.2099964142e+01    1.5357609558e+02
    3.2199962616e+01    1.5357609558e+02
    3.2299892426e+01    1.5357609558e+02
    3.2400035858e+01    1.5357609558e+02
    3.2499904633e+01    1.5357510376e+02
    3.2599910736e+01    1.5357510376e+02
    3.2699932098e+01    1.5357510376e+02
    3.2800006866e+01    1.5357510376e+02
    3.2899936676e+01    1.5357510376e+02
    3.2999897003e+01    1.5357510376e+02
    3.3099899292e+01    1.5357510376e+02
    3.3199974060e+01    1.5357510376e+02
    3.3299999237e+01    1.5357510376e+02
    3.3400024414e+01    1.5357510376e+02
    3.3500003815e+01    1.5357510376e+02
    3.3600036621e+01    1.5357409668e+02
    3.3700035095e+01    1.5357409668e+02
    3.3799964905e+01    1.5357409668e+02
    3.3899883270e+01    1.5357409668e+02
    3.3999893188e+01    1.5357409668e+02
    3.4099880219e+01    1.5357409668e+02
    3.4199924469e+01    1.5357409668e+02
    3.4300014496e+01    1.5357409668e+02
    3.4400043488e+01    1.5357409668e+02
    3.4499973297e+01    1.5357310486e+02
    3.4599910736e+01    1.5357310486e+02
    3.4699939728e+01    1.5357310486e+02
    3.4799850464e+01    1.5357310486e+02
    3.4899990082e+01    1.5357310486e+02
    3.5000007629e+01    1.5357310486e+02
    3.5099903107e+01    1.5357310486e+02
    3.5199974060e+01    1.5357310486e+02
    3.5300006866e+01    1.5357310486e+02
    3.5399963379e+01    1.5357209778e+02
    3.5499870300e+01    1.5357209778e+02
    3.5599925995e+01    1.5357209778e+02
    3.5699993134e+01    1.5357209778e+02
    3.5799831390e+01    1.5357209778e+02
    3.5899917603e+01    1.5357209778e+02
    3.5999908447e+01    1.5357209778e+02
    3.6100002289e+01    1.5357209778e+02
    3.6199878693e+01    1.5357110596e+02
    3.6300014496e+01    1.5357110596e+02
    3.6399913788e+01    1.5357110596e+02
    3.6499870300e+01    1.5357110596e+02
    3.6599937439e+01    1.5357110596e+02
    3.6699829102e+01    1.5357110596e+02
    3.6799938202e+01    1.5357110596e+02
    3.6899948120e+01    1.5357110596e+02
    3.6999881744e+01    1.5357009888e+02
    3.7099990845e+01    1.5357009888e+02
    3.7199832916e+01    1.5357009888e+02
    3.7299980164e+01    1.5357009888e+02
    3.7399959564e+01    1.5357009888e+02
    3.7499820709e+01    1.5357009888e+02
    3.7599884033e+01    1.5356910706e+02
    3.7699859619e+01    1.5356910706e+02
    3.7799968719e+01    1.5356910706e+02
    3.7899860382e+01    1.5356910706e+02
    3.7999816895e+01    1.5356910706e+02
    3.8099857330e+01    1.5356910706e+02
    3.8199825287e+01    1.5356910706e+02
    3.8299835205e+01    1.5356809998e+02
    3.8399806976e+01    1.5356809998e+02
    3.8499923706e+01    1.5356809998e+02
    3.8599853516e+01    1.5356809998e+02
    3.8699958801e+01    1.5356809998e+02
    3.8799850464e+01    1.5356809998e+02
    3.8899860382e+01    1.5356709290e+02
    3.8999809265e+01    1.5356709290e+02
    3.9099887848e+01    1.5356709290e+02
    3.9199947357e+01    1.5356709290e+02
    3.9299854279e+01    1.5356709290e+02
    3.9399814606e+01    1.5356709290e+02
    3.9499824524e+01    1.5356610107e+02
    3.9599880219e+01    1.5356610107e+02
    3.9699913025e+01    1.5356610107e+02
    3.9799877167e+01    1.5356610107e+02
    3.9899894714e+01    1.5356610107e+02
    3.9999912262e+01    1.5356610107e+02
    4.0099914551e+01    1.5356509399e+02
    4.0199893951e+01    1.5356509399e+02
    4.0299804688e+01    1.5356509399e+02
    4.0399948120e+01    1.5356509399e+02
    4.0499835968e+01    1.5356509399e+02
    4.0599922180e+01    1.5356410217e+02
    4.0699909210e+01    1.5356410217e+02
    4.0799816132e+01    1.5356410217e+02
    4.0899898529e+01    1.5356410217e+02
    4.0999935150e+01    1.5356410217e+02
    4.1099929810e+01    1.5356309509e+02
    4.1199760437e+01    1.5356309509e+02
    4.1299900055e+01    1.5356309509e+02
    4.1399925232e+01    1.5356309509e+02
    4.1499919891e+01    1.5356309509e+02
    4.1599872589e+01    1.5356210327e+02
    4.1699752808e+01    1.5356210327e+02
    4.1799789429e+01    1.5356210327e+02
    4.1899768829e+01    1.5356210327e+02
    4.1999752045e+01    1.5356109619e+02
    4.2099834442e+01    1.5356109619e+02
    4.2199790955e+01    1.5356109619e+02
    4.2299854279e+01    1.5356109619e+02
    4.2399879456e+01    1.5356109619e+02
    4.2499816895e+01    1.5356010437e+02
    4.2599876404e+01    1.5356010437e+02
    4.2699844360e+01    1.5356010437e+02
    4.2799797058e+01    1.5356010437e+02
    4.2899894714e+01    1.5355909729e+02
    4.2999797821e+01    1.5355909729e+02
    4.3099784851e+01    1.5355909729e+02
    4.3199867249e+01    1.5355909729e+02
    4.3299751282e+01    1.5355909729e+02
    4.3399730682e+01    1.5355810547e+02
    4.3499862671e+01    1.5355810547e+02
    4.3599842072e+01    1.5355810547e+02
    4.3699726105e+01    1.5355810547e+02
    4.3799751282e+01    1.5355709839e+02
    4.3899768829e+01    1.5355709839e+02
    4.3999744415e+01    1.5355709839e+02
    4.4099803925e+01    1.5355709839e+02
    4.4199714661e+01    1.5355610657e+02
    4.4299701691e+01    1.5355610657e+02
    4.4399784088e+01    1.5355610657e+02
    4.4499786377e+01    1.5355509949e+02
    4.4599861145e+01    1.5355509949e+02
    4.4699787140e+01    1.5355509949e+02
    4.4799709320e+01    1.5355509949e+02
    4.4899871826e+01    1.5355410767e+02
    4.4999771118e+01    1.5355410767e+02
    4.5099750519e+01    1.5355410767e+02
    4.5199760437e+01    1.5355410767e+02
    4.5299850464e+01    1.5355310059e+02
    4.5399711609e+01    1.5355310059e+02
    4.5499698639e+01    1.5355310059e+02
    4.5599731445e+01    1.5355209351e+02
    4.5699748993e+01    1.5355209351e+02
    4.5799686432e+01    1.5355209351e+02
    4.5899711609e+01    1.5355209351e+02
    4.5999805450e+01    1.5355110168e+02
    4.6099761963e+01    1.5355110168e+02
    4.6199798584e+01    1.5355110168e+02
    4.6299755096e+01    1.5355009460e+02
    4.6399730682e+01    1.5355009460e+02
    4.6499851227e+01    1.5355009460e+02
    4.6599678040e+01    1.5354910278e+02
    4.6699825287e+01    1.5354910278e+02
    4.6799678802e+01    1.5354910278e+02
    4.6899757385e+01    1.5354809570e+02
    4.6999683380e+01    1.5354809570e+02
    4.7099811554e+01    1.5354809570e+02
    4.7199710846e+01    1.5354710388e+02
    4.7299736023e+01    1.5354710388e+02
    4.7399749756e+01    1.5354710388e+02
    4.7499786377e+01    1.5354609680e+02
    4.7599742889e+01    1.5354609680e+02
    4.7699718475e+01    1.5354609680e+02
    4.7799823761e+01    1.5354510498e+02
    4.7899753571e+01    1.5354510498e+02
    4.7999778748e+01    1.5354510498e+02
    4.8099697113e+01    1.5354409790e+02
    4.8199806213e+01    1.5354409790e+02
    4.8299800873e+01    1.5354409790e+02
    4.8399787903e+01    1.5354310608e+02
    4.8499740601e+01    1.5354310608e+02
    4.8599704742e+01    1.5354310608e+02
    4.8699787140e+01    1.5354209900e+02
    4.8799770355e+01    1.5354209900e+02
    4.8899726868e+01    1.5354110718e+02
    4.8999706268e+01    1.5354110718e+02
    4.9099693298e+01    1.5354110718e+02
    4.9199722290e+01    1.5354010010e+02
    4.9299640656e+01    1.5354010010e+02
    4.9399684906e+01    1.5353909302e+02
    4.9499626160e+01    1.5353909302e+02
    4.9599678040e+01    1.5353909302e+02
    4.9699726105e+01    1.5353810120e+02
    4.9799709320e+01    1.5353810120e+02
    4.9899654388e+01    1.5353709412e+02
    4.9999668121e+01    1.5353709412e+02
    5.0099781036e+01    1.5353709412e+02
    5.0199707031e+01    1.5353610229e+02
    5.0299766541e+01    1.5353610229e+02
    5.0399639130e+01    1.5353509521e+02
    5.0499649048e+01    1.5353509521e+02
    5.0599704742e+01    1.5353509521e+02
    5.0699642181e+01    1.5353410339e+02
    5.0799621582e+01    1.5353410339e+02
    5.0899742126e+01    1.5353309631e+02
    5.0999729156e+01    1.5353309631e+02
    5.1099594116e+01    1.5353210449e+02
    5.1199665070e+01    1.5353210449e+02
    5.1299671173e+01    1.5353109741e+02
    5.1399772644e+01    1.5353109741e+02
    5.1499618530e+01    1.5353010559e+02
    5.1599651337e+01    1.5353010559e+02
    5.1699710846e+01    1.5353010559e+02
    5.1799751282e+01    1.5352909851e+02
    5.1899730682e+01    1.5352909851e+02
    5.1999736786e+01    1.5352810669e+02
    5.2099716187e+01    1.5352810669e+02
    5.2199676514e+01    1.5352709961e+02
    5.2299659729e+01    1.5352709961e+02
    5.2399738312e+01    1.5352610779e+02
    5.2499767303e+01    1.5352610779e+02
    5.2599662781e+01    1.5352510071e+02
    5.2699695587e+01    1.5352510071e+02
    5.2799621582e+01    1.5352409363e+02
    5.2899677277e+01    1.5352409363e+02
    5.2999649048e+01    1.5352310181e+02
    5.3099750519e+01    1.5352209473e+02
    5.3199729919e+01    1.5352209473e+02
    5.3299728394e+01    1.5352110291e+02
    5.3399707794e+01    1.5352110291e+02
    5.3499660492e+01    1.5352009583e+02
    5.3599586487e+01    1.5352009583e+02
    5.3699623108e+01    1.5351910400e+02
    5.3799591064e+01    1.5351910400e+02
    5.3899669647e+01    1.5351809692e+02
    5.3999729156e+01    1.5351710510e+02
    5.4099582672e+01    1.5351710510e+02
    5.4199676514e+01    1.5351609802e+02
    5.4299655914e+01    1.5351609802e+02
    5.4399684906e+01    1.5351510620e+02
    5.4499641418e+01    1.5351510620e+02
    5.4599674225e+01    1.5351409912e+02
    5.4699680328e+01    1.5351310730e+02
    5.4799617767e+01    1.5351310730e+02
    5.4899673462e+01    1.5351210022e+02
    5.4999637604e+01    1.5351109314e+02
    5.5099704742e+01    1.5351109314e+02
    5.5199642181e+01    1.5351010132e+02
    5.5299640656e+01    1.5351010132e+02
    5.5399620056e+01    1.5350909424e+02
    5.5499706268e+01    1.5350810242e+02
    5.5599685669e+01    1.5350810242e+02
    5.5699604034e+01    1.5350709534e+02
    5.5799549103e+01    1.5350610352e+02
    5.5899547577e+01    1.5350610352e+02
    5.5999645233e+01    1.5350509644e+02
    5.6099678040e+01    1.5350410461e+02
    5.6199668884e+01    1.5350410461e+02
    5.6299594879e+01    1.5350309753e+02
    5.6399635315e+01    1.5350210571e+02
    5.6499668121e+01    1.5350109863e+02
    5.6599552155e+01    1.5350109863e+02
    5.6699531555e+01    1.5350010681e+02
    5.6799652100e+01    1.5349909973e+02
    5.6899631500e+01    1.5349810791e+02
    5.6999626160e+01    1.5349810791e+02
    5.7099605560e+01    1.5349710083e+02
    5.7199569702e+01    1.5349609375e+02
    5.7299514771e+01    1.5349510193e+02
    5.7399593353e+01    1.5349510193e+02
    5.7499534607e+01    1.5349409485e+02
    5.7599681854e+01    1.5349310303e+02
    5.7699653625e+01    1.5349209595e+02
    5.7799663544e+01    1.5349110413e+02
    5.7899555206e+01    1.5349110413e+02
    5.7999504089e+01    1.5349009705e+02
    5.8099674225e+01    1.5348910522e+02
    5.8199653625e+01    1.5348809814e+02
    5.8299644470e+01    1.5348710632e+02
    5.8399623871e+01    1.5348609924e+02
    5.8499538422e+01    1.5348609924e+02
    5.8599544525e+01    1.5348510742e+02
    5.8699539185e+01    1.5348410034e+02
    5.8799621582e+01    1.5348309326e+02
    5.8899559021e+01    1.5348210144e+02
    5.8999576569e+01    1.5348109436e+02
    5.9099563599e+01    1.5348010254e+02
    5.9199573517e+01    1.5347909546e+02
    5.9299583435e+01    1.5347810364e+02
    5.9399547577e+01    1.5347709656e+02
    5.9499599457e+01    1.5347610474e+02
    5.9599594116e+01    1.5347509766e+02
    5.9699523926e+01    1.5347410583e+02
    5.9799598694e+01    1.5347309875e+02
    5.9899604797e+01    1.5347210693e+02
    5.9999633789e+01    1.5347109985e+02
    6.0099628448e+01    1.5347010803e+02
    6.0199493408e+01    1.5346910095e+02
    6.0299625397e+01    1.5346809387e+02
    6.0399467468e+01    1.5346710205e+02
    6.0499645233e+01    1.5346609497e+02
    6.0599594116e+01    1.5346510315e+02
    6.0699577332e+01    1.5346409607e+02
    6.0799602509e+01    1.5346310425e+02
    6.0899562836e+01    1.5346209717e+02
    6.0999542236e+01    1.5346110535e+02
    6.1099597931e+01    1.5346009827e+02
    6.1199462891e+01    1.5345809937e+02
    6.1299468994e+01    1.5345710754e+02
    6.1399532318e+01    1.5345610046e+02
    6.1499580383e+01    1.5345509338e+02
    6.1599521637e+01    1.5345410156e+02
    6.1699501038e+01    1.5345210266e+02
    6.1799594879e+01    1.5345109558e+02
    6.1899448395e+01    1.5345010376e+02
    6.1999530792e+01    1.5344909668e+02
    6.2099483490e+01    1.5344709778e+02
    6.2199577332e+01    1.5344610596e+02
    6.2299480438e+01    1.5344509888e+02
    6.2399524689e+01    1.5344410706e+02
    6.2499534607e+01    1.5344209290e+02
    6.2599536896e+01    1.5344110107e+02
    6.2699455261e+01    1.5343910217e+02
    6.2799602509e+01    1.5343809509e+02
    6.2899509430e+01    1.5343710327e+02
    6.2999492645e+01    1.5343510437e+02
    6.3099544525e+01    1.5343409729e+02
    6.3199466705e+01    1.5343209839e+02
    6.3299579620e+01    1.5343110657e+02
    6.3399459839e+01    1.5342910767e+02
    6.3499511719e+01    1.5342810059e+02
    6.3599422455e+01    1.5342610168e+02
    6.3699451447e+01    1.5342509460e+02
    6.3799495697e+01    1.5342309570e+02
    6.3899475098e+01    1.5342210388e+02
    6.3999450684e+01    1.5342010498e+02
    6.4099510193e+01    1.5341909790e+02
    6.4199478149e+01    1.5341709900e+02
    6.4299468994e+01    1.5341510010e+02
    6.4399559021e+01    1.5341409302e+02
    6.4499542236e+01    1.5341209412e+02
    6.4599395752e+01    1.5341009521e+02
    6.4699455261e+01    1.5340809631e+02
    6.4799522400e+01    1.5340710449e+02
    6.4899398804e+01    1.5340510559e+02
    6.4999443054e+01    1.5340310669e+02
    6.5099433899e+01    1.5340110779e+02
    6.5199409485e+01    1.5339909363e+02
    6.5299514771e+01    1.5339810181e+02
    6.5399497986e+01    1.5339610291e+02
    6.5499450684e+01    1.5339410400e+02
    6.5599525452e+01    1.5339210510e+02
    6.5699386597e+01    1.5339010620e+02
    6.5799453735e+01    1.5338810730e+02
    6.5899436951e+01    1.5338609314e+02
    6.5999519348e+01    1.5338409424e+02
    6.6099472046e+01    1.5338209534e+02
    6.6199424744e+01    1.5338009644e+02
    6.6299377441e+01    1.5337809753e+02
    6.6399536133e+01    1.5337510681e+02
    6.6499443054e+01    1.5337310791e+02
    6.6599395752e+01    1.5337109375e+02
    6.6699371338e+01    1.5336909485e+02
    6.6799446106e+01    1.5336709595e+02
    6.6899421692e+01    1.5336410522e+02
    6.6999504089e+01    1.5336210632e+02
    6.7099449158e+01    1.5336010742e+02
    6.7199447632e+01    1.5335710144e+02
    6.7299522400e+01    1.5335510254e+02
    6.7399459839e+01    1.5335209656e+02
    6.7499397278e+01    1.5335009766e+02
    6.7599479675e+01    1.5334710693e+02
    6.7699516296e+01    1.5334510803e+02
    6.7799362183e+01    1.5334210205e+02
    6.7899391174e+01    1.5334010315e+02
    6.7999374390e+01    1.5333709717e+02
    6.8099365234e+01    1.5333509827e+02
    6.8199417114e+01    1.5333210754e+02
    6.8299499512e+01    1.5332910156e+02
    6.8399482727e+01    1.5332609558e+02
    6.8499343872e+01    1.5332409668e+02
    6.8599365234e+01    1.5332110596e+02
    6.8699516296e+01    1.5331809998e+02
    6.8799339294e+01    1.5331509399e+02
    6.8899475098e+01    1.5331210327e+02
    6.8999374390e+01    1.5330909729e+02
    6.9099388123e+01    1.5330610657e+02
    6.9199409485e+01    1.5330310059e+02
    6.9299392700e+01    1.5330009460e+02
    6.9399467468e+01    1.5329710388e+02
    6.9499427795e+01    1.5329409790e+02
    6.9599464417e+01    1.5329110718e+02
    6.9699363708e+01    1.5328709412e+02
    6.9799392700e+01    1.5328410339e+02
    6.9899414062e+01    1.5328109741e+02
    6.9999320984e+01    1.5327709961e+02
    7.0099342346e+01    1.5327409363e+02
    7.0199378967e+01    1.5327009583e+02
    7.0299461365e+01    1.5326710510e+02
    7.0399444580e+01    1.5326310730e+02
    7.0499359131e+01    1.5326010132e+02
    7.0599334717e+01    1.5325610352e+02
    7.0699409485e+01    1.5325210571e+02
    7.0799461365e+01    1.5324909973e+02
    7.0899421692e+01    1.5324510193e+02
    7.0999389648e+01    1.5324110413e+02
    7.1099395752e+01    1.5323710632e+02
    7.1199417114e+01    1.5323309326e+02
    7.1299293518e+01    1.5322909546e+02
    7.1399383545e+01    1.5322509766e+02
    7.1499328613e+01    1.5322109985e+02
    7.1599449158e+01    1.5321710205e+02
    7.1699432373e+01    1.5321310425e+02
    7.1799308777e+01    1.5320910645e+02
    7.1899291992e+01    1.5320410156e+02
    7.1999328613e+01    1.5320010376e+02
    7.2099304199e+01    1.5319610596e+02
    7.2199424744e+01    1.5319110107e+02
    7.2299301147e+01    1.5318710327e+02
    7.2399383545e+01    1.5318209839e+02
    7.2499389648e+01    1.5317709351e+02
    7.2599365234e+01    1.5317309570e+02
    7.2699371338e+01    1.5316810608e+02
    7.2799331665e+01    1.5316310120e+02
    7.2899375916e+01    1.5315809631e+02
    7.2999389648e+01    1.5315310669e+02
    7.3099311829e+01    1.5314810181e+02
    7.3199295044e+01    1.5314309692e+02
    7.3299423218e+01    1.5313810730e+02
    7.3399314880e+01    1.5313310242e+02
    7.3499420166e+01    1.5312809753e+02
    7.3599395752e+01    1.5312210083e+02
    7.3699440002e+01    1.5311709595e+02
    7.3799438477e+01    1.5311210632e+02
    7.3899391174e+01    1.5310609436e+02
    7.3999275208e+01    1.5310009766e+02
    7.4099388123e+01    1.5309510803e+02
    7.4199371338e+01    1.5308909607e+02
    7.4299369812e+01    1.5308309937e+02
    7.4399353027e+01    1.5307710266e+02
    7.4499359131e+01    1.5307110596e+02
    7.4599411011e+01    1.5306509399e+02
    7.4699378967e+01    1.5305909729e+02
    7.4799407959e+01    1.5305310059e+02
    7.4899337769e+01    1.5304710388e+02
    7.4999320984e+01    1.5304010010e+02
    7.5099319458e+01    1.5303410339e+02
    7.5199310303e+01    1.5302709961e+02
    7.5299407959e+01    1.5302110291e+02
    7.5399299622e+01    1.5301409912e+02
    7.5499374390e+01    1.5300709534e+02
    7.5599380493e+01    1.5300010681e+02
    7.5699348450e+01    1.5299310303e+02
    7.5799232483e+01    1.5298710632e+02
    7.5899368286e+01    1.5297909546e+02
    7.5999298096e+01    1.5297210693e+02
    7.6099266052e+01    1.5296510315e+02
    7.6199386597e+01    1.5295809937e+02
    7.6299369812e+01    1.5295109558e+02
    7.6399230957e+01    1.5294309998e+02
    7.6499229431e+01    1.5293609619e+02
    7.6599227905e+01    1.5292810059e+02
    7.6699302673e+01    1.5292109680e+02
    7.6799240112e+01    1.5291310120e+02
    7.6899276733e+01    1.5290510559e+02
    7.6999382019e+01    1.5289709473e+02
    7.7099243164e+01    1.5288909912e+02
    7.7199279785e+01    1.5288110352e+02
    7.7299247742e+01    1.5287310791e+02
    7.7399253845e+01    1.5286410522e+02
    7.7499336243e+01    1.5285609436e+02
    7.7599319458e+01    1.5284809875e+02
    7.7699325562e+01    1.5283909607e+02
    7.7799324036e+01    1.5283009338e+02
    7.7899276733e+01    1.5282110596e+02
    7.7999229431e+01    1.5281210327e+02
    7.8099342346e+01    1.5280310059e+02
    7.8199249268e+01    1.5279409790e+02
    7.8299301147e+01    1.5278509521e+02
    7.8399368286e+01    1.5277610779e+02
    7.8499252319e+01    1.5276609802e+02
    7.8599197388e+01    1.5275610352e+02
    7.8699264526e+01    1.5274710083e+02
    7.8799285889e+01    1.5273710632e+02
    7.8899314880e+01    1.5272709656e+02
    7.8999229431e+01    1.5271710205e+02
    7.9099288940e+01    1.5270610046e+02
    7.9199195862e+01    1.5269610596e+02
    7.9299339294e+01    1.5268510437e+02
    7.9399291992e+01    1.5267509460e+02
    7.9499176025e+01    1.5266409302e+02
    7.9599281311e+01    1.5265310669e+02
    7.9699317932e+01    1.5264210510e+02
    7.9799285889e+01    1.5263110352e+02
    7.9899192810e+01    1.5261909485e+02
    7.9999275208e+01    1.5260809326e+02
    8.0099197388e+01    1.5259609985e+02
    8.0199302673e+01    1.5258509827e+02
    8.0299240112e+01    1.5257310486e+02
    8.0399215698e+01    1.5256109619e+02
    8.0499229431e+01    1.5254910278e+02
    8.0599174500e+01    1.5253709412e+02
    8.0699226379e+01    1.5252510071e+02
    8.0799255371e+01    1.5251210022e+02
    8.0899291992e+01    1.5250010681e+02
    8.0999145508e+01    1.5248710632e+02
    8.1099212646e+01    1.5247509766e+02
    8.1199157715e+01    1.5246209717e+02
    8.1299278259e+01    1.5244909668e+02
    8.1399299622e+01    1.5243609619e+02
    8.1499214172e+01    1.5242210388e+02
    8.1599304199e+01    1.5240910339e+02
    8.1699234009e+01    1.5239509583e+02
    8.1799186707e+01    1.5238110352e+02
    8.1899284363e+01    1.5236810303e+02
    8.1999198914e+01    1.5235409546e+02
    8.2099212646e+01    1.5233909607e+02
    8.2199157715e+01    1.5232510376e+02
    8.2299140930e+01    1.5231010437e+02
    8.2399185181e+01    1.5229609680e+02
    8.2499206543e+01    1.5228109741e+02
    8.2599182129e+01    1.5226609802e+02
    8.2699302673e+01    1.5225010681e+02
    8.2799171448e+01    1.5223510742e+02
    8.2899185181e+01    1.5221910095e+02
    8.2999137878e+01    1.5220309448e+02
    8.3099205017e+01    1.5218710327e+02
    8.3199256897e+01    1.5217109680e+02
    8.3299118042e+01    1.5215510559e+02
    8.3399185181e+01    1.5213810730e+02
    8.3499282837e+01    1.5212210083e+02
    8.3599143982e+01    1.5210510254e+02
    8.3699211121e+01    1.5208810425e+02
    8.3799140930e+01    1.5207009888e+02
    8.3899223328e+01    1.5205310059e+02
    8.3999244690e+01    1.5203509521e+02
    8.4099189758e+01    1.5201710510e+02
    8.4199157715e+01    1.5199909973e+02
    8.4299240112e+01    1.5198109436e+02
    8.4399177551e+01    1.5196209717e+02
    8.4499221802e+01    1.5194410706e+02
    8.4599197388e+01    1.5192509460e+02
    8.4699104309e+01    1.5190609741e+02
    8.4799156189e+01    1.5188609314e+02
    8.4899238586e+01    1.5186709595e+02
    8.4999130249e+01    1.5184710693e+02
    8.5099166870e+01    1.5182710266e+02
    8.5199226379e+01    1.5180709839e+02
    8.5299110413e+01    1.5178610229e+02
    8.5399185181e+01    1.5176510620e+02
    8.5499176025e+01    1.5174510193e+02
    8.5599174500e+01    1.5172410583e+02
    8.5699081421e+01    1.5170210266e+02
    8.5799240112e+01    1.5168110657e+02
    8.5899177551e+01    1.5165910339e+02
    8.5999191284e+01    1.5163710022e+02
    8.6099182129e+01    1.5161509705e+02
    8.6199142456e+01    1.5159309387e+02
    8.6299156189e+01    1.5157009888e+02
    8.6399223328e+01    1.5154809570e+02
    8.6499237061e+01    1.5152510071e+02
    8.6599189758e+01    1.5150109863e+02
    8.6699150085e+01    1.5147810364e+02
    8.6799064636e+01    1.5145410156e+02
    8.6899177551e+01    1.5143009949e+02
    8.6999122620e+01    1.5140609741e+02
    8.7099098206e+01    1.5138110352e+02
    8.7199165344e+01    1.5135609436e+02
    8.7299140930e+01    1.5133110046e+02
    8.7399230957e+01    1.5130509949e+02
    8.7499076843e+01    1.5128010559e+02
    8.7599189758e+01    1.5125309753e+02
    8.7699081421e+01    1.5122709656e+02
    8.7799217224e+01    1.5120010376e+02
    8.7899101257e+01    1.5117309570e+02
    8.7999153137e+01    1.5114610291e+02
    8.8099166870e+01    1.5111810303e+02
    8.8199073792e+01    1.5109010315e+02
    8.8299072266e+01    1.5106210327e+02
    8.8399131775e+01    1.5103309631e+02
    8.8499114990e+01    1.5100410461e+02
    8.8599082947e+01    1.5097509766e+02
    8.8699188232e+01    1.5094509888e+02
    8.8799125671e+01    1.5091610718e+02
    8.8899147034e+01    1.5088510132e+02
    8.8999183655e+01    1.5085510254e+02
    8.9099037170e+01    1.5082409668e+02
    8.9199195862e+01    1.5079310608e+02
    8.9299102783e+01    1.5076109314e+02
    8.9399093628e+01    1.5072909546e+02
    8.9499137878e+01    1.5069709778e+02
    8.9599090576e+01    1.5066510010e+02
    8.9699150085e+01    1.5063209534e+02
    8.9799072266e+01    1.5059809875e+02
    8.9899032593e+01    1.5056509399e+02
    8.9999076843e+01    1.5053109741e+02
    9.0099029541e+01    1.5049710083e+02
    9.0199073792e+01    1.5046209717e+02
    9.0299156189e+01    1.5042709351e+02
    9.0399047852e+01    1.5039109802e+02
    9.0499008179e+01    1.5035609436e+02
    9.0599060059e+01    1.5031910706e+02
    9.0699073792e+01    1.5028309631e+02
    9.0799079895e+01    1.5024609375e+02
    9.0899169922e+01    1.5020809937e+02
    9.0999160767e+01    1.5017109680e+02
    9.1099159241e+01    1.5013310242e+02
    9.1198989868e+01    1.5009410095e+02
    9.1299125671e+01    1.5005509949e+02
    9.1399002075e+01    1.5001609802e+02
    9.1499053955e+01    1.4997610474e+02
    9.1599166870e+01    1.4993609619e+02
    9.1699150085e+01    1.4989610291e+02
    9.1799072266e+01    1.4985510254e+02
    9.1898986816e+01    1.4981309509e+02
    9.1999114990e+01    1.4977209473e+02
    9.2099151611e+01    1.4972909546e+02
    9.2199066162e+01    1.4968710327e+02
    9.2299140930e+01    1.4964410400e+02
    9.2399063110e+01    1.4960009766e+02
    9.2498970032e+01    1.4955610657e+02
    9.2599151611e+01    1.4951109314e+02
    9.2699104309e+01    1.4946710205e+02
    9.2799057007e+01    1.4942109680e+02
    9.2899009705e+01    1.4937510681e+02
    9.2999038696e+01    1.4932910156e+02
    9.3099113464e+01    1.4928210449e+02
    9.3199020386e+01    1.4923510742e+02
    9.3299140930e+01    1.4918710327e+02
    9.3399040222e+01    1.4913909912e+02
    9.3499046326e+01    1.4909010315e+02
    9.3599067688e+01    1.4904110718e+02
    9.3699058533e+01    1.4899209595e+02
    9.3799118042e+01    1.4894110107e+02
    9.3898994446e+01    1.4889109802e+02
    9.3999099731e+01    1.4884010315e+02
    9.4099098206e+01    1.4878810120e+02
    9.4199043274e+01    1.4873609924e+02
    9.4298988342e+01    1.4868310547e+02
    9.4399078369e+01    1.4863009644e+02
    9.4499061584e+01    1.4857710266e+02
    9.4598999023e+01    1.4852310181e+02
    9.4699043274e+01    1.4846809387e+02
    9.4799072266e+01    1.4841310120e+02
    9.4899078369e+01    1.4835710144e+02
    9.4999069214e+01    1.4830110168e+02
    9.5099082947e+01    1.4824510193e+02
    9.5198936462e+01    1.4818809509e+02
    9.5299011230e+01    1.4813009644e+02
    9.5398971558e+01    1.4807209778e+02
    9.5499000549e+01    1.4801409912e+02
    9.5598930359e+01    1.4795509338e+02
    9.5699043274e+01    1.4789509583e+02
    9.5799041748e+01    1.4783509827e+02
    9.5898963928e+01    1.4777409363e+02
    9.5998962402e+01    1.4771310425e+02
    9.6099014282e+01    1.4765209961e+02
    9.6198989868e+01    1.4758909607e+02
    9.6299064636e+01    1.4752709961e+02
    9.6398948669e+01    1.4746310425e+02
    9.6498908997e+01    1.4740010071e+02
    9.6598922729e+01    1.4733509827e+02
    9.6699005127e+01    1.4727009583e+02
    9.6798927307e+01    1.4720509338e+02
    9.6899078369e+01    1.4713810730e+02
    9.6998916626e+01    1.4707209778e+02
    9.7099029541e+01    1.4700410461e+02
    9.7198959351e+01    1.4693710327e+02
    9.7298965454e+01    1.4686810303e+02
    9.7399002075e+01    1.4679910278e+02
    9.7499015808e+01    1.4673010254e+02
    9.7599006653e+01    1.4666009521e+02
    9.7698928833e+01    1.4658911133e+02
    9.7798988342e+01    1.4651809692e+02
    9.7899070740e+01    1.4644610596e+02
    9.7998893738e+01    1.4637409973e+02
    9.8099021912e+01    1.4630110168e+02
    9.8199058533e+01    1.4622711182e+02
    9.8298927307e+01    1.4615310669e+02
    9.8398918152e+01    1.4607910156e+02
    9.8498878479e+01    1.4600309753e+02
    9.8599029541e+01    1.4592709351e+02
    9.8698898315e+01    1.4585110474e+02
    9.8798988342e+01    1.4577410889e+02
    9.8898880005e+01    1.4569610596e+02
    9.8999015808e+01    1.4561810303e+02
    9.9098937988e+01    1.4553909302e+02
    9.9199012756e+01    1.4546009827e+02
    9.9298866272e+01    1.4538009644e+02
    9.9399017334e+01    1.4530010986e+02
    9.9499008179e+01    1.4521810913e+02
    9.9598953247e+01    1.4513710022e+02
    9.9698928833e+01    1.4505509949e+02
    9.9798873901e+01    1.4497210693e+02
    9.9898933411e+01    1.4488809204e+02
    9.9998992920e+01    1.4480410767e+02
    1.0009896088e+02    1.4472009277e+02
    1.0019893646e+02    1.4463510132e+02
    1.0029895020e+02    1.4454910278e+02
    1.0039897156e+02    1.4446209717e+02
    1.0049887848e+02    1.4437509155e+02
    1.0059892273e+02    1.4428810120e+02
    1.0069885254e+02    1.4420010376e+02
    1.0079901123e+02    1.4411109924e+02
    1.0089897919e+02    1.4402110291e+02
    1.0099891663e+02    1.4393109131e+02
    1.0109893799e+02    1.4384109497e+02
    1.0119895935e+02    1.4374909973e+02
    1.0129891205e+02    1.4365710449e+02
    1.0139890289e+02    1.4356509399e+02
    1.0149883270e+02    1.4347210693e+02
    1.0159896851e+02    1.4337809753e+02
    1.0169889069e+02    1.4328410339e+02
    1.0179886627e+02    1.4318910217e+02
    1.0189897156e+02    1.4309410095e+02
    1.0199889374e+02    1.4299810791e+02
    1.0209887695e+02    1.4290109253e+02
    1.0219895935e+02    1.4280410767e+02
    1.0229892731e+02    1.4270610046e+02
    1.0239885712e+02    1.4260809326e+02
    1.0249897003e+02    1.4250909424e+02
    1.0259893036e+02    1.4240910339e+02
    1.0269882965e+02    1.4230909729e+02
    1.0279891205e+02    1.4220809937e+02
    1.0289888763e+02    1.4210610962e+02
    1.0299897766e+02    1.4200408936e+02
    1.0309898376e+02    1.4190109253e+02
    1.0319895935e+02    1.4179809570e+02
    1.0329882050e+02    1.4169409180e+02
    1.0339881134e+02    1.4159010315e+02
    1.0349881744e+02    1.4148410034e+02
    1.0359887695e+02    1.4137809753e+02
    1.0369892883e+02    1.4127209473e+02
    1.0379889679e+02    1.4116409302e+02
    1.0389881897e+02    1.4105709839e+02
    1.0399887085e+02    1.4094808960e+02
    1.0409890747e+02    1.4083911133e+02
    1.0419893646e+02    1.4072909546e+02
    1.0429891205e+02    1.4061911011e+02
    1.0439893341e+02    1.4050810242e+02
    1.0449887085e+02    1.4039610291e+02
    1.0459879303e+02    1.4028410339e+02
    1.0469882965e+02    1.4017109680e+02
    1.0479884338e+02    1.4005709839e+02
    1.0489894104e+02    1.3994309998e+02
    1.0499886322e+02    1.3982809448e+02
    1.0509892273e+02    1.3971310425e+02
    1.0519882202e+02    1.3959710693e+02
    1.0529882812e+02    1.3948010254e+02
    1.0539887238e+02    1.3936209106e+02
    1.0549893951e+02    1.3924411011e+02
    1.0559886932e+02    1.3912609863e+02
    1.0569888306e+02    1.3900711060e+02
    1.0579888916e+02    1.3888710022e+02
    1.0589884949e+02    1.3876609802e+02
    1.0599878693e+02    1.3864511108e+02
    1.0609890747e+02    1.3852310181e+02
    1.0619886017e+02    1.3840109253e+02
    1.0629885101e+02    1.3827810669e+02
    1.0639881897e+02    1.3815509033e+02
    1.0649886322e+02    1.3803109741e+02
    1.0659877014e+02    1.3790609741e+02
    1.0669892120e+02    1.3778009033e+02
    1.0679878998e+02    1.3765409851e+02
    1.0689884949e+02    1.3752810669e+02
    1.0699889374e+02    1.3740010071e+02
    1.0709883881e+02    1.3727310181e+02
    1.0719876862e+02    1.3714410400e+02
    1.0729885101e+02    1.3701510620e+02
    1.0739888763e+02    1.3688510132e+02
    1.0749874878e+02    1.3675509644e+02
    1.0759892273e+02    1.3662409973e+02
    1.0769889069e+02    1.3649209595e+02
    1.0779891968e+02    1.3635910034e+02
    1.0789891052e+02    1.3622610474e+02
    1.0799877930e+02    1.3609310913e+02
    1.0809873962e+02    1.3595910645e+02
    1.0819891357e+02    1.3582409668e+02
    1.0829881287e+02    1.3568811035e+02
    1.0839877319e+02    1.3555209351e+02
    1.0849880981e+02    1.3541510010e+02
    1.0859876251e+02    1.3527709961e+02
    1.0869876099e+02    1.3513909912e+02
    1.0879879761e+02    1.3500009155e+02
    1.0889884949e+02    1.3486109924e+02
    1.0899874878e+02    1.3472109985e+02
    1.0909887695e+02    1.3458010864e+02
    1.0919886780e+02    1.3443811035e+02
    1.0929885101e+02    1.3429609680e+02
    1.0939877319e+02    1.3415409851e+02
    1.0949873352e+02    1.3401010132e+02
    1.0959871674e+02    1.3386610413e+02
    1.0969873047e+02    1.3372109985e+02
    1.0979873657e+02    1.3357611084e+02
    1.0989884186e+02    1.3343009949e+02
    1.0999887085e+02    1.3328311157e+02
    1.1009880829e+02    1.3313510132e+02
    1.1019876099e+02    1.3298809814e+02
    1.1029876709e+02    1.3283911133e+02
    1.1039875793e+02    1.3269009399e+02
    1.1049874115e+02    1.3254010010e+02
    1.1059873199e+02    1.3238909912e+02
    1.1069872284e+02    1.3223809814e+02
    1.1079878998e+02    1.3208609009e+02
    1.1089869690e+02    1.3193409729e+02
    1.1099884033e+02    1.3178009033e+02
    1.1109870911e+02    1.3162710571e+02
    1.1119869995e+02    1.3147309875e+02
    1.1129872894e+02    1.3131809998e+02
    1.1139874268e+02    1.3116210938e+02
    1.1149873352e+02    1.3100610352e+02
    1.1159870148e+02    1.3084909058e+02
    1.1169869232e+02    1.3069210815e+02
    1.1179868317e+02    1.3053410339e+02
    1.1189868164e+02    1.3037509155e+02
    1.1199874115e+02    1.3021609497e+02
    1.1209882355e+02    1.3005609131e+02
    1.1219873810e+02    1.2989610291e+02
    1.1229873657e+02    1.2973410034e+02
    1.1239882660e+02    1.2957209778e+02
    1.1249884033e+02    1.2941009521e+02
    1.1259866333e+02    1.2924710083e+02
    1.1269883728e+02    1.2908309937e+02
    1.1279876709e+02    1.2891909790e+02
    1.1289865875e+02    1.2875408936e+02
    1.1299873352e+02    1.2858911133e+02
    1.1309867096e+02    1.2842210388e+02
    1.1319876862e+02    1.2825509644e+02
    1.1329865265e+02    1.2808810425e+02
    1.1339866638e+02    1.2792009735e+02
    1.1349880219e+02    1.2775109863e+02
    1.1359867096e+02    1.2758209991e+02
    1.1369869995e+02    1.2741210175e+02
    1.1379865265e+02    1.2724210358e+02
    1.1389875793e+02    1.2707009888e+02
    1.1399877167e+02    1.2689810181e+02
    1.1409873962e+02    1.2672609711e+02
    1.1419869232e+02    1.2655310059e+02
    1.1429866028e+02    1.2637909698e+02
    1.1439868927e+02    1.2620410156e+02
    1.1449877167e+02    1.2602909851e+02
    1.1459867859e+02    1.2585410309e+02
    1.1469879150e+02    1.2567710114e+02
    1.1479863739e+02    1.2550009918e+02
    1.1489871979e+02    1.2532209778e+02
    1.1499873352e+02    1.2514410400e+02
    1.1509864044e+02    1.2496510315e+02
    1.1519879913e+02    1.2478510284e+02
    1.1529866028e+02    1.2460410309e+02
    1.1539878845e+02    1.2442310333e+02
    1.1549864960e+02    1.2424110413e+02
    1.1559868622e+02    1.2405909729e+02
    1.1569876862e+02    1.2387609863e+02
    1.1579872894e+02    1.2369210052e+02
    1.1589878082e+02    1.2350810242e+02
    1.1599871826e+02    1.2332309723e+02
    1.1609871674e+02    1.2313710022e+02
    1.1619872284e+02    1.2295110321e+02
    1.1629871368e+02    1.2276409912e+02
    1.1639862061e+02    1.2257710266e+02
    1.1649859619e+02    1.2238909912e+02
    1.1659864807e+02    1.2220010376e+02
    1.1669869995e+02    1.2201010132e+02
    1.1679871368e+02    1.2182009888e+02
    1.1689866638e+02    1.2163010406e+02
    1.1699861145e+02    1.2143910217e+02
    1.1709877777e+02    1.2124710083e+02
    1.1719860840e+02    1.2105509949e+02
    1.1729866028e+02    1.2086209869e+02
    1.1739865875e+02    1.2066809845e+02
    1.1749868011e+02    1.2047409821e+02
    1.1759870148e+02    1.2027909851e+02
    1.1769872284e+02    1.2008409882e+02
    1.1779862213e+02    1.1988809967e+02
    1.1789862061e+02    1.1969110107e+02
    1.1799871063e+02    1.1949410248e+02
    1.1809870911e+02    1.1929609680e+02
    1.1819860077e+02    1.1909809875e+02
    1.1829857635e+02    1.1889920044e+02
    1.1839868927e+02    1.1869930267e+02
    1.1849871826e+02    1.1849900055e+02
    1.1859864807e+02    1.1829830170e+02
    1.1869872284e+02    1.1809660339e+02
    1.1879872894e+02    1.1789450073e+02
    1.1889864349e+02    1.1769200134e+02
    1.1899858856e+02    1.1748870087e+02
    1.1909860992e+02    1.1728469849e+02
    1.1919872284e+02    1.1707990265e+02
    1.1929871368e+02    1.1687480164e+02
    1.1939868927e+02    1.1666899872e+02
    1.1949868011e+02    1.1646260071e+02
    1.1959871674e+02    1.1625550079e+02
    1.1969862366e+02    1.1604800415e+02
    1.1979859924e+02    1.1583979797e+02
    1.1989872742e+02    1.1563059998e+02
    1.1999868774e+02    1.1542120361e+02
    1.2009866333e+02    1.1521119690e+02
    1.2019872284e+02    1.1500029755e+02
    1.2029871368e+02    1.1478890228e+02
    1.2039859009e+02    1.1457720184e+02
    1.2049855042e+02    1.1436470032e+02
    1.2059867096e+02    1.1415119934e+02
    1.2069860077e+02    1.1393759918e+02
    1.2079862976e+02    1.1372309875e+02
    1.2089871216e+02    1.1350779724e+02
    1.2099858856e+02    1.1329240417e+02
    1.2109860992e+02    1.1307600403e+02
    1.2119866943e+02    1.1285900116e+02
    1.2129872131e+02    1.1264130402e+02
    1.2139868164e+02    1.1242320251e+02
    1.2149858093e+02    1.1220469666e+02
    1.2159866333e+02    1.1198509979e+02
    1.2169863892e+02    1.1176509857e+02
    1.2179853821e+02    1.1154470062e+02
    1.2189855194e+02    1.1132340240e+02
    1.2199861145e+02    1.1110150146e+02
    1.2209863281e+02    1.1087899780e+02
    1.2219857025e+02    1.1065609741e+02
    1.2229857635e+02    1.1043240356e+02
    1.2239852905e+02    1.1020829773e+02
    1.2249851990e+02    1.0998349762e+02
    1.2259855652e+02    1.0975800323e+02
    1.2269854736e+02    1.0953199768e+02
    1.2279866791e+02    1.0930519867e+02
    1.2289853668e+02    1.0907830048e+02
    1.2299852753e+02    1.0885060120e+02
    1.2309864044e+02    1.0862210083e+02
    1.2319860840e+02    1.0839330292e+02
    1.2329862213e+02    1.0816390228e+02
    1.2339853668e+02    1.0793409729e+02
    1.2349858093e+02    1.0770349884e+02
    1.2359858704e+02    1.0747239685e+02
    1.2369866943e+02    1.0724050140e+02
    1.2379862976e+02    1.0700839996e+02
    1.2389856720e+02    1.0677580261e+02
    1.2399858093e+02    1.0654250336e+02
    1.2409866333e+02    1.0630840302e+02
    1.2419860840e+02    1.0607409668e+02
    1.2429853058e+02    1.0583930206e+02
    1.2439864349e+02    1.0560350037e+02
    1.2449859619e+02    1.0536750031e+02
    1.2459851074e+02    1.0513110352e+02
    1.2469851685e+02    1.0489389801e+02
    1.2479850769e+02    1.0465620422e+02
    1.2489859009e+02    1.0441770172e+02
    1.2499849701e+02    1.0417900085e+02
    1.2509860229e+02    1.0393939972e+02
    1.2519863892e+02    1.0369930267e+02
    1.2529862213e+02    1.0345880127e+02
    1.2539853668e+02    1.0321780396e+02
    1.2549862671e+02    1.0297589874e+02
    1.2559851837e+02    1.0273390198e+02
    1.2569854736e+02    1.0249099731e+02
    1.2579862213e+02    1.0224739838e+02
    1.2589849854e+02    1.0200370026e+02
    1.2599858856e+02    1.0175900269e+02
    1.2609848785e+02    1.0151409912e+02
    1.2619850159e+02    1.0126850128e+02
    1.2629852295e+02    1.0102220154e+02
    1.2639851379e+02    1.0077539825e+02
    1.2649845886e+02    1.0052819824e+02
    1.2659848022e+02    1.0028030396e+02
    1.2669848633e+02    1.0003179932e+02
    1.2679846954e+02    9.9782897949e+01
    1.2689853668e+02    9.9533203125e+01
    1.2699855042e+02    9.9283103943e+01
    1.2709844971e+02    9.9032798767e+01
    1.2719851685e+02    9.8781501770e+01
    1.2729850769e+02    9.8529899597e+01
    1.2739862061e+02    9.8277397156e+01
    1.2749845886e+02    9.8025100708e+01
    1.2759851074e+02    9.7771797180e+01
    1.2769847870e+02    9.7518096924e+01
    1.2779855347e+02    9.7263603210e+01
    1.2789843750e+02    9.7009101868e+01
    1.2799859619e+02    9.6753402710e+01
    1.2809854126e+02    9.6497703552e+01
    1.2819854736e+02    9.6241401672e+01
    1.2829861450e+02    9.5984298706e+01
    1.2839848328e+02    9.5727203369e+01
    1.2849851990e+02    9.5469200134e+01
    1.2859858704e+02    9.5210700989e+01
    1.2869854736e+02    9.4951797485e+01
    1.2879850769e+02    9.4692604065e+01
    1.2889848328e+02    9.4432701111e+01
    1.2899859619e+02    9.4171997070e+01
    1.2909861755e+02    9.3911102295e+01
    1.2919865417e+02    9.3649703979e+01
    1.2929861450e+02    9.3387901306e+01
    1.2939854431e+02    9.3125801086e+01
    1.2949856567e+02    9.2862998962e+01
    1.2959852600e+02    9.2599899292e+01
    1.2969854736e+02    9.2336196899e+01
    1.2979861450e+02    9.2071800232e+01
    1.2989862061e+02    9.1807296753e+01
    1.2999862671e+02    9.1542297363e+01
    1.3009857178e+02    9.1276901245e+01
    1.3019856262e+02    9.1011001587e+01
    1.3029859924e+02    9.0744598389e+01
    1.3039862061e+02    9.0477699280e+01
    1.3049862671e+02    9.0210502625e+01
    1.3059872437e+02    8.9942497253e+01
    1.3069868469e+02    8.9674499512e+01
    1.3079864502e+02    8.9405998230e+01
    1.3089874268e+02    8.9136703491e+01
    1.3099867249e+02    8.8867401123e+01
    1.3109870911e+02    8.8597396851e+01
    1.3119865417e+02    8.8327201843e+01
    1.3129862976e+02    8.8056503296e+01
    1.3139872742e+02    8.7785003662e+01
    1.3149865723e+02    8.7513504028e+01
    1.3159881592e+02    8.7240898132e+01
    1.3169877625e+02    8.6968498230e+01
    1.3179869080e+02    8.6695701599e+01
    1.3189869690e+02    8.6422203064e+01
    1.3199884033e+02    8.6147903442e+01
    1.3209869385e+02    8.5873901367e+01
    1.3219866943e+02    8.5599197388e+01
    1.3229870605e+02    8.5323898315e+01
    1.3239877319e+02    8.5048004150e+01
    1.3249870300e+02    8.4772003174e+01
    1.3259886169e+02    8.4495002747e+01
    1.3269877625e+02    8.4218200684e+01
    1.3279888916e+02    8.3940399170e+01
    1.3289877319e+02    8.3662803650e+01
    1.3299880981e+02    8.3384399414e+01
    1.3309873962e+02    8.3105796814e+01
    1.3319883728e+02    8.2826400757e+01
    1.3329873657e+02    8.2546997070e+01
    1.3339884949e+02    8.2266700745e+01
    1.3349890137e+02    8.1986099243e+01
    1.3359892273e+02    8.1705200195e+01
    1.3369883728e+02    8.1424201965e+01
    1.3379876709e+02    8.1142700195e+01
    1.3389894104e+02    8.0860198975e+01
    1.3399890137e+02    8.0577804565e+01
    1.3409895325e+02    8.0294799805e+01
    1.3419897461e+02    8.0011505127e+01
    1.3429893494e+02    7.9727905273e+01
    1.3439895630e+02    7.9443801880e+01
    1.3449882507e+02    7.9159698486e+01
    1.3459883118e+02    7.8874900818e+01
    1.3469898987e+02    7.8589202881e+01
    1.3479901123e+02    7.8303497314e+01
    1.3489898682e+02    7.8017601013e+01
    1.3499893188e+02    7.7731300354e+01
    1.3509899902e+02    7.7444396973e+01
    1.3519885254e+02    7.7157600403e+01
    1.3529899597e+02    7.6869705200e+01
    1.3539895630e+02    7.6581901550e+01
    1.3549903870e+02    7.6293395996e+01
    1.3559906006e+02    7.6004699707e+01
    1.3569892883e+02    7.5716094971e+01
    1.3579901123e+02    7.5426498413e+01
    1.3589900208e+02    7.5136795044e+01
    1.3599908447e+02    7.4846298218e+01
    1.3609892273e+02    7.4555801392e+01
    1.3619903564e+02    7.4263900757e+01
    1.3629895020e+02    7.3971603394e+01
    1.3639907837e+02    7.3677902222e+01
    1.3649902344e+02    7.3383697510e+01
    1.3659904480e+02    7.3088401794e+01
    1.3669900513e+02    7.2792404175e+01
    1.3679905701e+02    7.2495498657e+01
    1.3689906311e+02    7.2197898865e+01
    1.3699899292e+02    7.1900199890e+01
    1.3709907532e+02    7.1601501465e+01
    1.3719898987e+02    7.1302902222e+01
    1.3729904175e+02    7.1003501892e+01
    1.3739909363e+02    7.0703704834e+01
    1.3749917603e+02    7.0403503418e+01
    1.3759913635e+02    7.0103195190e+01
    1.3769911194e+02    6.9802505493e+01
    1.3779913330e+02    6.9501296997e+01
    1.3789909363e+02    6.9199996948e+01
    1.3799917603e+02    6.8897903442e+01
    1.3809916687e+02    6.8595802307e+01
    1.3819909668e+02    6.8293502808e+01
    1.3829910278e+02    6.7990600586e+01
    1.3839909363e+02    6.7687500000e+01
    1.3849923706e+02    6.7383605957e+01
    1.3859909058e+02    6.7080200195e+01
    1.3869908142e+02    6.6776100159e+01
    1.3879922485e+02    6.6471199036e+01
    1.3889916992e+02    6.6166595459e+01
    1.3899926758e+02    6.5861297607e+01
    1.3909913635e+02    6.5556304932e+01
    1.3919914246e+02    6.5250701904e+01
    1.3929924011e+02    6.4944595337e+01
    1.3939913940e+02    6.4638702393e+01
    1.3949916077e+02    6.4332199097e+01
    1.3959915161e+02    6.4025604248e+01
    1.3969920349e+02    6.3718502045e+01
    1.3979914856e+02    6.3411499023e+01
    1.3989924622e+02    6.3103801727e+01
    1.3999929810e+02    6.2795902252e+01
    1.4009918213e+02    6.2488399506e+01
    1.4019918823e+02    6.2180198669e+01
    1.4029931641e+02    6.1871501923e+01
    1.4039929199e+02    6.1562999725e+01
    1.4049920654e+02    6.1254402161e+01
    1.4059930420e+02    6.0945098877e+01
    1.4069924927e+02    6.0636001587e+01
    1.4079920959e+02    6.0326599121e+01
    1.4089924622e+02    6.0016899109e+01
    1.4099935913e+02    5.9706699371e+01
    1.4109933472e+02    5.9396800995e+01
    1.4119935608e+02    5.9086601257e+01
    1.4129934692e+02    5.8776302338e+01
    1.4139926147e+02    5.8465999603e+01
    1.4149926758e+02    5.8155300140e+01
    1.4159938049e+02    5.7844100952e+01
    1.4169943237e+02    5.7532901764e+01
    1.4179934692e+02    5.7222000122e+01
    1.4189941406e+02    5.6910400391e+01
    1.4199931335e+02    5.6599300385e+01
    1.4209942627e+02    5.6287300110e+01
    1.4219943237e+02    5.5975601196e+01
    1.4229934692e+02    5.5664001465e+01
    1.4239939880e+02    5.5351799011e+01
    1.4249934387e+02    5.5039901733e+01
    1.4259938049e+02    5.4727600098e+01
    1.4269940186e+02    5.4415199280e+01
    1.4279948425e+02    5.4102401733e+01
    1.4289944458e+02    5.3790000916e+01
    1.4299946594e+02    5.3477199554e+01
    1.4309950256e+02    5.3164199829e+01
    1.4319938660e+02    5.2851600647e+01
    1.4329937744e+02    5.2538398743e+01
    1.4339939880e+02    5.2225002289e+01
    1.4349942017e+02    5.1911499023e+01
    1.4359954834e+02    5.1597301483e+01
    1.4369940186e+02    5.1283901215e+01
    1.4379951477e+02    5.0969402313e+01
    1.4389950562e+02    5.0655097961e+01
    1.4399957275e+02    5.0340301514e+01
    1.4409950256e+02    5.0025699615e+01
    1.4419960022e+02    4.9710399628e+01
    1.4429951477e+02    4.9395500183e+01
    1.4439947510e+02    4.9080200195e+01
    1.4449949646e+02    4.8764499664e+01
    1.4459956360e+02    4.8448501587e+01
    1.4469958496e+02    4.8132499695e+01
    1.4479957581e+02    4.7816398621e+01
    1.4489961243e+02    4.7500099182e+01
    1.4499952698e+02    4.7183998108e+01
    1.4509956360e+02    4.6867099762e+01
    1.4519961548e+02    4.6549800873e+01
    1.4529957581e+02    4.6232200623e+01
    1.4539952087e+02    4.5914001465e+01
    1.4549949646e+02    4.5594902039e+01
    1.4559967041e+02    4.5274299622e+01
    1.4569952393e+02    4.4953903198e+01
    1.4579960632e+02    4.4631900787e+01
    1.4589956665e+02    4.4309700012e+01
    1.4599961853e+02    4.3986602783e+01
    1.4609956360e+02    4.3663398743e+01
    1.4619961548e+02    4.3339797974e+01
    1.4629963684e+02    4.3016098022e+01
    1.4639955139e+02    4.2692501068e+01
    1.4649958801e+02    4.2368400574e+01
    1.4659968567e+02    4.2043998718e+01
    1.4669967651e+02    4.1719902039e+01
    1.4679960632e+02    4.1395900726e+01
    1.4689964294e+02    4.1071502686e+01
    1.4699961853e+02    4.0747200012e+01
    1.4709973145e+02    4.0422401428e+01
    1.4719960022e+02    4.0098300934e+01
    1.4729972839e+02    3.9773399353e+01
    1.4739967346e+02    3.9449001312e+01
    1.4749961853e+02    3.9124500275e+01
    1.4759976196e+02    3.8799499512e+01
    1.4769970703e+02    3.8475097656e+01
    1.4779972839e+02    3.8150398254e+01
    1.4789976501e+02    3.7825698853e+01
    1.4799981689e+02    3.7500900269e+01
    1.4809980774e+02    3.7176399231e+01
    1.4819975281e+02    3.6852001190e+01
    1.4829966736e+02    3.6527801514e+01
    1.4839968872e+02    3.6203201294e+01
    1.4849969482e+02    3.5878799438e+01
    1.4859971619e+02    3.5554401398e+01
    1.4869979858e+02    3.5229801178e+01
    1.4879983521e+02    3.4905399323e+01
    1.4889974976e+02    3.4581401825e+01
    1.4899981689e+02    3.4257099152e+01
    1.4909974670e+02    3.3933101654e+01
    1.4919981384e+02    3.3608901978e+01
    1.4929977417e+02    3.3284999847e+01
    1.4939985657e+02    3.2960800171e+01
    1.4949981689e+02    3.2636901855e+01
    1.4959985352e+02    3.2312999725e+01
    1.4969985962e+02    3.1989200592e+01
    1.4979988098e+02    3.1665401459e+01
    1.4989988708e+02    3.1341600418e+01
    1.4999978638e+02    3.1018199921e+01
    1.5009979248e+02    3.0694599152e+01
    1.5019979858e+02    3.0370899200e+01
    1.5029986572e+02    3.0047000885e+01
    1.5039991760e+02    2.9723201752e+01
    1.5049992371e+02    2.9399600983e+01
    1.5059985352e+02    2.9076200485e+01
    1.5069996643e+02    2.8752231598e+01
    1.5079981995e+02    2.8429069519e+01
    1.5089988708e+02    2.8105270386e+01
    1.5099990845e+02    2.7781581879e+01
    1.5109997559e+02    2.7457790375e+01
    1.5119999695e+02    2.7134189606e+01
    1.5129991150e+02    2.6811040878e+01
    1.5139996338e+02    2.6487501144e+01
    1.5150001526e+02    2.6164011002e+01
    1.5160003662e+02    2.5840730667e+01
    1.5170001221e+02    2.5517761230e+01
    1.5180000305e+02    2.5194839478e+01
    1.5189988708e+02    2.4872360229e+01
    1.5200003052e+02    2.4549119949e+01
    1.5210006714e+02    2.4226169586e+01
    1.5219993591e+02    2.3903600693e+01
    1.5229998779e+02    2.3580080032e+01
    1.5240005493e+02    2.3256071091e+01
    1.5249998474e+02    2.2932020187e+01
    1.5260003662e+02    2.2606941223e+01
    1.5270007324e+02    2.2281320572e+01
    1.5280009460e+02    2.1955141068e+01
    1.5289996338e+02    2.1628999710e+01
    1.5300001526e+02    2.1301980972e+01
    1.5310000610e+02    2.0974941254e+01
    1.5320004272e+02    2.0647661209e+01
    1.5330014038e+02    2.0320209503e+01
    1.5340002441e+02    1.9993511200e+01
    1.5350001526e+02    1.9666501999e+01
    1.5360006714e+02    1.9339391708e+01
    1.5370010376e+02    1.9012418747e+01
    1.5380014038e+02    1.8685689926e+01
    1.5390017700e+02    1.8359006882e+01
    1.5400004578e+02    1.8033048630e+01
    1.5410006714e+02    1.7706701279e+01
    1.5420019531e+02    1.7380279541e+01
    1.5430012512e+02    1.7054630280e+01
    1.5440011597e+02    1.6728981018e+01
    1.5450021362e+02    1.6403100967e+01
    1.5460021973e+02    1.6077810287e+01
    1.5470011902e+02    1.5753060341e+01
    1.5480015564e+02    1.5428010941e+01
    1.5490019226e+02    1.5103260040e+01
    1.5500024414e+02    1.4778670311e+01
    1.5510015869e+02    1.4454760551e+01
    1.5520024109e+02    1.4130519867e+01
    1.5530026245e+02    1.3806779861e+01
    1.5540020752e+02    1.3483500481e+01
    1.5550021362e+02    1.3160369873e+01
    1.5560014343e+02    1.2837690353e+01
    1.5570027161e+02    1.2514640808e+01
    1.5580017090e+02    1.2192630768e+01
    1.5590017700e+02    1.1870520592e+01
    1.5600016785e+02    1.1548780441e+01
    1.5610026550e+02    1.1226881027e+01
    1.5620031738e+02    1.0905490875e+01
    1.5630029297e+02    1.0584590912e+01
    1.5640028381e+02    1.0263890266e+01
    1.5650030518e+02    9.9433403015e+00
    1.5660034180e+02    9.6230602264e+00
    1.5670028687e+02    9.3033103943e+00
    1.5680027771e+02    8.9836101532e+00
    1.5690029907e+02    8.6640005112e+00
    1.5700032043e+02    8.3447008133e+00
    1.5710023499e+02    8.0259008408e+00
    1.5720025635e+02    7.7070007324e+00
    1.5730026245e+02    7.3884000778e+00
    1.5740029907e+02    7.0699005127e+00
    1.5750035095e+02    6.7516002655e+00
    1.5760026550e+02    6.4339008331e+00
    1.5770030212e+02    6.1161003113e+00
    1.5780029297e+02    5.7987003326e+00
    1.5790034485e+02    5.4814004898e+00
    1.5800030518e+02    5.1646003723e+00
    1.5810037231e+02    4.8474006653e+00
    1.5820031738e+02    4.5307006836e+00
    1.5830036926e+02    4.2135000229e+00
    1.5840034485e+02    3.8964004517e+00
    1.5850036621e+02    3.5790004730e+00
    1.5860043335e+02    3.2611007690e+00
    1.5870034790e+02    2.9435005188e+00
    1.5880039978e+02    2.6254005432e+00
    1.5890046692e+02    2.3071002960e+00
    1.5900047302e+02    1.9891014099e+00
    1.5910038757e+02    1.6716003418e+00
    1.5920039368e+02    1.3540000916e+00
    1.5930041504e+02    1.0366001129e+00
    1.5940040588e+02    7.1949958801e-01
    1.5950047302e+02    4.0240097046e-01
    1.5960047913e+02    8.5800170898e-02
    1.5970039368e+02   -2.3029899597e-01
    1.5980044556e+02   -5.4640007019e-01
    1.5990051270e+02   -8.6249923706e-01
    1.6000042725e+02   -1.1777000427e+00
    1.6010041809e+02   -1.4928989410e+00
    1.6020043945e+02   -1.8078994751e+00
    1.6030053711e+02   -2.1229000092e+00
    1.6040051270e+02   -2.4370994568e+00
    1.6050056458e+02   -2.7511997223e+00
    1.6060055542e+02   -3.0648002625e+00
    1.6070060730e+02   -3.3780994415e+00
    1.6080056763e+02   -3.6907997131e+00
    1.6090060425e+02   -4.0032997131e+00
    1.6100059509e+02   -4.3151988983e+00
    1.6110061646e+02   -4.6267986298e+00
    1.6120048523e+02   -4.9375000000e+00
    1.6130058289e+02   -5.2483997345e+00
    1.6140060425e+02   -5.5587997437e+00
    1.6150050354e+02   -5.8682003021e+00
    1.6160058594e+02   -6.1777000427e+00
    1.6170060730e+02   -6.4865989685e+00
    1.6180061340e+02   -6.7950000763e+00
    1.6190057373e+02   -7.1028003693e+00
    1.6200064087e+02   -7.4104003906e+00
    1.6210061646e+02   -7.7173995972e+00
    1.6220066833e+02   -8.0240001678e+00
    1.6230056763e+02   -8.3297004700e+00
    1.6240066528e+02   -8.6354999542e+00
    1.6250071716e+02   -8.9406986237e+00
    1.6260072327e+02   -9.2453002930e+00
    1.6270063782e+02   -9.5492000580e+00
    1.6280068970e+02   -9.8529987335e+00
    1.6290061951e+02   -1.0155899048e+01
    1.6300064087e+02   -1.0458599091e+01
    1.6310067749e+02   -1.0760999680e+01
    1.6320068359e+02   -1.1062799454e+01
    1.6330064392e+02   -1.1364299774e+01
    1.6340075684e+02   -1.1665800095e+01
    1.6350065613e+02   -1.1966699600e+01
    1.6360078430e+02   -1.2268199921e+01
    1.6370071411e+02   -1.2569000244e+01
    1.6380073547e+02   -1.2870199203e+01
    1.6390075684e+02   -1.3171501160e+01
    1.6400073242e+02   -1.3472499847e+01
    1.6410069275e+02   -1.3773498535e+01
    1.6420065308e+02   -1.4074298859e+01
    1.6430076599e+02   -1.4375301361e+01
    1.6440069580e+02   -1.4675300598e+01
    1.6450068665e+02   -1.4975200653e+01
    1.6460078430e+02   -1.5274898529e+01
    1.6470080566e+02   -1.5573799133e+01
    1.6480072021e+02   -1.5871898651e+01
    1.6490084839e+02   -1.6169998169e+01
    1.6500073242e+02   -1.6466899872e+01
    1.6510086060e+02   -1.6763900757e+01
    1.6520077515e+02   -1.7059898376e+01
    1.6530085754e+02   -1.7355697632e+01
    1.6540072632e+02   -1.7650398254e+01
    1.6550086975e+02   -1.7945198059e+01
    1.6560084534e+02   -1.8239101410e+01
    1.6570079041e+02   -1.8532299042e+01
    1.6580076599e+02   -1.8825199127e+01
    1.6590086365e+02   -1.9117900848e+01
    1.6600091553e+02   -1.9409900665e+01
    1.6610084534e+02   -1.9701099396e+01
    1.6620088196e+02   -1.9992099762e+01
    1.6630093384e+02   -2.0282600403e+01
    1.6640081787e+02   -2.0572097778e+01
    1.6650094604e+02   -2.0861801147e+01
    1.6660084534e+02   -2.1150398254e+01
    1.6670088196e+02   -2.1438800812e+01
    1.6680093384e+02   -2.1726699829e+01
    1.6690093994e+02   -2.2014099121e+01
    1.6700094604e+02   -2.2300800323e+01
    1.6710093689e+02   -2.2586898804e+01
    1.6720097351e+02   -2.2872600555e+01
    1.6730085754e+02   -2.3157199860e+01
    1.6740097046e+02   -2.3441898346e+01
    1.6750088501e+02   -2.3725399017e+01
    1.6760098267e+02   -2.4008701324e+01
    1.6770094299e+02   -2.4291000366e+01
    1.6780087280e+02   -2.4572601318e+01
    1.6790098572e+02   -2.4853900909e+01
    1.6800097656e+02   -2.5134399414e+01
    1.6810095215e+02   -2.5414299011e+01
    1.6820094299e+02   -2.5693698883e+01
    1.6830097961e+02   -2.5972900391e+01
    1.6840095520e+02   -2.6251499176e+01
    1.6850097656e+02   -2.6529800415e+01
    1.6860101318e+02   -2.6807899475e+01
    1.6870094299e+02   -2.7085399628e+01
    1.6880108643e+02   -2.7362998962e+01
    1.6890109253e+02   -2.7639801025e+01
    1.6900096130e+02   -2.7915798187e+01
    1.6910107422e+02   -2.8191898346e+01
    1.6920103455e+02   -2.8466999054e+01
    1.6930110168e+02   -2.8741699219e+01
    1.6940110779e+02   -2.9015598297e+01
    1.6950111389e+02   -2.9288799286e+01
    1.6960107422e+02   -2.9561100006e+01
    1.6970103455e+02   -2.9832698822e+01
    1.6980105591e+02   -3.0103797913e+01
    1.6990103149e+02   -3.0374000549e+01
    1.7000102234e+02   -3.0643501282e+01
    1.7010107422e+02   -3.0912597656e+01
    1.7020112610e+02   -3.1180801392e+01
    1.7030110168e+02   -3.1448200226e+01
    1.7040112305e+02   -3.1714900970e+01
    1.7050115967e+02   -3.1981098175e+01
    1.7060108948e+02   -3.2246299744e+01
    1.7070109558e+02   -3.2510997772e+01
    1.7080107117e+02   -3.2774997711e+01
    1.7090121460e+02   -3.3038799286e+01
    1.7100117493e+02   -3.3301399231e+01
    1.7110116577e+02   -3.3563499451e+01
    1.7120123291e+02   -3.3825000763e+01
    1.7130120850e+02   -3.4085597992e+01
    1.7140124512e+02   -3.4345699310e+01
    1.7150123596e+02   -3.4604999542e+01
    1.7160124207e+02   -3.4863498688e+01
    1.7170123291e+02   -3.5121299744e+01
    1.7180114746e+02   -3.5378101349e+01
    1.7190116882e+02   -3.5634399414e+01
    1.7200123596e+02   -3.5889999390e+01
    1.7210116577e+02   -3.6144500732e+01
    1.7220118713e+02   -3.6398399353e+01
    1.7230126953e+02   -3.6651699066e+01
    1.7240124512e+02   -3.6903999329e+01
    1.7250129700e+02   -3.7155799866e+01
    1.7260125732e+02   -3.7406600952e+01
    1.7270129395e+02   -3.7657100677e+01
    1.7280128479e+02   -3.7906799316e+01
    1.7290127563e+02   -3.8156101227e+01
    1.7300122070e+02   -3.8404701233e+01
    1.7310133362e+02   -3.8653301239e+01
    1.7320135498e+02   -3.8901199341e+01
    1.7330134583e+02   -3.9148498535e+01
    1.7340127563e+02   -3.9395099640e+01
    1.7350137329e+02   -3.9641498566e+01
    1.7360136414e+02   -3.9887001038e+01
    1.7370129395e+02   -4.0131698608e+01
    1.7380128479e+02   -4.0375801086e+01
    1.7390139771e+02   -4.0619400024e+01
    1.7400128174e+02   -4.0861598969e+01
    1.7410134888e+02   -4.1103298187e+01
    1.7420130920e+02   -4.1343997955e+01
    1.7430128479e+02   -4.1583801270e+01
    1.7440138245e+02   -4.1822898865e+01
    1.7450135803e+02   -4.2060897827e+01
    1.7460134888e+02   -4.2297901154e+01
    1.7470138550e+02   -4.2534099579e+01
    1.7480143738e+02   -4.2769500732e+01
    1.7490138245e+02   -4.3003601074e+01
    1.7500141907e+02   -4.3236999512e+01
    1.7510142517e+02   -4.3469398499e+01
    1.7520137024e+02   -4.3700698853e+01
    1.7530148315e+02   -4.3931499481e+01
    1.7540135193e+02   -4.4160800934e+01
    1.7550140381e+02   -4.4389598846e+01
    1.7560147095e+02   -4.4617500305e+01
    1.7570135498e+02   -4.4844200134e+01
    1.7580136108e+02   -4.5070098877e+01
    1.7590138245e+02   -4.5295196533e+01
    1.7600152588e+02   -4.5519699097e+01
    1.7610153198e+02   -4.5742996216e+01
    1.7620146179e+02   -4.5965202332e+01
    1.7630140686e+02   -4.6186500549e+01
    1.7640148926e+02   -4.6407196045e+01
    1.7650143433e+02   -4.6626701355e+01
    1.7660147095e+02   -4.6845596313e+01
    1.7670147705e+02   -4.7063301086e+01
    1.7680155945e+02   -4.7280403137e+01
    1.7690148926e+02   -4.7496200562e+01
    1.7700149536e+02   -4.7711196899e+01
    1.7710159302e+02   -4.7925498962e+01
    1.7720152283e+02   -4.8138496399e+01
    1.7730160522e+02   -4.8350997925e+01
    1.7740150452e+02   -4.8562103271e+01
    1.7750161743e+02   -4.8772895813e+01
    1.7760157776e+02   -4.8982597351e+01
    1.7770162964e+02   -4.9191696167e+01
    1.7780160522e+02   -4.9399902344e+01
    1.7790153503e+02   -4.9607299805e+01
    1.7800163269e+02   -4.9814300537e+01
    1.7810156250e+02   -5.0020301819e+01
    1.7820153809e+02   -5.0225700378e+01
    1.7830152893e+02   -5.0430297852e+01
    1.7840165710e+02   -5.0634399414e+01
    1.7850155640e+02   -5.0837303162e+01
    1.7860165405e+02   -5.1039695740e+01
    1.7870170593e+02   -5.1240997314e+01
    1.7880157471e+02   -5.1441001892e+01
    1.7890155029e+02   -5.1640296936e+01
    1.7900166321e+02   -5.1838798523e+01
    1.7910171509e+02   -5.2036201477e+01
    1.7920169067e+02   -5.2232498169e+01
    1.7930169678e+02   -5.2427803040e+01
    1.7940164185e+02   -5.2621902466e+01
    1.7950173950e+02   -5.2815399170e+01
    1.7960174561e+02   -5.3007598877e+01
    1.7970166016e+02   -5.3198699951e+01
    1.7980166626e+02   -5.3388900757e+01
    1.7990173340e+02   -5.3578201294e+01
    1.8000167847e+02   -5.3766296387e+01
    1.8010165405e+02   -5.3953399658e+01
    1.8020179749e+02   -5.4139701843e+01
    1.8030180359e+02   -5.4324798584e+01
    1.8040167236e+02   -5.4508598328e+01
    1.8050173950e+02   -5.4691596985e+01
    1.8060180664e+02   -5.4873596191e+01
    1.8070181274e+02   -5.5054298401e+01
    1.8080181885e+02   -5.5234001160e+01
    1.8090179443e+02   -5.5412498474e+01
    1.8100169373e+02   -5.5589698792e+01
    1.8110183716e+02   -5.5766296387e+01
    1.8120170593e+02   -5.5941200256e+01
    1.8130178833e+02   -5.6115402222e+01
    1.8140185547e+02   -5.6288398743e+01
    1.8150181580e+02   -5.6460197449e+01
    1.8160174561e+02   -5.6630699158e+01
    1.8170173645e+02   -5.6800399780e+01
    1.8180175781e+02   -5.6968902588e+01
    1.8190179443e+02   -5.7136398315e+01
    1.8200181580e+02   -5.7302696228e+01
    1.8210180664e+02   -5.7468002319e+01
    1.8220185852e+02   -5.7632202148e+01
    1.8230181885e+02   -5.7795196533e+01
    1.8240179443e+02   -5.7957199097e+01
    1.8250181580e+02   -5.8118103027e+01
    1.8260177612e+02   -5.8277900696e+01
    1.8270193481e+02   -5.8436897278e+01
    1.8280186462e+02   -5.8594398499e+01
    1.8290194702e+02   -5.8751098633e+01
    1.8300186157e+02   -5.8906402588e+01
    1.8310180664e+02   -5.9060600281e+01
    1.8320195007e+02   -5.9213996887e+01
    1.8330195618e+02   -5.9366096497e+01
    1.8340196228e+02   -5.9516998291e+01
    1.8350192261e+02   -5.9666702271e+01
    1.8360191345e+02   -5.9815299988e+01
    1.8370185852e+02   -5.9962699890e+01
    1.8380186462e+02   -6.0109100342e+01
    1.8390188599e+02   -6.0254402161e+01
    1.8400198364e+02   -6.0398597717e+01
    1.8410195923e+02   -6.0541702271e+01
    1.8420187378e+02   -6.0683502197e+01
    1.8430198669e+02   -6.0824600220e+01
    1.8440191650e+02   -6.0964401245e+01
    1.8450204468e+02   -6.1103500366e+01
    1.8460191345e+02   -6.1241203308e+01
    1.8470198059e+02   -6.1378097534e+01
    1.8480195618e+02   -6.1513801575e+01
    1.8490205383e+02   -6.1648696899e+01
    1.8500196838e+02   -6.1782196045e+01
    1.8510206604e+02   -6.1914901733e+01
    1.8520199585e+02   -6.2046195984e+01
    1.8530206299e+02   -6.2176597595e+01
    1.8540202332e+02   -6.2305801392e+01
    1.8550201416e+02   -6.2433898926e+01
    1.8560200500e+02   -6.2560798645e+01
    1.8570211792e+02   -6.2686698914e+01
    1.8580200195e+02   -6.2811096191e+01
    1.8590200806e+02   -6.2934600830e+01
    1.8600210571e+02   -6.3056900024e+01
    1.8610209656e+02   -6.3178001404e+01
    1.8620214844e+02   -6.3297897339e+01
    1.8630200195e+02   -6.3416397095e+01
    1.8640199280e+02   -6.3533897400e+01
    1.8650218201e+02   -6.3650299072e+01
    1.8660211182e+02   -6.3765296936e+01
    1.8670208740e+02   -6.3879096985e+01
    1.8680216980e+02   -6.3991798401e+01
    1.8690211487e+02   -6.4103202820e+01
    1.8700215149e+02   -6.4213401794e+01
    1.8710209656e+02   -6.4322402954e+01
    1.8720213318e+02   -6.4430198669e+01
    1.8730209351e+02   -6.4536697388e+01
    1.8740214539e+02   -6.4642097473e+01
    1.8750213623e+02   -6.4746200562e+01
    1.8760212708e+02   -6.4848999023e+01
    1.8770217896e+02   -6.4950599670e+01
    1.8780224609e+02   -6.5050796509e+01
    1.8790214539e+02   -6.5149597168e+01
    1.8800224304e+02   -6.5247100830e+01
    1.8810215759e+02   -6.5343002319e+01
    1.8820222473e+02   -6.5437500000e+01
    1.8830224609e+02   -6.5530296326e+01
    1.8840213013e+02   -6.5621299744e+01
    1.8850219727e+02   -6.5709800720e+01
    1.8860217285e+02   -6.5761100769e+01
    1.8870220947e+02   -6.5686897278e+01
    1.8880227661e+02   -6.5443595886e+01
    1.8890229797e+02   -6.5076698303e+01
    1.8900224304e+02   -6.4671096802e+01
    1.8910227966e+02   -6.4261695862e+01
    1.8920230103e+02   -6.3851699829e+01
    1.8930223083e+02   -6.3441101074e+01
    1.8940232849e+02   -6.3029396057e+01
    1.8950233459e+02   -6.2616401672e+01
    1.8960234070e+02   -6.2202697754e+01
    1.8970228577e+02   -6.1788497925e+01
    1.8980226135e+02   -6.1374198914e+01
    1.8990228271e+02   -6.0958999634e+01
    1.9000236511e+02   -6.0543395996e+01
    1.9010238647e+02   -6.0128295898e+01
    1.9020228577e+02   -5.9713996887e+01
    1.9030224609e+02   -5.9299301147e+01
    1.9040229797e+02   -5.8884002686e+01
    1.9050227356e+02   -5.8468597412e+01
    1.9060237122e+02   -5.8052299500e+01
    1.9070231628e+02   -5.7635498047e+01
    1.9080239868e+02   -5.7217201233e+01
    1.9090240479e+02   -5.6798301697e+01
    1.9100230408e+02   -5.6379096985e+01
    1.9110229492e+02   -5.5958198547e+01
    1.9120236206e+02   -5.5535797119e+01
    1.9130241394e+02   -5.5112602234e+01
    1.9140231323e+02   -5.4689002991e+01
    1.9150231934e+02   -5.4263801575e+01
    1.9160246277e+02   -5.3836502075e+01
    1.9170243835e+02   -5.3409095764e+01
    1.9180247498e+02   -5.2980400085e+01
    1.9190240479e+02   -5.2551101685e+01
    1.9200241089e+02   -5.2119895935e+01
    1.9210243225e+02   -5.1687698364e+01
    1.9220236206e+02   -5.1254898071e+01
    1.9230241394e+02   -5.0820297241e+01
    1.9240243530e+02   -5.0384498596e+01
    1.9250239563e+02   -4.9947799683e+01
    1.9260250854e+02   -4.9509498596e+01
    1.9270251465e+02   -4.9070297241e+01
    1.9280255127e+02   -4.8629699707e+01
    1.9290252686e+02   -4.8188102722e+01
    1.9300244141e+02   -4.7745597839e+01
    1.9310252380e+02   -4.7301200867e+01
    1.9320242310e+02   -4.6856300354e+01
    1.9330241394e+02   -4.6409599304e+01
    1.9340249634e+02   -4.5961402893e+01
    1.9350253296e+02   -4.5512199402e+01
    1.9360252380e+02   -4.5061897278e+01
    1.9370257568e+02   -4.4610099792e+01
    1.9380247498e+02   -4.4157897949e+01
    1.9390254211e+02   -4.3703998566e+01
    1.9400256348e+02   -4.3249000549e+01
    1.9410253906e+02   -4.2793098450e+01
    1.9420251465e+02   -4.2335998535e+01
    1.9430262756e+02   -4.1877597809e+01
    1.9440254211e+02   -4.1418701172e+01
    1.9450253296e+02   -4.0958099365e+01
    1.9460255432e+02   -4.0495800018e+01
    1.9470260620e+02   -4.0031997681e+01
    1.9480249023e+02   -3.9567199707e+01
    1.9490252686e+02   -3.9099998474e+01
    1.9500253296e+02   -3.8631198883e+01
    1.9510269165e+02   -3.8160301208e+01
    1.9520266724e+02   -3.7688999176e+01
    1.9530255127e+02   -3.7216899872e+01
    1.9540261841e+02   -3.6743000031e+01
    1.9550263977e+02   -3.6268501282e+01
    1.9560252380e+02   -3.5793701172e+01
    1.9570260620e+02   -3.5317001343e+01
    1.9580264282e+02   -3.4839900970e+01
    1.9590274048e+02   -3.4361801147e+01
    1.9600263977e+02   -3.3884098053e+01
    1.9610273743e+02   -3.3404701233e+01
    1.9620263672e+02   -3.2925598145e+01
    1.9630262756e+02   -3.2445598602e+01
    1.9640277100e+02   -3.1964298248e+01
    1.9650268555e+02   -3.1483398438e+01
    1.9660267639e+02   -3.1001300812e+01
    1.9670268250e+02   -3.0518699646e+01
    1.9680267334e+02   -3.0035099030e+01
    1.9690272522e+02   -2.9550498962e+01
    1.9700280762e+02   -2.9064800262e+01
    1.9710264587e+02   -2.8579498291e+01
    1.9720280457e+02   -2.8091697693e+01
    1.9730274963e+02   -2.7604198456e+01
    1.9740269470e+02   -2.7115699768e+01
    1.9750280762e+02   -2.6625801086e+01
    1.9760270691e+02   -2.6136100769e+01
    1.9770280457e+02   -2.5644699097e+01
    1.9780274963e+02   -2.5153400421e+01
    1.9790284729e+02   -2.4660598755e+01
    1.9800285339e+02   -2.4167697906e+01
    1.9810284424e+02   -2.3674098969e+01
    1.9820272827e+02   -2.3180297852e+01
    1.9830285645e+02   -2.2684700012e+01
    1.9840287781e+02   -2.2188697815e+01
    1.9850286865e+02   -2.1692298889e+01
    1.9860273743e+02   -2.1195999146e+01
    1.9870274353e+02   -2.0699001312e+01
    1.9880279541e+02   -2.0202098846e+01
    1.9890289307e+02   -1.9705200195e+01
    1.9900289917e+02   -1.9209300995e+01
    1.9910293579e+02   -1.8713798523e+01
    1.9920286560e+02   -1.8219200134e+01
    1.9930294800e+02   -1.7723800659e+01
    1.9940289307e+02   -1.7229000092e+01
    1.9950279236e+02   -1.6734001160e+01
    1.9960281372e+02   -1.6237899780e+01
    1.9970286560e+02   -1.5741298676e+01
    1.9980285645e+02   -1.5244400024e+01
    1.9990289307e+02   -1.4746997833e+01
endcurve
