Curveplot
LS-DYNA keyword deck by LS-PrePost
Z-displ
Resultant Force
Mat/Node Ids
1 #pts=1000
* Minval=    -5.9011191130e-02 at time=        -0.0000398777
* Maxval=     3.2577633667e+02 at time=        19.9939002991
   -3.9877704694e-05   -5.9011191130e-02
   -5.0256083341e-05   -4.1130945086e-02
   -6.1133563577e-05   -1.5676181763e-02
   -7.2090777394e-05    1.8399629742e-02
   -8.2575519627e-05    6.2119636685e-02
   -9.1888279712e-05    1.1645840853e-01
   -9.9169083114e-05    1.8230728805e-01
   -1.0338572611e-04    2.6045021415e-01
   -1.0332412057e-04    3.5157495737e-01
   -9.7603377071e-05    4.5608296990e-01
   -8.4592975327e-05    5.7491558790e-01
   -6.2502054789e-05    7.0832377672e-01
   -2.9325527066e-05    8.5666221380e-01
    1.7148111510e-05    1.0201950073e+00
    7.9337107309e-05    1.1991180182e+00
    1.5986373182e-04    1.3935537338e+00
    2.6155626983e-04    1.6035478115e+00
    3.8744148333e-04    1.8289592266e+00
    5.4043013370e-04    2.0691747665e+00
    7.2453566827e-04    2.3247780800e+00
    9.4310892746e-04    2.5949945450e+00
    1.1999539565e-03    2.8794333935e+00
    1.4990703203e-03    3.1777093410e+00
    1.8446278991e-03    3.4894871712e+00
    2.2409893572e-03    3.8145296574e+00
    2.6926530991e-03    4.1525263786e+00
    3.2033454627e-03    4.5026922226e+00
    3.7798155099e-03    4.8660402298e+00
    4.4261883013e-03    5.2417435646e+00
    5.1476452500e-03    5.6296038628e+00
    5.9495316818e-03    6.0294761658e+00
    6.8373205140e-03    6.4411153793e+00
    7.8166536987e-03    6.8644185066e+00
    8.8932467625e-03    7.2992544174e+00
    1.0070889257e-02    7.7448072433e+00
    1.1359864846e-02    8.2026062012e+00
    1.2764319777e-02    8.6717357635e+00
    1.4290560037e-02    9.1521883011e+00
    1.5945032239e-02    9.6439323425e+00
    1.7734305933e-02    1.0146797180e+01
    1.9665062428e-02    1.0660730362e+01
    2.1743942052e-02    1.1185573578e+01
    2.3974010721e-02    1.1720121384e+01
    2.6370190084e-02    1.2265952110e+01
    2.8935667127e-02    1.2821825981e+01
    3.1677637249e-02    1.3387472153e+01
    3.4603454173e-02    1.3962503433e+01
    3.7720482796e-02    1.4546766281e+01
    4.1036199778e-02    1.5139928818e+01
    4.4557809830e-02    1.5741831779e+01
    4.8286821693e-02    1.6351446152e+01
    5.2243735641e-02    1.6970602036e+01
    5.6429918855e-02    1.7598241806e+01
    6.0853216797e-02    1.8234384537e+01
    6.5521448851e-02    1.8878910065e+01
    7.0442564785e-02    1.9531921387e+01
    7.5623936951e-02    2.0193197250e+01
    8.1064812839e-02    2.0861816406e+01
    8.6791791022e-02    2.1539867401e+01
    9.2803657055e-02    2.2226352692e+01
    9.9108397961e-02    2.2921207428e+01
    1.0571425408e-01    2.3624666214e+01
    1.1262922734e-01    2.4336761475e+01
    1.1986057460e-01    2.5057399750e+01
    1.2740476429e-01    2.5785600662e+01
    1.3529527187e-01    2.6523519516e+01
    1.4352737367e-01    2.7269933701e+01
    1.5210898221e-01    2.8024559021e+01
    1.6104839742e-01    2.8787014008e+01
    1.7035350204e-01    2.9557012558e+01
    1.8003106117e-01    3.0333902359e+01
    1.9007399678e-01    3.1115953445e+01
    2.0052354038e-01    3.1905229568e+01
    2.1137057245e-01    3.2699676514e+01
    2.2262315452e-01    3.3498531342e+01
    2.3428894579e-01    3.4301280975e+01
    2.4637579918e-01    3.5107189178e+01
    2.5888949633e-01    3.5915508270e+01
    2.7181890607e-01    3.6724494934e+01
    2.8521379828e-01    3.7536396027e+01
    2.9906001687e-01    3.8349403381e+01
    3.1336501241e-01    3.9163219452e+01
    3.2813599706e-01    3.9977642059e+01
    3.4337764978e-01    4.0792400360e+01
    3.5907506943e-01    4.1606216431e+01
    3.7528589368e-01    4.2421741486e+01
    3.9199084044e-01    4.3237583160e+01
    4.0919670463e-01    4.4053894043e+01
    4.2691031098e-01    4.4870895386e+01
    4.4513499737e-01    4.5688655853e+01
    4.6385106444e-01    4.6506233215e+01
    4.8312538862e-01    4.7326278687e+01
    5.0293236971e-01    4.8147495270e+01
    5.2327859402e-01    4.8969898224e+01
    5.4416978359e-01    4.9793487549e+01
    5.6560784578e-01    5.0618133545e+01
    5.8756917715e-01    5.1442878723e+01
    6.1012816429e-01    5.2270462036e+01
    6.3325440884e-01    5.3099796295e+01
    6.5695297718e-01    5.3931049347e+01
    6.8122851849e-01    5.4764099121e+01
    7.0608115196e-01    5.5599945068e+01
    7.3148339987e-01    5.6435997009e+01
    7.5751805305e-01    5.7276481628e+01
    7.8414827585e-01    5.8118453979e+01
    8.1137847900e-01    5.8962608337e+01
    8.3921462297e-01    5.9809223175e+01
    8.6765044928e-01    6.0656307220e+01
    8.9665532112e-01    6.1503158569e+01
    9.2632144690e-01    6.2352828979e+01
    9.5660543442e-01    6.3201969147e+01
    9.8751038313e-01    6.4051040649e+01
    1.0190395117e+00    6.4900253296e+01
    1.0511908531e+00    6.5747695923e+01
    1.0839219093e+00    6.6592796326e+01
    1.1173365116e+00    6.7438507080e+01
    1.1513843536e+00    6.8281440735e+01
    1.1860675812e+00    6.9121803284e+01
    1.2213797569e+00    6.9959365845e+01
    1.2572808266e+00    7.0791297913e+01
    1.2938810587e+00    7.1621192932e+01
    1.3311189413e+00    7.2445838928e+01
    1.3689986467e+00    7.3265655518e+01
    1.4075207710e+00    7.4080757141e+01
    1.4466767311e+00    7.4889312744e+01
    1.4864219427e+00    7.5690971375e+01
    1.5268762112e+00    7.6488967896e+01
    1.5679638386e+00    7.7280799866e+01
    1.6096611023e+00    7.8067260742e+01
    1.6520479918e+00    7.8850456238e+01
    1.6950286627e+00    7.9628471375e+01
    1.7386870384e+00    8.0404190063e+01
    1.7829856873e+00    8.1176170349e+01
    1.8279260397e+00    8.1945556641e+01
    1.8734745979e+00    8.2712753296e+01
    1.9196579456e+00    8.3478118896e+01
    1.9664803743e+00    8.4242065430e+01
    2.0139496326e+00    8.5005065918e+01
    2.0620472431e+00    8.5767692566e+01
    2.1107685566e+00    8.6530754089e+01
    2.1600985527e+00    8.7293098450e+01
    2.2100439072e+00    8.8055084229e+01
    2.2606134415e+00    8.8818008423e+01
    2.3117256165e+00    8.9578926086e+01
    2.3635330200e+00    9.0340667725e+01
    2.4159564972e+00    9.1102050781e+01
    2.4689793587e+00    9.1861755371e+01
    2.5225610733e+00    9.2618438721e+01
    2.5767693520e+00    9.3373710632e+01
    2.6315579414e+00    9.4126998901e+01
    2.6868853569e+00    9.4876464844e+01
    2.7428505421e+00    9.5623703003e+01
    2.7993924618e+00    9.6367889404e+01
    2.8564889431e+00    9.7108932495e+01
    2.9140818119e+00    9.7844909668e+01
    2.9723486900e+00    9.8578994751e+01
    3.0310883522e+00    9.9308609009e+01
    3.0904703140e+00    1.0003596497e+02
    3.1502611637e+00    1.0075733948e+02
    3.2106583118e+00    1.0147622681e+02
    3.2716078758e+00    1.0219163513e+02
    3.3330879211e+00    1.0290398407e+02
    3.3950865269e+00    1.0361389160e+02
    3.4575977325e+00    1.0432032776e+02
    3.5206148624e+00    1.0502389526e+02
    3.5841102600e+00    1.0572446442e+02
    3.6480112076e+00    1.0642002106e+02
    3.7125003338e+00    1.0711309814e+02
    3.7774500847e+00    1.0780244446e+02
    3.8428914547e+00    1.0848814392e+02
    3.9087917805e+00    1.0917058563e+02
    3.9751555920e+00    1.0984876251e+02
    4.0419692993e+00    1.1052330017e+02
    4.1092243195e+00    1.1119439697e+02
    4.1768870354e+00    1.1186233521e+02
    4.2448954582e+00    1.1252580261e+02
    4.3134260178e+00    1.1318797302e+02
    4.3823733330e+00    1.1384889984e+02
    4.4517107010e+00    1.1450860596e+02
    4.5214033127e+00    1.1516886902e+02
    4.5915646553e+00    1.1583264923e+02
    4.6619901657e+00    1.1650036621e+02
    4.7328705788e+00    1.1717625427e+02
    4.8041062355e+00    1.1786281586e+02
    4.8756504059e+00    1.1856356049e+02
    4.9475965500e+00    1.1928237152e+02
    5.0198779106e+00    1.2002346802e+02
    5.0924577713e+00    1.2079119873e+02
    5.1654009819e+00    1.2158977509e+02
    5.2386541367e+00    1.2242330933e+02
    5.3122177124e+00    1.2329557037e+02
    5.3860774040e+00    1.2420770264e+02
    5.4602332115e+00    1.2516153717e+02
    5.5346660614e+00    1.2615665436e+02
    5.6093463898e+00    1.2719029236e+02
    5.6842036247e+00    1.2825451660e+02
    5.7594223022e+00    1.2934478760e+02
    5.8349232674e+00    1.3044749451e+02
    5.9106583595e+00    1.3154734802e+02
    5.9866218567e+00    1.3262683105e+02
    6.0627942085e+00    1.3366690063e+02
    6.1391253471e+00    1.3465562439e+02
    6.2157487869e+00    1.3558906555e+02
    6.2925763130e+00    1.3646765137e+02
    6.3696012497e+00    1.3729797363e+02
    6.4468126297e+00    1.3809043884e+02
    6.5241689682e+00    1.3885643005e+02
    6.6016988754e+00    1.3961033630e+02
    6.6794972420e+00    1.4036770630e+02
    6.7573933601e+00    1.4114051819e+02
    6.8354420662e+00    1.4194155884e+02
    6.9136018753e+00    1.4278054810e+02
    6.9918193817e+00    1.4366418457e+02
    7.0702862740e+00    1.4459724426e+02
    7.1488795280e+00    1.4557882690e+02
    7.2275800705e+00    1.4660539246e+02
    7.3063578606e+00    1.4767175293e+02
    7.3852810860e+00    1.4877268982e+02
    7.4643306732e+00    1.4990368652e+02
    7.5434594154e+00    1.5105987549e+02
    7.6226820946e+00    1.5223260498e+02
    7.7019829750e+00    1.5341302490e+02
    7.7813596725e+00    1.5458909607e+02
    7.8607892990e+00    1.5574801636e+02
    7.9402480125e+00    1.5687908936e+02
    8.0198316574e+00    1.5797653198e+02
    8.0994634628e+00    1.5904023743e+02
    8.1791286469e+00    1.6007414246e+02
    8.2588481903e+00    1.6108428955e+02
    8.3385620117e+00    1.6207879639e+02
    8.4184417725e+00    1.6306932068e+02
    8.4983148575e+00    1.6406430054e+02
    8.5781688690e+00    1.6507478333e+02
    8.6581249237e+00    1.6611174011e+02
    8.7380027771e+00    1.6718116760e+02
    8.8179798126e+00    1.6829130554e+02
    8.8979377747e+00    1.6944299316e+02
    8.9780025482e+00    1.7063951111e+02
    9.0580148697e+00    1.7187646484e+02
    9.1380310059e+00    1.7315126038e+02
    9.2180643082e+00    1.7446000671e+02
    9.2981214523e+00    1.7579888916e+02
    9.3781194687e+00    1.7716317749e+02
    9.4581127167e+00    1.7854655457e+02
    9.5381383896e+00    1.7994265747e+02
    9.6182060242e+00    1.8134031677e+02
    9.6982269287e+00    1.8272813416e+02
    9.7782287598e+00    1.8409510803e+02
    9.8582506180e+00    1.8543255615e+02
    9.9382705688e+00    1.8673548889e+02
    1.0018317223e+01    1.8800222778e+02
    1.0098367691e+01    1.8923362732e+02
    1.0178425789e+01    1.9043177795e+02
    1.0258397102e+01    1.9159873962e+02
    1.0338479042e+01    1.9274253845e+02
    1.0418591499e+01    1.9386882019e+02
    1.0498628616e+01    1.9498213196e+02
    1.0578703880e+01    1.9608921814e+02
    1.0658804893e+01    1.9719647217e+02
    1.0738821030e+01    1.9830543518e+02
    1.0818920135e+01    1.9942027283e+02
    1.0898984909e+01    2.0053894043e+02
    1.0979048729e+01    2.0166271973e+02
    1.1059104919e+01    2.0278927612e+02
    1.1139152527e+01    2.0391671753e+02
    1.1219126701e+01    2.0504191589e+02
    1.1299201965e+01    2.0616499329e+02
    1.1379151344e+01    2.0727998352e+02
    1.1459005356e+01    2.0838224792e+02
    1.1538865089e+01    2.0946676636e+02
    1.1618746758e+01    2.1052708435e+02
    1.1698509216e+01    2.1155447388e+02
    1.1778285027e+01    2.1254505920e+02
    1.1858021736e+01    2.1349635315e+02
    1.1937634468e+01    2.1440733337e+02
    1.2017265320e+01    2.1528126526e+02
    1.2096759796e+01    2.1611930847e+02
    1.2176214218e+01    2.1692683411e+02
    1.2255526543e+01    2.1770697021e+02
    1.2334848404e+01    2.1846653748e+02
    1.2414055824e+01    2.1921028137e+02
    1.2493148804e+01    2.1994328308e+02
    1.2572161674e+01    2.2067036438e+02
    1.2651150703e+01    2.2139535522e+02
    1.2729949951e+01    2.2211972046e+02
    1.2808614731e+01    2.2284539795e+02
    1.2887244225e+01    2.2357350159e+02
    1.2965668678e+01    2.2430241394e+02
    1.3044034004e+01    2.2503311157e+02
    1.3122270584e+01    2.2576437378e+02
    1.3200387955e+01    2.2649517822e+02
    1.3278325081e+01    2.2722300720e+02
    1.3356036186e+01    2.2794343567e+02
    1.3433661461e+01    2.2865412903e+02
    1.3511139870e+01    2.2934909058e+02
    1.3588453293e+01    2.3002319336e+02
    1.3665541649e+01    2.3067146301e+02
    1.3742506027e+01    2.3129190063e+02
    1.3819253922e+01    2.3188368225e+02
    1.3895777702e+01    2.3244673157e+02
    1.3972084045e+01    2.3298297119e+02
    1.4048139572e+01    2.3349455261e+02
    1.4123912811e+01    2.3398458862e+02
    1.4199519157e+01    2.3445733643e+02
    1.4274902344e+01    2.3491639709e+02
    1.4350026131e+01    2.3536579895e+02
    1.4424872398e+01    2.3580932617e+02
    1.4499453545e+01    2.3625010681e+02
    1.4573744774e+01    2.3669143677e+02
    1.4647718430e+01    2.3713558960e+02
    1.4721405029e+01    2.3758409119e+02
    1.4794803619e+01    2.3803784180e+02
    1.4867890358e+01    2.3849711609e+02
    1.4940629959e+01    2.3896168518e+02
    1.5013014793e+01    2.3943112183e+02
    1.5085107803e+01    2.3990504456e+02
    1.5156857491e+01    2.4038151550e+02
    1.5228258133e+01    2.4085816956e+02
    1.5299292564e+01    2.4133155823e+02
    1.5369914055e+01    2.4179750061e+02
    1.5440217972e+01    2.4225294495e+02
    1.5510100365e+01    2.4269360352e+02
    1.5579539299e+01    2.4311785889e+02
    1.5648656845e+01    2.4352593994e+02
    1.5717365265e+01    2.4391731262e+02
    1.5785640717e+01    2.4429342651e+02
    1.5853523254e+01    2.4465612793e+02
    1.5920987129e+01    2.4500769043e+02
    1.5987994194e+01    2.4535029602e+02
    1.6054498672e+01    2.4568676758e+02
    1.6120532990e+01    2.4601980591e+02
    1.6186161041e+01    2.4635238647e+02
    1.6251338959e+01    2.4668658447e+02
    1.6316080093e+01    2.4702433777e+02
    1.6380344391e+01    2.4736698914e+02
    1.6444047928e+01    2.4771542358e+02
    1.6507341385e+01    2.4807154846e+02
    1.6570158005e+01    2.4843618774e+02
    1.6632419586e+01    2.4880946350e+02
    1.6694152832e+01    2.4919172668e+02
    1.6755426407e+01    2.4958314514e+02
    1.6816196442e+01    2.4998242188e+02
    1.6876396179e+01    2.5038729858e+02
    1.6936012268e+01    2.5079566956e+02
    1.6995115280e+01    2.5120527649e+02
    1.7053674698e+01    2.5161280823e+02
    1.7111677170e+01    2.5201522827e+02
    1.7169095993e+01    2.5241088867e+02
    1.7225927353e+01    2.5279884338e+02
    1.7282176971e+01    2.5317898560e+02
    1.7337839127e+01    2.5355146790e+02
    1.7392890930e+01    2.5391658020e+02
    1.7447319031e+01    2.5427490234e+02
    1.7501161575e+01    2.5462792969e+02
    1.7554433823e+01    2.5497833252e+02
    1.7607103348e+01    2.5532850647e+02
    1.7659187317e+01    2.5568130493e+02
    1.7710657120e+01    2.5603897095e+02
    1.7761442184e+01    2.5640289307e+02
    1.7811670303e+01    2.5677593994e+02
    1.7861305237e+01    2.5715966797e+02
    1.7910284042e+01    2.5755487061e+02
    1.7958660126e+01    2.5796282959e+02
    1.8006402969e+01    2.5838342285e+02
    1.8053558350e+01    2.5881668091e+02
    1.8100042343e+01    2.5926135254e+02
    1.8145971298e+01    2.5971810913e+02
    1.8191225052e+01    2.6018447876e+02
    1.8235828400e+01    2.6065927124e+02
    1.8279779434e+01    2.6114102173e+02
    1.8323146820e+01    2.6162911987e+02
    1.8365861893e+01    2.6212109375e+02
    1.8407920837e+01    2.6261660767e+02
    1.8449373245e+01    2.6311495972e+02
    1.8490131378e+01    2.6361428833e+02
    1.8530248642e+01    2.6411511230e+02
    1.8569719315e+01    2.6461657715e+02
    1.8608541489e+01    2.6511859131e+02
    1.8646745682e+01    2.6562161255e+02
    1.8684276581e+01    2.6612466431e+02
    1.8721132278e+01    2.6662860107e+02
    1.8757404327e+01    2.6713632202e+02
    1.8793024063e+01    2.6764840698e+02
    1.8827957153e+01    2.6816564941e+02
    1.8862293243e+01    2.6869088745e+02
    1.8896005630e+01    2.6922406006e+02
    1.8929090500e+01    2.6976510620e+02
    1.8961536407e+01    2.7031494141e+02
    1.8993358612e+01    2.7087438965e+02
    1.9024555206e+01    2.7144448853e+02
    1.9055131912e+01    2.7202548218e+02
    1.9085090637e+01    2.7261645508e+02
    1.9114433289e+01    2.7321627808e+02
    1.9143163681e+01    2.7382269287e+02
    1.9171287537e+01    2.7443292236e+02
    1.9198808670e+01    2.7504421997e+02
    1.9225732803e+01    2.7565429688e+02
    1.9252061844e+01    2.7626153564e+02
    1.9277799606e+01    2.7686517334e+02
    1.9302930832e+01    2.7746514893e+02
    1.9327470779e+01    2.7806274414e+02
    1.9351461411e+01    2.7865997314e+02
    1.9374879837e+01    2.7925811768e+02
    1.9397727966e+01    2.7985855103e+02
    1.9420013428e+01    2.8046252441e+02
    1.9441740036e+01    2.8107101440e+02
    1.9462911606e+01    2.8168469238e+02
    1.9483533859e+01    2.8230386353e+02
    1.9503612518e+01    2.8292846680e+02
    1.9523153305e+01    2.8355877686e+02
    1.9542160034e+01    2.8419479370e+02
    1.9560640335e+01    2.8483618164e+02
    1.9578601837e+01    2.8548333740e+02
    1.9596050262e+01    2.8613629150e+02
    1.9612989426e+01    2.8679489136e+02
    1.9629428864e+01    2.8745904541e+02
    1.9645376205e+01    2.8812841797e+02
    1.9660835266e+01    2.8880242920e+02
    1.9675817490e+01    2.8948049927e+02
    1.9690328598e+01    2.9016110229e+02
    1.9704368591e+01    2.9084170532e+02
    1.9717948914e+01    2.9152166748e+02
    1.9731094360e+01    2.9220089722e+02
    1.9743801117e+01    2.9287774658e+02
    1.9756074905e+01    2.9355166626e+02
    1.9767923355e+01    2.9422259521e+02
    1.9779356003e+01    2.9489019775e+02
    1.9790380478e+01    2.9555392456e+02
    1.9801006317e+01    2.9621420288e+02
    1.9811241150e+01    2.9687130737e+02
    1.9821092606e+01    2.9752551270e+02
    1.9830570221e+01    2.9817712402e+02
    1.9839679718e+01    2.9882653809e+02
    1.9848428726e+01    2.9947430420e+02
    1.9856824875e+01    3.0012030029e+02
    1.9864877701e+01    3.0076416016e+02
    1.9872592926e+01    3.0140609741e+02
    1.9879974365e+01    3.0204531860e+02
    1.9887035370e+01    3.0268197632e+02
    1.9893787384e+01    3.0331695557e+02
    1.9900236130e+01    3.0394924927e+02
    1.9906385422e+01    3.0457833862e+02
    1.9912244797e+01    3.0520455933e+02
    1.9917819977e+01    3.0582781982e+02
    1.9923122406e+01    3.0644787598e+02
    1.9928159714e+01    3.0706420898e+02
    1.9932941437e+01    3.0767633057e+02
    1.9937473297e+01    3.0828335571e+02
    1.9941762924e+01    3.0888421631e+02
    1.9945819855e+01    3.0947848511e+02
    1.9949651718e+01    3.1006530762e+02
    1.9953260422e+01    3.1064315796e+02
    1.9956659317e+01    3.1121182251e+02
    1.9959859848e+01    3.1177105713e+02
    1.9962865829e+01    3.1231942749e+02
    1.9965684891e+01    3.1285711670e+02
    1.9968326569e+01    3.1338418579e+02
    1.9970796585e+01    3.1390109253e+02
    1.9973104477e+01    3.1440792847e+02
    1.9975255966e+01    3.1490451050e+02
    1.9977260590e+01    3.1539129639e+02
    1.9979124069e+01    3.1586843872e+02
    1.9980854034e+01    3.1633596802e+02
    1.9982456207e+01    3.1679382324e+02
    1.9983938217e+01    3.1724243164e+02
    1.9985309601e+01    3.1768225098e+02
    1.9986574173e+01    3.1811322021e+02
    1.9987739563e+01    3.1853543091e+02
    1.9988807678e+01    3.1894924927e+02
    1.9989782333e+01    3.1935443115e+02
    1.9990663528e+01    3.1975064087e+02
    1.9991453171e+01    3.2013775635e+02
    1.9992151260e+01    3.2051522827e+02
    1.9992755890e+01    3.2088226318e+02
    1.9993267059e+01    3.2123828125e+02
    1.9993690491e+01    3.2158285522e+02
    1.9994028091e+01    3.2191513062e+02
    1.9994285583e+01    3.2223471069e+02
    1.9994474411e+01    3.2254098511e+02
    1.9994600296e+01    3.2283343506e+02
    1.9994672775e+01    3.2311175537e+02
    1.9994701385e+01    3.2337573242e+02
    1.9994697571e+01    3.2362515259e+02
    1.9994665146e+01    3.2386013794e+02
    1.9994613647e+01    3.2408053589e+02
    1.9994550705e+01    3.2428668213e+02
    1.9994478226e+01    3.2447915649e+02
    1.9994403839e+01    3.2465811157e+02
    1.9994327545e+01    3.2482354736e+02
    1.9994255066e+01    3.2497543335e+02
    1.9994186401e+01    3.2511383057e+02
    1.9994125366e+01    3.2523873901e+02
    1.9994070053e+01    3.2535034180e+02
    1.9994022369e+01    3.2544866943e+02
    1.9993982315e+01    3.2553399658e+02
    1.9993949890e+01    3.2560668945e+02
    1.9993925095e+01    3.2566659546e+02
    1.9993907928e+01    3.2571365356e+02
    1.9993898392e+01    3.2574780273e+02
    1.9993894577e+01    3.2576879883e+02
    1.9993900299e+01    3.2577633667e+02
    1.9993909836e+01    3.2577014160e+02
    1.9993927002e+01    3.2574984741e+02
    1.9993949890e+01    3.2571517944e+02
    1.9993980408e+01    3.2566571045e+02
    1.9994018555e+01    3.2560104370e+02
    1.9994064331e+01    3.2552105713e+02
    1.9994117737e+01    3.2542550659e+02
    1.9994174957e+01    3.2531423950e+02
    1.9994239807e+01    3.2518716431e+02
    1.9994308472e+01    3.2504440308e+02
    1.9994379044e+01    3.2488626099e+02
    1.9994447708e+01    3.2471279907e+02
    1.9994514465e+01    3.2452438354e+02
    1.9994571686e+01    3.2432110596e+02
    1.9994617462e+01    3.2410385132e+02
    1.9994646072e+01    3.2387332153e+02
    1.9994647980e+01    3.2362942505e+02
    1.9994617462e+01    3.2337353516e+02
    1.9994543076e+01    3.2310614014e+02
    1.9994419098e+01    3.2282754517e+02
    1.9994235992e+01    3.2253817749e+02
    1.9993986130e+01    3.2223840332e+02
    1.9993659973e+01    3.2192901611e+02
    1.9993255615e+01    3.2160968018e+02
    1.9992767334e+01    3.2127996826e+02
    1.9992193222e+01    3.2094006348e+02
    1.9991533279e+01    3.2058987427e+02
    1.9990787506e+01    3.2022924805e+02
    1.9989955902e+01    3.1985760498e+02
    1.9989038467e+01    3.1947473145e+02
    1.9988031387e+01    3.1908074951e+02
    1.9986934662e+01    3.1867526245e+02
    1.9985742569e+01    3.1825833130e+02
    1.9984449387e+01    3.1782958984e+02
    1.9983049393e+01    3.1738848877e+02
    1.9981534958e+01    3.1693533325e+02
    1.9979902267e+01    3.1647033691e+02
    1.9978143692e+01    3.1599334717e+02
    1.9976251602e+01    3.1550482178e+02
    1.9974216461e+01    3.1500457764e+02
    1.9972032547e+01    3.1449307251e+02
    1.9969692230e+01    3.1397128296e+02
    1.9967185974e+01    3.1343969727e+02
    1.9964511871e+01    3.1289904785e+02
    1.9961658478e+01    3.1235025024e+02
    1.9958623886e+01    3.1179403687e+02
    1.9955400467e+01    3.1123135376e+02
    1.9951976776e+01    3.1066244507e+02
    1.9948343277e+01    3.1008697510e+02
    1.9944496155e+01    3.0950558472e+02
    1.9940427780e+01    3.0891818237e+02
    1.9936124802e+01    3.0832458496e+02
    1.9931579590e+01    3.0772393799e+02
    1.9926778793e+01    3.0711630249e+02
    1.9921716690e+01    3.0650177002e+02
    1.9916389465e+01    3.0588131714e+02
    1.9910783768e+01    3.0525411987e+02
    1.9904888153e+01    3.0462002563e+02
    1.9898702621e+01    3.0398028564e+02
    1.9892213821e+01    3.0333520508e+02
    1.9885421753e+01    3.0268594360e+02
    1.9878311157e+01    3.0203244019e+02
    1.9870876312e+01    3.0137545776e+02
    1.9863111496e+01    3.0071606445e+02
    1.9855003357e+01    3.0005435181e+02
    1.9846555710e+01    2.9939108276e+02
    1.9837749481e+01    2.9872564697e+02
    1.9828578949e+01    2.9805838013e+02
    1.9819040298e+01    2.9738986206e+02
    1.9809122086e+01    2.9671954346e+02
    1.9798818588e+01    2.9604800415e+02
    1.9788125992e+01    2.9537542725e+02
    1.9777046204e+01    2.9470208740e+02
    1.9765560150e+01    2.9402700806e+02
    1.9753652573e+01    2.9334979248e+02
    1.9741327286e+01    2.9267114258e+02
    1.9728563309e+01    2.9199044800e+02
    1.9715366364e+01    2.9130892944e+02
    1.9701734543e+01    2.9062734985e+02
    1.9687652588e+01    2.8994552612e+02
    1.9673114777e+01    2.8926388550e+02
    1.9658117294e+01    2.8858279419e+02
    1.9642662048e+01    2.8790316772e+02
    1.9626718521e+01    2.8722488403e+02
    1.9610298157e+01    2.8654959106e+02
    1.9593395233e+01    2.8587850952e+02
    1.9575983047e+01    2.8521096802e+02
    1.9558065414e+01    2.8454800415e+02
    1.9539638519e+01    2.8389019775e+02
    1.9520677567e+01    2.8323660278e+02
    1.9501194000e+01    2.8258709717e+02
    1.9481197357e+01    2.8194140625e+02
    1.9460651398e+01    2.8129818726e+02
    1.9439537048e+01    2.8065701294e+02
    1.9417863846e+01    2.8001812744e+02
    1.9395626068e+01    2.7938156128e+02
    1.9372825623e+01    2.7874740601e+02
    1.9349445343e+01    2.7811578369e+02
    1.9325477600e+01    2.7748663330e+02
    1.9300924301e+01    2.7685980225e+02
    1.9275775909e+01    2.7623529053e+02
    1.9250036240e+01    2.7561331177e+02
    1.9223701477e+01    2.7499398804e+02
    1.9196767807e+01    2.7437835693e+02
    1.9169229507e+01    2.7376712036e+02
    1.9141069412e+01    2.7316015625e+02
    1.9112321854e+01    2.7255911255e+02
    1.9082962036e+01    2.7196322632e+02
    1.9052976608e+01    2.7137307739e+02
    1.9022369385e+01    2.7078866577e+02
    1.8991132736e+01    2.7020941162e+02
    1.8959266663e+01    2.6963513184e+02
    1.8926774979e+01    2.6906646729e+02
    1.8893651962e+01    2.6850387573e+02
    1.8859903336e+01    2.6794766235e+02
    1.8825525284e+01    2.6739807129e+02
    1.8790527344e+01    2.6685531616e+02
    1.8754877090e+01    2.6631915283e+02
    1.8718589783e+01    2.6578915405e+02
    1.8681669235e+01    2.6526458740e+02
    1.8644109726e+01    2.6474465942e+02
    1.8605941772e+01    2.6422918701e+02
    1.8567102432e+01    2.6371749878e+02
    1.8527639389e+01    2.6321084595e+02
    1.8487524033e+01    2.6270983887e+02
    1.8446748734e+01    2.6221484375e+02
    1.8405334473e+01    2.6172732544e+02
    1.8363267899e+01    2.6124761963e+02
    1.8320587158e+01    2.6077645874e+02
    1.8277296066e+01    2.6031372070e+02
    1.8233343124e+01    2.5985830688e+02
    1.8188735962e+01    2.5940945435e+02
    1.8143465042e+01    2.5896673584e+02
    1.8097568512e+01    2.5853012085e+02
    1.8051057816e+01    2.5809933472e+02
    1.8003973007e+01    2.5767465210e+02
    1.7956235886e+01    2.5725500488e+02
    1.7907838821e+01    2.5683959961e+02
    1.7858816147e+01    2.5642788696e+02
    1.7809171677e+01    2.5601892090e+02
    1.7758907318e+01    2.5561235046e+02
    1.7708030701e+01    2.5520730591e+02
    1.7656541824e+01    2.5480236816e+02
    1.7604438782e+01    2.5439633179e+02
    1.7551734924e+01    2.5398870850e+02
    1.7498424530e+01    2.5358006287e+02
    1.7444511414e+01    2.5317164612e+02
    1.7390005112e+01    2.5276475525e+02
    1.7334905624e+01    2.5236056519e+02
    1.7279220581e+01    2.5196006775e+02
    1.7222953796e+01    2.5156401062e+02
    1.7166110992e+01    2.5117268372e+02
    1.7108699799e+01    2.5078677368e+02
    1.7050724030e+01    2.5040634155e+02
    1.6992185593e+01    2.5003105164e+02
    1.6933099747e+01    2.4966061401e+02
    1.6873476028e+01    2.4929467773e+02
    1.6813310623e+01    2.4893278503e+02
    1.6752613068e+01    2.4857440186e+02
    1.6691392899e+01    2.4821884155e+02
    1.6629657745e+01    2.4786524963e+02
    1.6567487717e+01    2.4751292419e+02
    1.6504777908e+01    2.4716044617e+02
    1.6441528320e+01    2.4680676270e+02
    1.6377786636e+01    2.4645111084e+02
    1.6313564301e+01    2.4609307861e+02
    1.6248861313e+01    2.4573260498e+02
    1.6183687210e+01    2.4536975098e+02
    1.6118047714e+01    2.4500454712e+02
    1.6051940918e+01    2.4463674927e+02
    1.5985395432e+01    2.4426692200e+02
    1.5918402672e+01    2.4389553833e+02
    1.5850964546e+01    2.4352308655e+02
    1.5783093452e+01    2.4315002441e+02
    1.5714801788e+01    2.4277645874e+02
    1.5646094322e+01    2.4240220642e+02
    1.5576978683e+01    2.4202667236e+02
    1.5507459641e+01    2.4164875793e+02
    1.5437538147e+01    2.4126675415e+02
    1.5367231369e+01    2.4087933350e+02
    1.5296630859e+01    2.4048550415e+02
    1.5225614548e+01    2.4008314514e+02
    1.5154189110e+01    2.3967144775e+02
    1.5082409859e+01    2.3925025940e+02
    1.5010277748e+01    2.3881916809e+02
    1.4937819481e+01    2.3837882996e+02
    1.4865022659e+01    2.3792965698e+02
    1.4791906357e+01    2.3747189331e+02
    1.4718476295e+01    2.3700559998e+02
    1.4644745827e+01    2.3653056335e+02
    1.4570716858e+01    2.3604647827e+02
    1.4496399879e+01    2.3555319214e+02
    1.4421802521e+01    2.3505038452e+02
    1.4346935272e+01    2.3453860474e+02
    1.4271808624e+01    2.3401802063e+02
    1.4196519852e+01    2.3348921204e+02
    1.4120930672e+01    2.3295095825e+02
    1.4045061111e+01    2.3240266418e+02
    1.3968962669e+01    2.3184481812e+02
    1.3892642975e+01    2.3127699280e+02
    1.3816115379e+01    2.3069879150e+02
    1.3739379883e+01    2.3011010742e+02
    1.3662444115e+01    2.2951078796e+02
    1.3585317612e+01    2.2890016174e+02
    1.3508007050e+01    2.2827861023e+02
    1.3430520058e+01    2.2764584351e+02
    1.3352863312e+01    2.2700155640e+02
    1.3275142670e+01    2.2634663391e+02
    1.3197214127e+01    2.2567915344e+02
    1.3119086266e+01    2.2499972534e+02
    1.3040817261e+01    2.2430845642e+02
    1.2962409019e+01    2.2360482788e+02
    1.2883872986e+01    2.2288847351e+02
    1.2805210114e+01    2.2215910339e+02
    1.2726435661e+01    2.2141586304e+02
    1.2647547722e+01    2.2065925598e+02
    1.2568546295e+01    2.1988883972e+02
    1.2489445686e+01    2.1910401917e+02
    1.2410358429e+01    2.1830513000e+02
    1.2331113815e+01    2.1749105835e+02
    1.2251745224e+01    2.1666189575e+02
    1.2172297478e+01    2.1581781006e+02
    1.2092782974e+01    2.1495860291e+02
    1.2013199806e+01    2.1408340454e+02
    1.1933559418e+01    2.1319293213e+02
    1.1853869438e+01    2.1228675842e+02
    1.1774135590e+01    2.1136437988e+02
    1.1694359779e+01    2.1042556763e+02
    1.1614561081e+01    2.0947001648e+02
    1.1534831047e+01    2.0849815369e+02
    1.1455027580e+01    2.0750839233e+02
    1.1375168800e+01    2.0650045776e+02
    1.1295305252e+01    2.0547410583e+02
    1.1215428352e+01    2.0442816162e+02
    1.1135536194e+01    2.0336352539e+02
    1.1055647850e+01    2.0227975464e+02
    1.0975748062e+01    2.0117657471e+02
    1.0895838737e+01    2.0005412292e+02
    1.0816026688e+01    1.9891342163e+02
    1.0736124992e+01    1.9775315857e+02
    1.0656158447e+01    1.9657380676e+02
    1.0576179504e+01    1.9537614441e+02
    1.0496170044e+01    1.9415989685e+02
    1.0416131973e+01    1.9292744446e+02
    1.0336062431e+01    1.9167990112e+02
    1.0255970955e+01    1.9041838074e+02
    1.0175845146e+01    1.8914468384e+02
    1.0095699310e+01    1.8785993958e+02
    1.0015658379e+01    1.8657003784e+02
    9.9355411530e+00    1.8527397156e+02
    9.8553943634e+00    1.8397468567e+02
    9.7752075195e+00    1.8267346191e+02
    9.6950941086e+00    1.8137673950e+02
    9.6150112152e+00    1.8008323669e+02
    9.5349483490e+00    1.7879595947e+02
    9.4549589157e+00    1.7751705933e+02
    9.3749608994e+00    1.7624575806e+02
    9.2949666977e+00    1.7498231506e+02
    9.2150077820e+00    1.7372930908e+02
    9.1351785660e+00    1.7248881531e+02
    9.0552845001e+00    1.7125758362e+02
    8.9753618240e+00    1.7003558350e+02
    8.8954572678e+00    1.6882514954e+02
    8.8155632019e+00    1.6762600708e+02
    8.7356719971e+00    1.6643798828e+02
    8.6557903290e+00    1.6526091003e+02
    8.5759124756e+00    1.6409390259e+02
    8.4960479736e+00    1.6293847656e+02
    8.4163045883e+00    1.6179615784e+02
    8.3365049362e+00    1.6066288757e+02
    8.2566900253e+00    1.5954084778e+02
    8.1768989563e+00    1.5843025208e+02
    8.0971536636e+00    1.5733065796e+02
    8.0174560547e+00    1.5624186707e+02
    7.9378066063e+00    1.5516290283e+02
    7.8582115173e+00    1.5409480286e+02
    7.7786970139e+00    1.5303697205e+02
    7.6993694305e+00    1.5199035645e+02
    7.6200337410e+00    1.5095094299e+02
    7.5407557487e+00    1.4992037964e+02
    7.4615783691e+00    1.4889826965e+02
    7.3825030327e+00    1.4788401794e+02
    7.3035249710e+00    1.4687638855e+02
    7.2246618271e+00    1.4587625122e+02
    7.1459226608e+00    1.4488270569e+02
    7.0673089027e+00    1.4389477539e+02
    6.9889230728e+00    1.4291268921e+02
    6.9106025696e+00    1.4193475342e+02
    6.8323965073e+00    1.4096102905e+02
    6.7543349266e+00    1.3999157715e+02
    6.6764221191e+00    1.3902549744e+02
    6.5986790657e+00    1.3806422424e+02
    6.5211067200e+00    1.3710758972e+02
    6.4437050819e+00    1.3615545654e+02
    6.3664784431e+00    1.3520770264e+02
    6.2895603180e+00    1.3426458740e+02
    6.2127542496e+00    1.3332444763e+02
    6.1361165047e+00    1.3238725281e+02
    6.0596981049e+00    1.3145205688e+02
    5.9835009575e+00    1.3051986694e+02
    5.9075207710e+00    1.2959005737e+02
    5.8317775726e+00    1.2866230774e+02
    5.7562780380e+00    1.2773585510e+02
    5.6811389923e+00    1.2681343079e+02
    5.6061763763e+00    1.2589224243e+02
    5.5314521790e+00    1.2497284698e+02
    5.4570031166e+00    1.2405509186e+02
    5.3828368187e+00    1.2314058685e+02
    5.3089613914e+00    1.2222956085e+02
    5.2353801727e+00    1.2132200623e+02
    5.1622209549e+00    1.2042175293e+02
    5.0892877579e+00    1.1952681732e+02
    5.0166540146e+00    1.1863890076e+02
    4.9443521500e+00    1.1775899506e+02
    4.8723855019e+00    1.1688996887e+02
    4.8007736206e+00    1.1603279114e+02
    4.7295107841e+00    1.1518840790e+02
    4.6586136818e+00    1.1435694122e+02
    4.5881900787e+00    1.1354161835e+02
    4.5180683136e+00    1.1274053192e+02
    4.4483118057e+00    1.1195429230e+02
    4.3789472580e+00    1.1118489075e+02
    4.3099904060e+00    1.1043202209e+02
    4.2414455414e+00    1.0969438171e+02
    4.1733160019e+00    1.0897215271e+02
    4.1057219505e+00    1.0826528931e+02
    4.0384721756e+00    1.0757032013e+02
    3.9716479778e+00    1.0688857269e+02
    3.9052705765e+00    1.0621990967e+02
    3.8393533230e+00    1.0556415558e+02
    3.7738969326e+00    1.0492018890e+02
    3.7089192867e+00    1.0428786469e+02
    3.6445069313e+00    1.0366634369e+02
    3.5805079937e+00    1.0305164337e+02
    3.5169785023e+00    1.0244418335e+02
    3.4539554119e+00    1.0184317780e+02
    3.3914234638e+00    1.0124795532e+02
    3.3294124603e+00    1.0065969086e+02
    3.2679221630e+00    1.0007843018e+02
    3.2070453167e+00    9.9504653931e+01
    3.1466231346e+00    9.8937324524e+01
    3.0867233276e+00    9.8376464844e+01
    3.0273635387e+00    9.7821540833e+01
    2.9685518742e+00    9.7271141052e+01
    2.9102983475e+00    9.6724754333e+01
    2.8526868820e+00    9.6180831909e+01
    2.7955749035e+00    9.5636543274e+01
    2.7390148640e+00    9.5090530396e+01
    2.6830372810e+00    9.4541343689e+01
    2.6276278496e+00    9.3986808777e+01
    2.5728120804e+00    9.3426124573e+01
    2.5186686516e+00    9.2858070374e+01
    2.4650499821e+00    9.2280845642e+01
    2.4120149612e+00    9.1694252014e+01
    2.3595829010e+00    9.1097389221e+01
    2.3077609539e+00    9.0490440369e+01
    2.2565467358e+00    8.9872207642e+01
    2.2059457302e+00    8.9242195129e+01
    2.1560394764e+00    8.8601211548e+01
    2.1066882610e+00    8.7949272156e+01
    2.0579500198e+00    8.7287635803e+01
    2.0098316669e+00    8.6619415283e+01
    1.9623436928e+00    8.5945930481e+01
    1.9154896736e+00    8.5267707825e+01
    1.8693352938e+00    8.4584648132e+01
    1.8237618208e+00    8.3893829346e+01
    1.7788023949e+00    8.3192535400e+01
    1.7344878912e+00    8.2479194641e+01
    1.6908112764e+00    8.1750846863e+01
    1.6477745771e+00    8.1005241394e+01
    1.6054461002e+00    8.0241416931e+01
    1.5637023449e+00    7.9456878662e+01
    1.5225878954e+00    7.8650619507e+01
    1.4821215868e+00    7.7823631287e+01
    1.4422966242e+00    7.6975433350e+01
    1.4031144381e+00    7.6105461121e+01
    1.3646364212e+00    7.5217025757e+01
    1.3267481327e+00    7.4307525635e+01
    1.2894951105e+00    7.3377937317e+01
    1.2528787851e+00    7.2431053162e+01
    1.2169041634e+00    7.1467712402e+01
    1.1815707684e+00    7.0489311218e+01
    1.1468929052e+00    6.9497840881e+01
    1.1128225327e+00    6.8494552612e+01
    1.0794395208e+00    6.7484863281e+01
    1.0466345549e+00    6.6465782166e+01
    1.0144742727e+00    6.5442047119e+01
    9.8292613029e-01    6.4415153503e+01
    9.5200377703e-01    6.3386058807e+01
    9.2174756527e-01    6.2360572815e+01
    8.9207142591e-01    6.1336009979e+01
    8.6300420761e-01    6.0317440033e+01
    8.3454805613e-01    5.9306308746e+01
    8.0668812990e-01    5.8303153992e+01
    7.7944749594e-01    5.7310836792e+01
    7.5282466412e-01    5.6330493927e+01
    7.2676664591e-01    5.5360004425e+01
    7.0135170221e-01    5.4403652191e+01
    6.7648112774e-01    5.3457580566e+01
    6.5219032764e-01    5.2521678925e+01
    6.2847578526e-01    5.1597339630e+01
    6.0534471273e-01    5.0683666229e+01
    5.8277261257e-01    4.9780521393e+01
    5.6076002121e-01    4.8887554169e+01
    5.3933024406e-01    4.8005172729e+01
    5.1842892170e-01    4.7130748749e+01
    4.9807000160e-01    4.6266281128e+01
    4.7825038433e-01    4.5411174774e+01
    4.5896267891e-01    4.4565441132e+01
    4.4020190835e-01    4.3728668213e+01
    4.2196443677e-01    4.2902881622e+01
    4.0426698327e-01    4.2089538574e+01
    3.8705351949e-01    4.1285907745e+01
    3.7033605576e-01    4.0495170593e+01
    3.5410705209e-01    3.9716320038e+01
    3.3838152885e-01    3.8950813293e+01
    3.2312366366e-01    3.8194953918e+01
    3.0835419893e-01    3.7450157166e+01
    2.9402771592e-01    3.6713138580e+01
    2.8019297123e-01    3.5985786438e+01
    2.6678061485e-01    3.5265777588e+01
    2.5381687284e-01    3.4555450439e+01
    2.4130322039e-01    3.3856124878e+01
    2.2919668257e-01    3.3166999817e+01
    2.1752291918e-01    3.2490856171e+01
    2.0627990365e-01    3.1828861237e+01
    1.9542427361e-01    3.1180376053e+01
    1.8496391177e-01    3.0545959473e+01
    1.7488487065e-01    2.9924325943e+01
    1.6520874202e-01    2.9315641403e+01
    1.5589424968e-01    2.8716304779e+01
    1.4693830907e-01    2.8123405457e+01
    1.3835902512e-01    2.7535255432e+01
    1.3011325896e-01    2.6946096420e+01
    1.2221718580e-01    2.6353624344e+01
    1.1465834826e-01    2.5754421234e+01
    1.0741804540e-01    2.5143964767e+01
    1.0048732162e-01    2.4518672943e+01
    9.3884333968e-02    2.3879432678e+01
    8.7572194636e-02    2.3220727921e+01
    8.1554114819e-02    2.2541448593e+01
    7.5823135674e-02    2.1839952469e+01
    7.0365130901e-02    2.1115114212e+01
    6.5176293254e-02    2.0366439819e+01
    6.0246426612e-02    1.9593799591e+01
    5.5574398488e-02    1.8800792694e+01
    5.1148515195e-02    1.7991718292e+01
    4.6956319362e-02    1.7171817780e+01
    4.2989429086e-02    1.6349517822e+01
    3.9250381291e-02    1.5540344238e+01
    3.5725750029e-02    1.4754217148e+01
    3.2405365258e-02    1.4002470970e+01
    2.9286837205e-02    1.3292617798e+01
    2.6352310553e-02    1.2624532700e+01
    2.3606833071e-02    1.2000498772e+01
    2.1037256345e-02    1.1416203499e+01
    1.8638299778e-02    1.0867390633e+01
    1.6402717680e-02    1.0347066879e+01
    1.4319204725e-02    9.8491544724e+00
    1.2387038209e-02    9.3673801422e+00
    1.0592984036e-02    8.8940973282e+00
    8.9351423085e-03    8.4250135422e+00
    7.4057760648e-03    7.9548559189e+00
    5.9984773397e-03    7.4811635017e+00
    4.7072805464e-03    7.0015568733e+00
    3.5258927383e-03    6.5160946846e+00
    2.4468926713e-03    6.0251312256e+00
    1.4665594790e-03    5.5327577591e+00
    5.7614035904e-04    5.0426321030e+00
   -2.2786564659e-04    4.5628170967e+00
   -9.5069268718e-04    4.1010823250e+00
   -1.5982666519e-03    3.6663589478e+00
   -2.1764333360e-03    3.2669386864e+00
   -2.6887538843e-03    2.9102892876e+00
   -3.1412816606e-03    2.5977737904e+00
   -3.5384630319e-03    2.3284115791e+00
   -3.8847927935e-03    2.0984201431e+00
   -4.1845240630e-03    1.9029655457e+00
   -4.4419267215e-03    1.7366182804e+00
   -4.6607763506e-03    1.5946266651e+00
   -4.8453249037e-03    1.4717189074e+00
   -4.9989866093e-03    1.3638750315e+00
   -5.1256408915e-03    1.2677227259e+00
   -5.2281245589e-03    1.1810562611e+00
   -5.3095975891e-03    1.1023366451e+00
   -5.3733126260e-03    1.0303004980e+00
   -5.4218298756e-03    9.6497470140e-01
   -5.4576830007e-03    9.0643674135e-01
   -5.4831486195e-03    8.5531717539e-01
   -5.5003911257e-03    8.1201982498e-01
   -5.5112815462e-03    7.7706992626e-01
   -5.5174818262e-03    7.5071883202e-01
   -5.5204173550e-03    7.3248416185e-01
   -5.5212993175e-03    7.2103619576e-01
   -5.5210725404e-03    7.1442455053e-01
   -5.5204457603e-03    7.1071815491e-01
   -5.5198785849e-03    7.0868515968e-01
   -5.5195773020e-03    7.0778471231e-01
   -5.5195023306e-03    7.0757496357e-01
endcurve
