Curveplot
LS-DYNA keyword deck by LS-PrePost
Abscissa
Ordinate
XY data
CHOP_NASX_mo-1 #pts=3000
* Minval=    -2.4968017578e+01 at time=       299.9089965820
* Maxval=     3.0022994995e+01 at time=       198.4027252197
    0.0000000000e+00    0.0000000000e+00
    9.9978484213e-02    1.5629599802e-03
    1.9994476438e-01    3.1257420778e-03
    2.9985594749e-01    4.6876678243e-03
    3.9993065596e-01    6.2522049993e-03
    4.9983286858e-01    7.8137405217e-03
    5.9996074438e-01    9.3791382387e-03
    6.9996917248e-01    1.0944237933e-02
    7.9987239838e-01    1.2506358325e-02
    8.9996677637e-01    1.4068449847e-02
    9.9981802702e-01    1.5624952503e-02
    1.0999013186e+00    1.7185730860e-02
    1.1999312639e+00    1.8747366965e-02
    1.2999420166e+00    2.0311938599e-02
    1.3998707533e+00    2.1878339350e-02
    1.4999967813e+00    2.3450734094e-02
    1.5999176502e+00    2.5021597743e-02
    1.6998231411e+00    2.6593349874e-02
    1.7998125553e+00    2.8166923672e-02
    1.8998631239e+00    2.9741380364e-02
    1.9999403954e+00    3.1316068023e-02
    2.0999372005e+00    3.2887823880e-02
    2.1998307705e+00    3.4456182271e-02
    2.2999815941e+00    3.6025736481e-02
    2.3998348713e+00    3.7589699030e-02
    2.4998700619e+00    3.9155006409e-02
    2.5998649597e+00    4.0718115866e-02
    2.6998441219e+00    4.2279273272e-02
    2.7999923229e+00    4.3842166662e-02
    2.8998992443e+00    4.5398745686e-02
    2.9998807907e+00    4.6953592449e-02
    3.0998446941e+00    4.8505410552e-02
    3.1998353004e+00    5.0055127591e-02
    3.2999982834e+00    5.1607470959e-02
    3.3999238014e+00    5.3156185895e-02
    3.4999976158e+00    5.4708123207e-02
    3.5999677181e+00    5.6258503348e-02
    3.6998908520e+00    5.7808976620e-02
    3.7998950481e+00    5.9360489249e-02
    3.8999593258e+00    6.0912549496e-02
    3.9998872280e+00    6.2460724264e-02
    4.0999002457e+00    6.4008444548e-02
    4.1999154091e+00    6.5554223955e-02
    4.2999529839e+00    6.7097306252e-02
    4.3998851776e+00    6.8635709584e-02
    4.4998784065e+00    7.0170857012e-02
    4.5999293327e+00    7.1704611182e-02
    4.6999778748e+00    7.3236599565e-02
    4.7999606133e+00    7.4767053127e-02
    4.8998966217e+00    7.6294817030e-02
    4.9999694824e+00    7.7822573483e-02
    5.0999503136e+00    7.9345740378e-02
    5.1998300552e+00    8.0863617361e-02
    5.2998480797e+00    8.2380712032e-02
    5.3998847008e+00    8.3895623684e-02
    5.4998626709e+00    8.5407823324e-02
    5.5999817848e+00    8.6920320988e-02
    5.6998472214e+00    8.8427200913e-02
    5.7998046875e+00    8.9932255447e-02
    5.8998994827e+00    9.1435976326e-02
    5.9999914169e+00    9.2936366796e-02
    6.0998306274e+00    9.4429731369e-02
    6.1999139786e+00    9.5923103392e-02
    6.2998967171e+00    9.7410343587e-02
    6.3998079300e+00    9.8890818655e-02
    6.4998803139e+00    1.0036887228e-01
    6.5999507904e+00    1.0184011608e-01
    6.6999664307e+00    1.0330703855e-01
    6.7998299599e+00    1.0476735979e-01
    6.8998317719e+00    1.0622663051e-01
    6.9998917580e+00    1.0768533498e-01
    7.0998682976e+00    1.0914053023e-01
    7.1999130249e+00    1.1059296131e-01
    7.2999601364e+00    1.1204193532e-01
    7.3999619484e+00    1.1348871142e-01
    7.4998159409e+00    1.1492985487e-01
    7.5999779701e+00    1.1637251824e-01
    7.6999573708e+00    1.1781066656e-01
    7.7999353409e+00    1.1924617738e-01
    7.8999133110e+00    1.2067960948e-01
    7.9999518394e+00    1.2211137265e-01
    8.0999116898e+00    1.2353978306e-01
    8.1999921799e+00    1.2496629357e-01
    8.2998600006e+00    1.2638837099e-01
    8.3999414444e+00    1.2780848145e-01
    8.4999418259e+00    1.2922486663e-01
    8.5998668671e+00    1.3063427806e-01
    8.6999950409e+00    1.3204205036e-01
    8.7998943329e+00    1.3344334066e-01
    8.8998794556e+00    1.3484193385e-01
    8.9998931885e+00    1.3623794913e-01
    9.0998735428e+00    1.3763129711e-01
    9.1998090744e+00    1.3902203739e-01
    9.2998924255e+00    1.4041057229e-01
    9.3998374939e+00    1.4179565012e-01
    9.4999208450e+00    1.4317771792e-01
    9.5998888016e+00    1.4455603063e-01
    9.6999607086e+00    1.4593215287e-01
    9.7999601364e+00    1.4730490744e-01
    9.8999509811e+00    1.4867278934e-01
    9.9999437332e+00    1.5003660321e-01
    1.0099899292e+01    1.5388275683e-01
    1.0199932098e+01    1.5772987902e-01
    1.0299875259e+01    1.6156931221e-01
    1.0399922371e+01    1.6540880501e-01
    1.0499888420e+01    1.6924172640e-01
    1.0599976540e+01    1.7307578027e-01
    1.0699834824e+01    1.7689803243e-01
    1.0799839020e+01    1.8071949482e-01
    1.0899987221e+01    1.8453590572e-01
    1.0999872208e+01    1.8833665550e-01
    1.1099974632e+01    1.9214345515e-01
    1.1199816704e+01    1.9594050944e-01
    1.1299883842e+01    1.9974751770e-01
    1.1399881363e+01    2.0355319977e-01
    1.1499829292e+01    2.0735923946e-01
    1.1599976540e+01    2.1117140353e-01
    1.1699942589e+01    2.1497510374e-01
    1.1799819946e+01    2.1877160668e-01
    1.1899915695e+01    2.2257250547e-01
    1.1999942780e+01    2.2636729479e-01
    1.2099864960e+01    2.3014909029e-01
    1.2199995041e+01    2.3393000662e-01
    1.2300000191e+01    2.3769690096e-01
    1.2399901390e+01    2.4145288765e-01
    1.2499962807e+01    2.4520781636e-01
    1.2599871635e+01    2.4894940853e-01
    1.2699990273e+01    2.5269040465e-01
    1.2799981117e+01    2.5641947985e-01
    1.2899868011e+01    2.6013398170e-01
    1.2999883652e+01    2.6384359598e-01
    1.3099851608e+01    2.6754137874e-01
    1.3199937820e+01    2.7123460174e-01
    1.3299961090e+01    2.7491980791e-01
    1.3399948120e+01    2.7859860659e-01
    1.3499955177e+01    2.8227400780e-01
    1.3599972725e+01    2.8594440222e-01
    1.3699863434e+01    2.8960570693e-01
    1.3799963951e+01    2.9327118397e-01
    1.3899989128e+01    2.9692658782e-01
    1.3999843597e+01    3.0056840181e-01
    1.4099994659e+01    3.0421149731e-01
    1.4199995995e+01    3.0784007907e-01
    1.4299977303e+01    3.1145799160e-01
    1.4399853706e+01    3.1505981088e-01
    1.4499971390e+01    3.1865859032e-01
    1.4599962234e+01    3.2224351168e-01
    1.4699860573e+01    3.2581719756e-01
    1.4799954414e+01    3.2939198613e-01
    1.4899956703e+01    3.3295410872e-01
    1.4999971390e+01    3.3650851250e-01
    1.5099837303e+01    3.4004780650e-01
    1.5200016975e+01    3.4358680248e-01
    1.5299937248e+01    3.4710630774e-01
    1.5399894714e+01    3.5061910748e-01
    1.5499953270e+01    3.5412690043e-01
    1.5599922180e+01    3.5762348771e-01
    1.5699946404e+01    3.6111271381e-01
    1.5799880981e+01    3.6458960176e-01
    1.5899893761e+01    3.6805781722e-01
    1.6000009537e+01    3.7152051926e-01
    1.6100021362e+01    3.7496921420e-01
    1.6199943542e+01    3.7840259075e-01
    1.6299993515e+01    3.8182780147e-01
    1.6399923325e+01    3.8523280621e-01
    1.6499935150e+01    3.8862630725e-01
    1.6600019455e+01    3.9200699329e-01
    1.6699966431e+01    3.9536988735e-01
    1.6799919128e+01    3.9872100949e-01
    1.6899942398e+01    4.0206551552e-01
    1.6999977112e+01    4.0540230274e-01
    1.7099969864e+01    4.0872749686e-01
    1.7200016022e+01    4.1204380989e-01
    1.7299913406e+01    4.1534489393e-01
    1.7399948120e+01    4.1864281893e-01
    1.7499986649e+01    4.2193117738e-01
    1.7599855423e+01    4.2520508170e-01
    1.7699888229e+01    4.2847490311e-01
    1.7799867630e+01    4.3173310161e-01
    1.7900030136e+01    4.3498858809e-01
    1.8000001907e+01    4.3822899461e-01
    1.8100002289e+01    4.4146078825e-01
    1.8199903488e+01    4.4468101859e-01
    1.8299930573e+01    4.4789469242e-01
    1.8399866104e+01    4.5109468699e-01
    1.8499961853e+01    4.5428681374e-01
    1.8600009918e+01    4.5746338367e-01
    1.8699945450e+01    4.6062490344e-01
    1.8799982071e+01    4.6377721429e-01
    1.8899885178e+01    4.6691370010e-01
    1.8999877930e+01    4.7004318237e-01
    1.9099937439e+01    4.7316569090e-01
    1.9199964523e+01    4.7627609968e-01
    1.9299915314e+01    4.7937440872e-01
    1.9399930954e+01    4.8246470094e-01
    1.9499971390e+01    4.8554450274e-01
    1.9599996567e+01    4.8861363530e-01
    1.9699876785e+01    4.9166640639e-01
    1.9799945831e+01    4.9471342564e-01
    1.9899951935e+01    4.9774602056e-01
    1.9999975204e+01    5.0076562166e-01
    2.0099910736e+01    5.0645971298e-01
    2.0200038910e+01    5.1215231419e-01
    2.0299928665e+01    5.1781809330e-01
    2.0399969101e+01    5.2348160744e-01
    2.0499897003e+01    5.2912569046e-01
    2.0599882126e+01    5.3476029634e-01
    2.0699890137e+01    5.4038357735e-01
    2.0800008774e+01    5.4599642754e-01
    2.0900033951e+01    5.5158418417e-01
    2.0999982834e+01    5.5715382099e-01
    2.1099977493e+01    5.6271529198e-01
    2.1199924469e+01    5.6826519966e-01
    2.1299985886e+01    5.7381570339e-01
    2.1399898529e+01    5.7935178280e-01
    2.1500028610e+01    5.8489370346e-01
    2.1599893570e+01    5.9041190147e-01
    2.1700010300e+01    5.9593349695e-01
    2.1799985886e+01    6.0143619776e-01
    2.1899875641e+01    6.0692167282e-01
    2.1999879837e+01    6.1239802837e-01
    2.2100011826e+01    6.1786210537e-01
    2.2199956894e+01    6.2329810858e-01
    2.2300016403e+01    6.2872064114e-01
    2.2400018692e+01    6.3412415981e-01
    2.2499933243e+01    6.3950550556e-01
    2.2600017548e+01    6.4487844706e-01
    2.2699880600e+01    6.5022069216e-01
    2.2799909592e+01    6.5555465221e-01
    2.2900049210e+01    6.6087388992e-01
    2.2999948502e+01    6.6615927219e-01
    2.3099882126e+01    6.7142724991e-01
    2.3199964523e+01    6.7668300867e-01
    2.3299911499e+01    6.8191695213e-01
    2.3400043488e+01    6.8714499474e-01
    2.3499912262e+01    6.9234597683e-01
    2.3599950790e+01    6.9754099846e-01
    2.3699897766e+01    7.0271903276e-01
    2.3799978256e+01    7.0788896084e-01
    2.3899904251e+01    7.1303600073e-01
    2.4000043869e+01    7.1817499399e-01
    2.4100038528e+01    7.2328698635e-01
    2.4200052261e+01    7.2838097811e-01
    2.4300033569e+01    7.3345196247e-01
    2.4399972916e+01    7.3849803209e-01
    2.4500045776e+01    7.4352997541e-01
    2.4599969864e+01    7.4853503704e-01
    2.4699985504e+01    7.5352698565e-01
    2.4800001144e+01    7.5850200653e-01
    2.4899925232e+01    7.6345598698e-01
    2.4999992371e+01    7.6839798689e-01
    2.5100019455e+01    7.7331900597e-01
    2.5199989319e+01    7.7821695805e-01
    2.5299991608e+01    7.8309702873e-01
    2.5399894714e+01    7.8795301914e-01
    2.5499933243e+01    7.9279798269e-01
    2.5600042343e+01    7.9763102531e-01
    2.5699977875e+01    8.0243599415e-01
    2.5799924850e+01    8.0722099543e-01
    2.5899940491e+01    8.1199097633e-01
    2.5999990463e+01    8.1674301624e-01
    2.6100011826e+01    8.2147198915e-01
    2.6199951172e+01    8.2617604733e-01
    2.6299898148e+01    8.3085501194e-01
    2.6399993896e+01    8.3551597595e-01
    2.6500017166e+01    8.4014594555e-01
    2.6599876404e+01    8.4474098682e-01
    2.6700063705e+01    8.4933495522e-01
    2.6800020218e+01    8.5389101505e-01
    2.6900028229e+01    8.5842704773e-01
    2.6999944687e+01    8.6294698715e-01
    2.7100065231e+01    8.6745196581e-01
    2.7199987411e+01    8.7192994356e-01
    2.7299985886e+01    8.7639695406e-01
    2.7399879456e+01    8.8082802296e-01
    2.7500011444e+01    8.8526499271e-01
    2.7599903107e+01    8.8965797424e-01
    2.7700067520e+01    8.9405399561e-01
    2.7800014496e+01    8.9841598272e-01
    2.7899932861e+01    9.0275907516e-01
    2.7999940872e+01    9.0708202124e-01
    2.8099967957e+01    9.1139400005e-01
    2.8200038910e+01    9.1567701101e-01
    2.8299932480e+01    9.1994398832e-01
    2.8400028229e+01    9.2419296503e-01
    2.8500000000e+01    9.2841207981e-01
    2.8600059509e+01    9.3261402845e-01
    2.8700017929e+01    9.3678498268e-01
    2.8800045013e+01    9.4094198942e-01
    2.8900045395e+01    9.4506800175e-01
    2.8999914169e+01    9.4917696714e-01
    2.9100065231e+01    9.5326906443e-01
    2.9199949265e+01    9.5733702183e-01
    2.9299966812e+01    9.6138101816e-01
    2.9400009155e+01    9.6541398764e-01
    2.9499992371e+01    9.6941697598e-01
    2.9599905014e+01    9.7340106964e-01
    2.9699943542e+01    9.7735804319e-01
    2.9800020218e+01    9.8130100965e-01
    2.9900011063e+01    9.8522102833e-01
    3.0000030518e+01    9.8910796642e-01
    3.0099977493e+01    9.9895197153e-01
    3.0200006485e+01    1.0087909698e+00
    3.0299949646e+01    1.0185869932e+00
    3.0400007248e+01    1.0283679962e+00
    3.0499969482e+01    1.0381259918e+00
    3.0599927902e+01    1.0478509665e+00
    3.0699987411e+01    1.0575629473e+00
    3.0800060272e+01    1.0672529936e+00
    3.0900039673e+01    1.0768990517e+00
    3.0999963760e+01    1.0864959955e+00
    3.1100059509e+01    1.0960990191e+00
    3.1200065613e+01    1.1056779623e+00
    3.1300043106e+01    1.1152479649e+00
    3.1400012970e+01    1.1247979403e+00
    3.1500053406e+01    1.1343549490e+00
    3.1599956512e+01    1.1438699961e+00
    3.1700004578e+01    1.1533830166e+00
    3.1799985886e+01    1.1628760099e+00
    3.1900049210e+01    1.1723510027e+00
    3.2000019073e+01    1.1817829609e+00
    3.2100021362e+01    1.1911909580e+00
    3.2200027466e+01    1.2005659342e+00
    3.2299896240e+01    1.2098889351e+00
    3.2399921417e+01    1.2191969156e+00
    3.2500053406e+01    1.2284799814e+00
    3.2599964142e+01    1.2377189398e+00
    3.2699958801e+01    1.2469329834e+00
    3.2799972534e+01    1.2561149597e+00
    3.2899932861e+01    1.2652529478e+00
    3.2999946594e+01    1.2743608952e+00
    3.3099956512e+01    1.2834309340e+00
    3.3200050354e+01    1.2924729586e+00
    3.3299980164e+01    1.3014739752e+00
    3.3399986267e+01    1.3104560375e+00
    3.3500026703e+01    1.3194139004e+00
    3.3599929810e+01    1.3283429146e+00
    3.3699920654e+01    1.3372468948e+00
    3.3799945831e+01    1.3461329937e+00
    3.3899971008e+01    1.3549919128e+00
    3.4000022888e+01    1.3638269901e+00
    3.4099967957e+01    1.3726109266e+00
    3.4200031281e+01    1.3813760281e+00
    3.4299991608e+01    1.3900859356e+00
    3.4399997711e+01    1.3987649679e+00
    3.4499969482e+01    1.4073939323e+00
    3.4599987030e+01    1.4159948826e+00
    3.4700038910e+01    1.4245738983e+00
    3.4799896240e+01    1.4331018925e+00
    3.4899944305e+01    1.4416089058e+00
    3.5000022888e+01    1.4500939846e+00
    3.5099899292e+01    1.4585191011e+00
    3.5200019836e+01    1.4669249058e+00
    3.5299957275e+01    1.4752819538e+00
    3.5400020599e+01    1.4836189747e+00
    3.5499973297e+01    1.4919079542e+00
    3.5599994659e+01    1.5001729727e+00
    3.5699958801e+01    1.5083971024e+00
    3.5799915314e+01    1.5165948868e+00
    3.5899986267e+01    1.5247499943e+00
    3.6000007629e+01    1.5328699350e+00
    3.6099834442e+01    1.5409420729e+00
    3.6199829102e+01    1.5489828587e+00
    3.6299858093e+01    1.5569779873e+00
    3.6399887085e+01    1.5649240017e+00
    3.6499965668e+01    1.5728280544e+00
    3.6599861145e+01    1.5806629658e+00
    3.6699977875e+01    1.5884821415e+00
    3.6799884796e+01    1.5962309837e+00
    3.6899868011e+01    1.6039609909e+00
    3.7000000000e+01    1.6116600037e+00
    3.7099826813e+01    1.6193079948e+00
    3.7199993134e+01    1.6269389391e+00
    3.7299999237e+01    1.6345210075e+00
    3.7399833679e+01    1.6420478821e+00
    3.7499885559e+01    1.6495671272e+00
    3.7599887848e+01    1.6570439339e+00
    3.7699905396e+01    1.6644830704e+00
    3.7799926758e+01    1.6718859673e+00
    3.7899852753e+01    1.6792480946e+00
    3.7999881744e+01    1.6865808964e+00
    3.8099922180e+01    1.6938780546e+00
    3.8199855804e+01    1.7011328936e+00
    3.8299934387e+01    1.7083650827e+00
    3.8399871826e+01    1.7155429125e+00
    3.8499889374e+01    1.7226850986e+00
    3.8599884033e+01    1.7297699451e+00
    3.8699882507e+01    1.7368240356e+00
    3.8799812317e+01    1.7438288927e+00
    3.8899814606e+01    1.7508000135e+00
    3.8999797821e+01    1.7577248812e+00
    3.9099895477e+01    1.7646380663e+00
    3.9199844360e+01    1.7714939117e+00
    3.9299861908e+01    1.7783180475e+00
    3.9399944305e+01    1.7851119041e+00
    3.9499946594e+01    1.7918500900e+00
    3.9599903107e+01    1.7985630035e+00
    3.9699886322e+01    1.8052240610e+00
    3.9799957275e+01    1.8118588924e+00
    3.9899921417e+01    1.8184349537e+00
    3.9999809265e+01    1.8249748945e+00
    4.0099941254e+01    1.8392571211e+00
    4.0199787140e+01    1.8534840345e+00
    4.0299869537e+01    1.8676940203e+00
    4.0399929047e+01    1.8818640709e+00
    4.0499782562e+01    1.8959549665e+00
    4.0599948883e+01    1.9100530148e+00
    4.0699897766e+01    1.9240869284e+00
    4.0799831390e+01    1.9380570650e+00
    4.0899837494e+01    1.9519820213e+00
    4.0999752045e+01    1.9658440351e+00
    4.1099769592e+01    1.9796839952e+00
    4.1199775696e+01    1.9934840202e+00
    4.1299812317e+01    2.0072789192e+00
    4.1399841309e+01    2.0210418701e+00
    4.1499851227e+01    2.0347800255e+00
    4.1599895477e+01    2.0484859943e+00
    4.1699802399e+01    2.0621471405e+00
    4.1799865723e+01    2.0757880211e+00
    4.1899848938e+01    2.0893709660e+00
    4.1999832153e+01    2.1029069424e+00
    4.2099906921e+01    2.1163997650e+00
    4.2199810028e+01    2.1298179626e+00
    4.2299758911e+01    2.1431820393e+00
    4.2399814606e+01    2.1564989090e+00
    4.2499809265e+01    2.1697659492e+00
    4.2599796295e+01    2.1829710007e+00
    4.2699745178e+01    2.1961228848e+00
    4.2799892426e+01    2.2092359066e+00
    4.2899875641e+01    2.2222788334e+00
    4.2999862671e+01    2.2352471352e+00
    4.3099845886e+01    2.2481551170e+00
    4.3199832916e+01    2.2610039711e+00
    4.3299884796e+01    2.2738208771e+00
    4.3399837494e+01    2.2865769863e+00
    4.3499855042e+01    2.2992949486e+00
    4.3599899292e+01    2.3119668961e+00
    4.3699829102e+01    2.3245880604e+00
    4.3799827576e+01    2.3371779919e+00
    4.3899833679e+01    2.3497171402e+00
    4.3999832153e+01    2.3621900082e+00
    4.4099826813e+01    2.3746149540e+00
    4.4199737549e+01    2.3869571686e+00
    4.4299892426e+01    2.3992738724e+00
    4.4399868011e+01    2.4114999771e+00
    4.4499702454e+01    2.4236400127e+00
    4.4599742889e+01    2.4357600212e+00
    4.4699775696e+01    2.4478099346e+00
    4.4799800873e+01    2.4598097801e+00
    4.4899864197e+01    2.4717698097e+00
    4.4999713898e+01    2.4836401939e+00
    4.5099708557e+01    2.4954700470e+00
    4.5199810028e+01    2.5072500706e+00
    4.5299716949e+01    2.5189399719e+00
    4.5399738312e+01    2.5305900574e+00
    4.5499870300e+01    2.5422000885e+00
    4.5599754333e+01    2.5537300110e+00
    4.5699707031e+01    2.5652101040e+00
    4.5799831390e+01    2.5766501427e+00
    4.5899711609e+01    2.5880000591e+00
    4.5999748230e+01    2.5993099213e+00
    4.6099834442e+01    2.6105699539e+00
    4.6199802399e+01    2.6217298508e+00
    4.6299800873e+01    2.6328399181e+00
    4.6399692535e+01    2.6438500881e+00
    4.6499713898e+01    2.6547999382e+00
    4.6599819183e+01    2.6656799316e+00
    4.6699840546e+01    2.6764900684e+00
    4.6799701691e+01    2.6872100830e+00
    4.6899787903e+01    2.6978998184e+00
    4.6999794006e+01    2.7085299492e+00
    4.7099784851e+01    2.7190899849e+00
    4.7199695587e+01    2.7295799255e+00
    4.7299804688e+01    2.7400400639e+00
    4.7399776459e+01    2.7504200935e+00
    4.7499843597e+01    2.7607598305e+00
    4.7599708557e+01    2.7710201740e+00
    4.7699691772e+01    2.7812299728e+00
    4.7799755096e+01    2.7913899422e+00
    4.7899799347e+01    2.8014898300e+00
    4.7999759674e+01    2.8115401268e+00
    4.8099727631e+01    2.8215203285e+00
    4.8199680328e+01    2.8314499855e+00
    4.8299709320e+01    2.8413200378e+00
    4.8399784088e+01    2.8511300087e+00
    4.8499725342e+01    2.8608601093e+00
    4.8599765778e+01    2.8705396652e+00
    4.8699726105e+01    2.8801300526e+00
    4.8799701691e+01    2.8896703720e+00
    4.8899768829e+01    2.8991398811e+00
    4.8999675751e+01    2.9085402489e+00
    4.9099800110e+01    2.9179198742e+00
    4.9199691772e+01    2.9272000790e+00
    4.9299644470e+01    2.9364397526e+00
    4.9399677277e+01    2.9456200600e+00
    4.9499786377e+01    2.9547398090e+00
    4.9599704742e+01    2.9637899399e+00
    4.9699722290e+01    2.9727802277e+00
    4.9799629211e+01    2.9816999435e+00
    4.9899761200e+01    2.9905700684e+00
    4.9999683380e+01    2.9993398190e+00
    5.0099693298e+01    3.0176401138e+00
    5.0199775696e+01    3.0359101295e+00
    5.0299724579e+01    3.0540800095e+00
    5.0399742126e+01    3.0722198486e+00
    5.0499668121e+01    3.0902600288e+00
    5.0599678040e+01    3.1082401276e+00
    5.0699630737e+01    3.1261599064e+00
    5.0799720764e+01    3.1440098286e+00
    5.0899765015e+01    3.1617698669e+00
    5.0999656677e+01    3.1794300079e+00
    5.1099712372e+01    3.1970601082e+00
    5.1199718475e+01    3.2146298885e+00
    5.1299747467e+01    3.2321498394e+00
    5.1399620056e+01    3.2496099472e+00
    5.1499671936e+01    3.2670500278e+00
    5.1599685669e+01    3.2844400406e+00
    5.1699718475e+01    3.3017797470e+00
    5.1799606323e+01    3.3190202713e+00
    5.1899761200e+01    3.3362400532e+00
    5.1999633789e+01    3.3533499241e+00
    5.2099731445e+01    3.3703999519e+00
    5.2199714661e+01    3.3873596191e+00
    5.2299598694e+01    3.4042000771e+00
    5.2399673462e+01    3.4210000038e+00
    5.2499603271e+01    3.4376897812e+00
    5.2599750519e+01    3.4543399811e+00
    5.2699607849e+01    3.4708600044e+00
    5.2799686432e+01    3.4873299599e+00
    5.2899692535e+01    3.5036997795e+00
    5.2999664307e+01    3.5199799538e+00
    5.3099590302e+01    3.5361402035e+00
    5.3199596405e+01    3.5522499084e+00
    5.3299671173e+01    3.5682799816e+00
    5.3399654388e+01    3.5842299461e+00
    5.3499603271e+01    3.6001102924e+00
    5.3599712372e+01    3.6159400940e+00
    5.3699672699e+01    3.6316800117e+00
    5.3799583435e+01    3.6473498344e+00
    5.3899574280e+01    3.6629502773e+00
    5.3999687195e+01    3.6785101891e+00
    5.4099624634e+01    3.6939201355e+00
    5.4199634552e+01    3.7092800140e+00
    5.4299663544e+01    3.7245397568e+00
    5.4399547577e+01    3.7396800518e+00
    5.4499645233e+01    3.7547500134e+00
    5.4599685669e+01    3.7697398663e+00
    5.4699588776e+01    3.7846298218e+00
    5.4799594879e+01    3.7994501591e+00
    5.4899650574e+01    3.8142001629e+00
    5.4999568939e+01    3.8288500309e+00
    5.5099613190e+01    3.8434298038e+00
    5.5199722290e+01    3.8579297066e+00
    5.5299694061e+01    3.8723301888e+00
    5.5399608612e+01    3.8866300583e+00
    5.5499637604e+01    3.9008598328e+00
    5.5599674225e+01    3.9150297642e+00
    5.5699668884e+01    3.9291002750e+00
    5.5799541473e+01    3.9430799484e+00
    5.5899627686e+01    3.9569900036e+00
    5.5999656677e+01    3.9708199501e+00
    5.6099613190e+01    3.9845402241e+00
    5.6199653625e+01    3.9981801510e+00
    5.6299560547e+01    4.0116996765e+00
    5.6399532318e+01    4.0251097679e+00
    5.6499553680e+01    4.0384202003e+00
    5.6599662781e+01    4.0516405106e+00
    5.6699607849e+01    4.0647401810e+00
    5.6799545288e+01    4.0777502060e+00
    5.6899665833e+01    4.0907001495e+00
    5.6999614716e+01    4.1035404205e+00
    5.7099521637e+01    4.1162900925e+00
    5.7199523926e+01    4.1289701462e+00
    5.7299674988e+01    4.1415796280e+00
    5.7399566650e+01    4.1540699005e+00
    5.7499595642e+01    4.1665000916e+00
    5.7599620819e+01    4.1788396835e+00
    5.7699558258e+01    4.1910896301e+00
    5.7799518585e+01    4.2032499313e+00
    5.7899627686e+01    4.2153601646e+00
    5.7999576569e+01    4.2273597717e+00
    5.8099639893e+01    4.2392997742e+00
    5.8199581146e+01    4.2511301041e+00
    5.8299652100e+01    4.2628898621e+00
    5.8399593353e+01    4.2745499611e+00
    5.8499515533e+01    4.2860999107e+00
    5.8599624634e+01    4.2975797653e+00
    5.8699584961e+01    4.3089504242e+00
    5.8799510956e+01    4.3202199936e+00
    5.8899551392e+01    4.3314099312e+00
    5.8999591827e+01    4.3425197601e+00
    5.9099605560e+01    4.3535394669e+00
    5.9199497223e+01    4.3644599915e+00
    5.9299488068e+01    4.3752999306e+00
    5.9399654388e+01    4.3860902786e+00
    5.9499633789e+01    4.3967599869e+00
    5.9599586487e+01    4.4073400497e+00
    5.9699630737e+01    4.4178400040e+00
    5.9799552917e+01    4.4282302856e+00
    5.9899524689e+01    4.4385299683e+00
    5.9999519348e+01    4.4487304688e+00
    6.0099643707e+01    4.4700498581e+00
    6.0199581146e+01    4.4912796021e+00
    6.0299583435e+01    4.5124297142e+00
    6.0399501801e+01    4.5334701538e+00
    6.0499507904e+01    4.5544300079e+00
    6.0599502563e+01    4.5752897263e+00
    6.0699542999e+01    4.5960698128e+00
    6.0799564362e+01    4.6167302132e+00
    6.0899490356e+01    4.6372399330e+00
    6.0999588013e+01    4.6576995850e+00
    6.1099559784e+01    4.6780395508e+00
    6.1199512482e+01    4.6982994080e+00
    6.1299606323e+01    4.7185297012e+00
    6.1399570465e+01    4.7386703491e+00
    6.1499546051e+01    4.7587394714e+00
    6.1599517822e+01    4.7787303925e+00
    6.1699516296e+01    4.7986507416e+00
    6.1799499512e+01    4.8184700012e+00
    6.1899562836e+01    4.8382205963e+00
    6.1999618530e+01    4.8578596115e+00
    6.2099491119e+01    4.8773498535e+00
    6.2199600220e+01    4.8967704773e+00
    6.2299610138e+01    4.9160594940e+00
    6.2399501801e+01    4.9352092743e+00
    6.2499546051e+01    4.9542903900e+00
    6.2599575043e+01    4.9732398987e+00
    6.2699577332e+01    4.9920902252e+00
    6.2799491882e+01    5.0107994080e+00
    6.2899452209e+01    5.0293998718e+00
    6.2999519348e+01    5.0479001999e+00
    6.3099445343e+01    5.0662393570e+00
    6.3199558258e+01    5.0845098495e+00
    6.3299438477e+01    5.1026201248e+00
    6.3399513245e+01    5.1206903458e+00
    6.3499568939e+01    5.1386499405e+00
    6.3599418640e+01    5.1564798355e+00
    6.3699485779e+01    5.1742496490e+00
    6.3799503326e+01    5.1919202805e+00
    6.3899452209e+01    5.2094802856e+00
    6.3999488831e+01    5.2269401550e+00
    6.4099487305e+01    5.2442803383e+00
    6.4199447632e+01    5.2614803314e+00
    6.4299552917e+01    5.2785897255e+00
    6.4399536133e+01    5.2955594063e+00
    6.4499488831e+01    5.3123903275e+00
    6.4599418640e+01    5.3291101456e+00
    6.4699417114e+01    5.3457202911e+00
    6.4799423218e+01    5.3622393608e+00
    6.4899421692e+01    5.3786401749e+00
    6.4999542236e+01    5.3949599266e+00
    6.5099555969e+01    5.4111399651e+00
    6.5199523926e+01    5.4271998405e+00
    6.5299377441e+01    5.4431200027e+00
    6.5399513245e+01    5.4589796066e+00
    6.5499412537e+01    5.4746794701e+00
    6.5599411011e+01    5.4903006554e+00
    6.5699424744e+01    5.5058097839e+00
    6.5799400330e+01    5.5212097168e+00
    6.5899452209e+01    5.5365095139e+00
    6.5999427795e+01    5.5516405106e+00
    6.6099388123e+01    5.5666503906e+00
    6.6199417114e+01    5.5816202164e+00
    6.6299415588e+01    5.5963501930e+00
    6.6399398804e+01    5.6110501289e+00
    6.6499412537e+01    5.6254997253e+00
    6.6599380493e+01    5.6399197578e+00
    6.6699378967e+01    5.6541094780e+00
    6.6799461365e+01    5.6682496071e+00
    6.6899375916e+01    5.6822204590e+00
    6.6999488831e+01    5.6961202621e+00
    6.7099540710e+01    5.7098302841e+00
    6.7199363708e+01    5.7234797478e+00
    6.7299507141e+01    5.7370300293e+00
    6.7399497986e+01    5.7505097389e+00
    6.7499420166e+01    5.7637996674e+00
    6.7599533081e+01    5.7770295143e+00
    6.7699516296e+01    5.7900705338e+00
    6.7799362183e+01    5.8030400276e+00
    6.7899444580e+01    5.8159403801e+00
    6.7999511719e+01    5.8286299706e+00
    6.8099472046e+01    5.8413400650e+00
    6.8199531555e+01    5.8538098335e+00
    6.8299430847e+01    5.8662095070e+00
    6.8399414062e+01    5.8785595894e+00
    6.8499496460e+01    5.8906602859e+00
    6.8599418640e+01    5.9027800560e+00
    6.8699386597e+01    5.9146499634e+00
    6.8799392700e+01    5.9263896942e+00
    6.8899421692e+01    5.9381098747e+00
    6.8999366760e+01    5.9496297836e+00
    6.9099372864e+01    5.9611296654e+00
    6.9199440002e+01    5.9724001884e+00
    6.9299400330e+01    5.9836902618e+00
    6.9399444580e+01    5.9947400093e+00
    6.9499412537e+01    6.0057001114e+00
    6.9599327087e+01    6.0166497231e+00
    6.9699478149e+01    6.0274100304e+00
    6.9799331665e+01    6.0379495621e+00
    6.9899452209e+01    6.0484695435e+00
    6.9999389648e+01    6.0589203835e+00
    7.0099426270e+01    6.0802202225e+00
    7.0199493408e+01    6.1013898849e+00
    7.0299446106e+01    6.1225605011e+00
    7.0399475098e+01    6.1434903145e+00
    7.0499389648e+01    6.1643295288e+00
    7.0599334717e+01    6.1850304604e+00
    7.0699302673e+01    6.2057099342e+00
    7.0799377441e+01    6.2262096405e+00
    7.0899337769e+01    6.2464904785e+00
    7.0999313354e+01    6.2666401863e+00
    7.1099380493e+01    6.2867498398e+00
    7.1199310303e+01    6.3067002296e+00
    7.1299301147e+01    6.3265299797e+00
    7.1399375916e+01    6.3463497162e+00
    7.1499404907e+01    6.3660898209e+00
    7.1599403381e+01    6.3856401443e+00
    7.1699432373e+01    6.4051699638e+00
    7.1799438477e+01    6.4244995117e+00
    7.1899360657e+01    6.4438204765e+00
    7.1999351501e+01    6.4629001617e+00
    7.2099395752e+01    6.4819097519e+00
    7.2199386597e+01    6.5006904602e+00
    7.2299392700e+01    6.5194201469e+00
    7.2399284363e+01    6.5378594398e+00
    7.2499351501e+01    6.5563001633e+00
    7.2599441528e+01    6.5745902061e+00
    7.2699371338e+01    6.5926895142e+00
    7.2799301147e+01    6.6106605530e+00
    7.2899337769e+01    6.6285300255e+00
    7.2999397278e+01    6.6462497711e+00
    7.3099411011e+01    6.6637306213e+00
    7.3199302673e+01    6.6811099052e+00
    7.3299270630e+01    6.6984300613e+00
    7.3399269104e+01    6.7155203819e+00
    7.3499389648e+01    6.7325401306e+00
    7.3599426270e+01    6.7494702339e+00
    7.3699432373e+01    6.7661995888e+00
    7.3799377441e+01    6.7828202248e+00
    7.3899391174e+01    6.7993898392e+00
    7.3999351501e+01    6.8157296181e+00
    7.4099319458e+01    6.8319301605e+00
    7.4199348450e+01    6.8480501175e+00
    7.4299362183e+01    6.8640398979e+00
    7.4399276733e+01    6.8798003197e+00
    7.4499359131e+01    6.8954401016e+00
    7.4599411011e+01    6.9108595848e+00
    7.4699378967e+01    6.9262695312e+00
    7.4799385071e+01    6.9414401054e+00
    7.4899284363e+01    6.9565095901e+00
    7.4999252319e+01    6.9714303017e+00
    7.5099349976e+01    6.9862499237e+00
    7.5199287415e+01    7.0008897781e+00
    7.5299339294e+01    7.0154404640e+00
    7.5399238586e+01    7.0298199654e+00
    7.5499366760e+01    7.0440697670e+00
    7.5599395752e+01    7.0582394600e+00
    7.5699287415e+01    7.0722203255e+00
    7.5799400330e+01    7.0860700607e+00
    7.5899253845e+01    7.0996904373e+00
    7.5999336243e+01    7.1132702827e+00
    7.6099342346e+01    7.1267399788e+00
    7.6199371338e+01    7.1399497986e+00
    7.6299293518e+01    7.1530404091e+00
    7.6399307251e+01    7.1660299301e+00
    7.6499382019e+01    7.1788196564e+00
    7.6599235535e+01    7.1914305687e+00
    7.6699325562e+01    7.2039003372e+00
    7.6799224854e+01    7.2160892487e+00
    7.6899253845e+01    7.2282905579e+00
    7.6999343872e+01    7.2403402328e+00
    7.7099334717e+01    7.2521896362e+00
    7.7199234009e+01    7.2639303207e+00
    7.7299263000e+01    7.2755804062e+00
    7.7399253845e+01    7.2870101929e+00
    7.7499359131e+01    7.2983598709e+00
    7.7599250793e+01    7.3095703125e+00
    7.7699203491e+01    7.3206100464e+00
    7.7799331665e+01    7.3316392899e+00
    7.7899253845e+01    7.3424205780e+00
    7.7999282837e+01    7.3530302048e+00
    7.8099273682e+01    7.3636198044e+00
    7.8199310303e+01    7.3739604950e+00
    7.8299217224e+01    7.3842105865e+00
    7.8399223328e+01    7.3943805695e+00
    7.8499313354e+01    7.4043607712e+00
    7.8599311829e+01    7.4141292572e+00
    7.8699195862e+01    7.4237995148e+00
    7.8799255371e+01    7.4333391190e+00
    7.8899185181e+01    7.4427003860e+00
    7.8999282837e+01    7.4519500732e+00
    7.9099205017e+01    7.4610500336e+00
    7.9199302673e+01    7.4700403214e+00
    7.9299232483e+01    7.4788703918e+00
    7.9399223328e+01    7.4875297546e+00
    7.9499259949e+01    7.4961395264e+00
    7.9599235535e+01    7.5045394897e+00
    7.9699226379e+01    7.5128898621e+00
    7.9799232483e+01    7.5209798813e+00
    7.9899238586e+01    7.5290298462e+00
    7.9999221802e+01    7.5368404388e+00
    8.0099304199e+01    7.5562601089e+00
    8.0199310303e+01    7.5755691528e+00
    8.0299293518e+01    7.5947303772e+00
    8.0399322510e+01    7.6137399673e+00
    8.0499328613e+01    7.6326093674e+00
    8.0599273682e+01    7.6512603760e+00
    8.0699256897e+01    7.6698389053e+00
    8.0799240112e+01    7.6882705688e+00
    8.0899208069e+01    7.7065200806e+00
    8.0999267578e+01    7.7245798111e+00
    8.1099227905e+01    7.7425613403e+00
    8.1199195862e+01    7.7604103088e+00
    8.1299148560e+01    7.7782001495e+00
    8.1399139404e+01    7.7957000732e+00
    8.1499137878e+01    7.8131999969e+00
    8.1599281311e+01    7.8305997849e+00
    8.1699157715e+01    7.8478002548e+00
    8.1799186707e+01    7.8650007248e+00
    8.1899269104e+01    7.8819999695e+00
    8.1999237061e+01    7.8987998962e+00
    8.2099151611e+01    7.9154005051e+00
    8.2199302673e+01    7.9319009781e+00
    8.2299301147e+01    7.9483003616e+00
    8.2399291992e+01    7.9644994736e+00
    8.2499130249e+01    7.9805002213e+00
    8.2599143982e+01    7.9962987900e+00
    8.2699134827e+01    8.0120010376e+00
    8.2799156189e+01    8.0275001526e+00
    8.2899230957e+01    8.0430002213e+00
    8.2999198914e+01    8.0581007004e+00
    8.3099220276e+01    8.0731992722e+00
    8.3199157715e+01    8.0879993439e+00
    8.3299232483e+01    8.1028003693e+00
    8.3399177551e+01    8.1173000336e+00
    8.3499122620e+01    8.1316995621e+00
    8.3599105835e+01    8.1459989548e+00
    8.3699195862e+01    8.1602010727e+00
    8.3799148560e+01    8.1742000580e+00
    8.3899253845e+01    8.1881008148e+00
    8.3999259949e+01    8.2018003464e+00
    8.4099105835e+01    8.2154006958e+00
    8.4199127197e+01    8.2286996841e+00
    8.4299171448e+01    8.2418994904e+00
    8.4399276733e+01    8.2550001144e+00
    8.4499244690e+01    8.2678003311e+00
    8.4599136353e+01    8.2804994583e+00
    8.4699180603e+01    8.2930994034e+00
    8.4799186707e+01    8.3055000305e+00
    8.4899238586e+01    8.3176994324e+00
    8.4999252319e+01    8.3297996521e+00
    8.5099166870e+01    8.3418006897e+00
    8.5199203491e+01    8.3536005020e+00
    8.5299133301e+01    8.3652000427e+00
    8.5399215698e+01    8.3767013550e+00
    8.5499084473e+01    8.3879995346e+00
    8.5599105835e+01    8.3992004395e+00
    8.5699226379e+01    8.4102993011e+00
    8.5799163818e+01    8.4212007523e+00
    8.5899246216e+01    8.4317998886e+00
    8.5999076843e+01    8.4423999786e+00
    8.6099128723e+01    8.4527997971e+00
    8.6199073792e+01    8.4630994797e+00
    8.6299217224e+01    8.4730997086e+00
    8.6399215698e+01    8.4829988480e+00
    8.6499237061e+01    8.4927005768e+00
    8.6599082947e+01    8.5022010803e+00
    8.6699096680e+01    8.5115003586e+00
    8.6799194336e+01    8.5207004547e+00
    8.6899200439e+01    8.5297002792e+00
    8.6999214172e+01    8.5385999680e+00
    8.7099174500e+01    8.5472002029e+00
    8.7199073792e+01    8.5558996201e+00
    8.7299118042e+01    8.5642004013e+00
    8.7399047852e+01    8.5724992752e+00
    8.7499076843e+01    8.5805997849e+00
    8.7599090576e+01    8.5885992050e+00
    8.7699226379e+01    8.5963993073e+00
    8.7799179077e+01    8.6040000916e+00
    8.7899223328e+01    8.6114997864e+00
    8.7999160767e+01    8.6189002991e+00
    8.8099220276e+01    8.6261005402e+00
    8.8199180603e+01    8.6331996918e+00
    8.8299087524e+01    8.6401987076e+00
    8.8399131775e+01    8.6469001770e+00
    8.8499206543e+01    8.6534996033e+00
    8.8599098206e+01    8.6599988937e+00
    8.8699096680e+01    8.6660995483e+00
    8.8799209595e+01    8.6723003387e+00
    8.8899154663e+01    8.6782999039e+00
    8.8999183655e+01    8.6841011047e+00
    8.9099166870e+01    8.6897001266e+00
    8.9199157715e+01    8.6953001022e+00
    8.9299041748e+01    8.7005996704e+00
    8.9399047852e+01    8.7057991028e+00
    8.9499176025e+01    8.7109003067e+00
    8.9599075317e+01    8.7158002853e+00
    8.9699188232e+01    8.7206010818e+00
    8.9799171448e+01    8.7252998352e+00
    8.9899032593e+01    8.7297010422e+00
    8.9999038696e+01    8.7340002060e+00
    9.0099159241e+01    8.7525987625e+00
    9.0199005127e+01    8.7709989548e+00
    9.0299125671e+01    8.7893991470e+00
    9.0399063110e+01    8.8076000214e+00
    9.0499130249e+01    8.8257007599e+00
    9.0599159241e+01    8.8434991837e+00
    9.0699081421e+01    8.8612003326e+00
    9.0799171448e+01    8.8788003922e+00
    9.0899009705e+01    8.8961009979e+00
    9.0999168396e+01    8.9133996964e+00
    9.1099151611e+01    8.9303989410e+00
    9.1199073792e+01    8.9474000931e+00
    9.1299057007e+01    8.9641990662e+00
    9.1398994446e+01    8.9809007645e+00
    9.1499046326e+01    8.9975004196e+00
    9.1599113464e+01    9.0140008926e+00
    9.1699127197e+01    9.0303001404e+00
    9.1799171448e+01    9.0465002060e+00
    9.1899078369e+01    9.0625000000e+00
    9.1999114990e+01    9.0784006119e+00
    9.2099098206e+01    9.0940990448e+00
    9.2199127197e+01    9.1095991135e+00
    9.2299110413e+01    9.1249008179e+00
    9.2399101257e+01    9.1401004791e+00
    9.2499023438e+01    9.1550998688e+00
    9.2599098206e+01    9.1699008942e+00
    9.2699005127e+01    9.1846008301e+00
    9.2799041748e+01    9.1989994049e+00
    9.2899116516e+01    9.2133998871e+00
    9.2999008179e+01    9.2275009155e+00
    9.3099113464e+01    9.2413997650e+00
    9.3199012756e+01    9.2551002502e+00
    9.3299034119e+01    9.2688007355e+00
    9.3399032593e+01    9.2821998596e+00
    9.3499137878e+01    9.2954998016e+00
    9.3599136353e+01    9.3087005615e+00
    9.3699119568e+01    9.3216991425e+00
    9.3798965454e+01    9.3344993591e+00
    9.3899009705e+01    9.3472995758e+00
    9.3998992920e+01    9.3598003387e+00
    9.4099067688e+01    9.3722000122e+00
    9.4199058533e+01    9.3843002319e+00
    9.4298950195e+01    9.3964004517e+00
    9.4398979187e+01    9.4081993103e+00
    9.4499099731e+01    9.4198989868e+00
    9.4599098206e+01    9.4313011169e+00
    9.4699066162e+01    9.4426002502e+00
    9.4798995972e+01    9.4537010193e+00
    9.4898948669e+01    9.4646987915e+00
    9.4998939514e+01    9.4755001068e+00
    9.5099014282e+01    9.4862003326e+00
    9.5198974609e+01    9.4967002869e+00
    9.5298995972e+01    9.5069999695e+00
    9.5399063110e+01    9.5170993805e+00
    9.5499069214e+01    9.5270996094e+00
    9.5598960876e+01    9.5368995667e+00
    9.5698982239e+01    9.5466003418e+00
    9.5799026489e+01    9.5562000275e+00
    9.5899078369e+01    9.5654010773e+00
    9.5998947144e+01    9.5746994019e+00
    9.6098976135e+01    9.5836009979e+00
    9.6198974609e+01    9.5924987793e+00
    9.6299003601e+01    9.6011009216e+00
    9.6399070740e+01    9.6095008850e+00
    9.6498947144e+01    9.6177005768e+00
    9.6598953247e+01    9.6256999969e+00
    9.6698928833e+01    9.6336002350e+00
    9.6799049377e+01    9.6411991119e+00
    9.6898971558e+01    9.6487007141e+00
    9.6999076843e+01    9.6559982300e+00
    9.7098937988e+01    9.6631984711e+00
    9.7198974609e+01    9.6701984406e+00
    9.7298912048e+01    9.6771011353e+00
    9.7399055481e+01    9.6837005615e+00
    9.7499008179e+01    9.6902999878e+00
    9.7598922729e+01    9.6967010498e+00
    9.7698928833e+01    9.7028999329e+00
    9.7799018860e+01    9.7089004517e+00
    9.7899002075e+01    9.7149009705e+00
    9.7998908997e+01    9.7206001282e+00
    9.8098945618e+01    9.7262001038e+00
    9.8198989868e+01    9.7317008972e+00
    9.8298927307e+01    9.7369995117e+00
    9.8399032593e+01    9.7420997620e+00
    9.8498947144e+01    9.7469997406e+00
    9.8599029541e+01    9.7516994476e+00
    9.8698898315e+01    9.7564010620e+00
    9.8798881531e+01    9.7607994080e+00
    9.8899024963e+01    9.7649993896e+00
    9.8998886108e+01    9.7691001892e+00
    9.9098922729e+01    9.7730007172e+00
    9.9199020386e+01    9.7768001556e+00
    9.9299049377e+01    9.7805004120e+00
    9.9398948669e+01    9.7840003967e+00
    9.9498939514e+01    9.7874011993e+00
    9.9598899841e+01    9.7905006409e+00
    9.9698875427e+01    9.7934989929e+00
    9.9798973083e+01    9.7964000702e+00
    9.9898933411e+01    9.7991008759e+00
    9.9998931885e+01    9.8015003204e+00
    1.0009902954e+02    9.8213996887e+00
    1.0019895935e+02    9.8411006927e+00
    1.0029888916e+02    9.8607006073e+00
    1.0039891815e+02    9.8801994324e+00
    1.0049889374e+02    9.8994007111e+00
    1.0059890747e+02    9.9185009003e+00
    1.0069886017e+02    9.9375000000e+00
    1.0079886627e+02    9.9561977386e+00
    1.0089900970e+02    9.9747982025e+00
    1.0099894714e+02    9.9931011200e+00
    1.0109899139e+02    1.0011398315e+01
    1.0119901276e+02    1.0029500961e+01
    1.0129894257e+02    1.0047498703e+01
    1.0139893341e+02    1.0065401077e+01
    1.0149890137e+02    1.0083099365e+01
    1.0159886932e+02    1.0100801468e+01
    1.0169893646e+02    1.0118299484e+01
    1.0179895020e+02    1.0135601044e+01
    1.0189888000e+02    1.0152799606e+01
    1.0199893188e+02    1.0169900894e+01
    1.0209889221e+02    1.0186698914e+01
    1.0219882965e+02    1.0203302383e+01
    1.0229891968e+02    1.0219799042e+01
    1.0239894867e+02    1.0236101151e+01
    1.0249891663e+02    1.0252199173e+01
    1.0259889984e+02    1.0268100739e+01
    1.0269891357e+02    1.0283798218e+01
    1.0279884338e+02    1.0299301147e+01
    1.0289882660e+02    1.0314598083e+01
    1.0299896240e+02    1.0329700470e+01
    1.0309884644e+02    1.0344697952e+01
    1.0319883728e+02    1.0359500885e+01
    1.0329885864e+02    1.0373998642e+01
    1.0339890289e+02    1.0388500214e+01
    1.0349893188e+02    1.0402698517e+01
    1.0359889221e+02    1.0416799545e+01
    1.0369889832e+02    1.0430801392e+01
    1.0379881287e+02    1.0444601059e+01
    1.0389884186e+02    1.0458301544e+01
    1.0399883270e+02    1.0471799850e+01
    1.0409895325e+02    1.0485000610e+01
    1.0419892883e+02    1.0498098373e+01
    1.0429884338e+02    1.0511100769e+01
    1.0439891815e+02    1.0523797989e+01
    1.0449884796e+02    1.0536201477e+01
    1.0459883881e+02    1.0548500061e+01
    1.0469892883e+02    1.0560699463e+01
    1.0479882050e+02    1.0572599411e+01
    1.0489888000e+02    1.0584501266e+01
    1.0499884796e+02    1.0595998764e+01
    1.0509893036e+02    1.0607599258e+01
    1.0519892883e+02    1.0618801117e+01
    1.0529891205e+02    1.0629899979e+01
    1.0539888000e+02    1.0640798569e+01
    1.0549889374e+02    1.0651500702e+01
    1.0559893799e+02    1.0662101746e+01
    1.0569888306e+02    1.0672500610e+01
    1.0579888153e+02    1.0682701111e+01
    1.0589882660e+02    1.0692699432e+01
    1.0599890137e+02    1.0702497482e+01
    1.0609880829e+02    1.0712299347e+01
    1.0619891357e+02    1.0721700668e+01
    1.0629891968e+02    1.0730998993e+01
    1.0639891815e+02    1.0740100861e+01
    1.0649886322e+02    1.0748899460e+01
    1.0659889984e+02    1.0757501602e+01
    1.0669886780e+02    1.0765899658e+01
    1.0679878998e+02    1.0774099350e+01
    1.0689890289e+02    1.0782197952e+01
    1.0699884033e+02    1.0790000916e+01
    1.0709887695e+02    1.0797798157e+01
    1.0719886017e+02    1.0805301666e+01
    1.0729892731e+02    1.0812698364e+01
    1.0739888000e+02    1.0819900513e+01
    1.0749880981e+02    1.0826900482e+01
    1.0759884644e+02    1.0833801270e+01
    1.0769880676e+02    1.0840499878e+01
    1.0779876709e+02    1.0847000122e+01
    1.0789891052e+02    1.0853399277e+01
    1.0799880981e+02    1.0859600067e+01
    1.0809876251e+02    1.0865697861e+01
    1.0819879150e+02    1.0871500015e+01
    1.0829882812e+02    1.0877298355e+01
    1.0839884949e+02    1.0882801056e+01
    1.0849874878e+02    1.0888099670e+01
    1.0859873199e+02    1.0893301010e+01
    1.0869891357e+02    1.0898200989e+01
    1.0879885101e+02    1.0902999878e+01
    1.0889880371e+02    1.0907602310e+01
    1.0899874878e+02    1.0912099838e+01
    1.0909882355e+02    1.0916400909e+01
    1.0919873810e+02    1.0920499802e+01
    1.0929882050e+02    1.0924402237e+01
    1.0939888763e+02    1.0928298950e+01
    1.0949877930e+02    1.0931901932e+01
    1.0959877777e+02    1.0935400009e+01
    1.0969877625e+02    1.0938901901e+01
    1.0979876709e+02    1.0942098618e+01
    1.0989875793e+02    1.0945201874e+01
    1.0999880219e+02    1.0948198318e+01
    1.1009886169e+02    1.0972198486e+01
    1.1019870758e+02    1.0996198654e+01
    1.1029881287e+02    1.1020200729e+01
    1.1039881897e+02    1.1044099808e+01
    1.1049880981e+02    1.1067901611e+01
    1.1059874725e+02    1.1091400146e+01
    1.1069873810e+02    1.1114900589e+01
    1.1079885101e+02    1.1138301849e+01
    1.1089878082e+02    1.1161500931e+01
    1.1099881744e+02    1.1184497833e+01
    1.1109870911e+02    1.1207397461e+01
    1.1119877625e+02    1.1230199814e+01
    1.1129882050e+02    1.1252899170e+01
    1.1139884186e+02    1.1275600433e+01
    1.1149875641e+02    1.1298099518e+01
    1.1159871674e+02    1.1320499420e+01
    1.1169876862e+02    1.1342901230e+01
    1.1179882050e+02    1.1365198135e+01
    1.1189884186e+02    1.1387201309e+01
    1.1199886322e+02    1.1409099579e+01
    1.1209867859e+02    1.1430799484e+01
    1.1219873810e+02    1.1452400208e+01
    1.1229868317e+02    1.1473701477e+01
    1.1239874268e+02    1.1494998932e+01
    1.1249874115e+02    1.1516002655e+01
    1.1259877014e+02    1.1536899567e+01
    1.1269883728e+02    1.1557697296e+01
    1.1279879761e+02    1.1578300476e+01
    1.1289877319e+02    1.1598697662e+01
    1.1299874878e+02    1.1618797302e+01
    1.1309880829e+02    1.1638900757e+01
    1.1319882965e+02    1.1658798218e+01
    1.1329881287e+02    1.1678401947e+01
    1.1339878845e+02    1.1697898865e+01
    1.1349877930e+02    1.1717300415e+01
    1.1359870148e+02    1.1736499786e+01
    1.1369879150e+02    1.1755599976e+01
    1.1379875946e+02    1.1774497986e+01
    1.1389871216e+02    1.1793399811e+01
    1.1399874115e+02    1.1811901093e+01
    1.1409877014e+02    1.1830299377e+01
    1.1419879913e+02    1.1848598480e+01
    1.1429881287e+02    1.1866699219e+01
    1.1439880371e+02    1.1884601593e+01
    1.1449871063e+02    1.1902400970e+01
    1.1459874725e+02    1.1919998169e+01
    1.1469879913e+02    1.1937602997e+01
    1.1479876709e+02    1.1955101013e+01
    1.1489865112e+02    1.1972499847e+01
    1.1499873352e+02    1.1989902496e+01
    1.1509873962e+02    1.2007301331e+01
    1.1519866180e+02    1.2024600983e+01
    1.1529866028e+02    1.2041900635e+01
    1.1539875031e+02    1.2059200287e+01
    1.1549871063e+02    1.2076599121e+01
    1.1559868622e+02    1.2093803406e+01
    1.1569869232e+02    1.2111099243e+01
    1.1579863739e+02    1.2128498077e+01
    1.1589862823e+02    1.2145801544e+01
    1.1599868774e+02    1.2163097382e+01
    1.1609874725e+02    1.2180301666e+01
    1.1619870758e+02    1.2197502136e+01
    1.1629866028e+02    1.2214500427e+01
    1.1639874268e+02    1.2231502533e+01
    1.1649867249e+02    1.2248298645e+01
    1.1659861755e+02    1.2264900208e+01
    1.1669870758e+02    1.2281402588e+01
    1.1679865265e+02    1.2297798157e+01
    1.1689875031e+02    1.2314102173e+01
    1.1699867249e+02    1.2330200195e+01
    1.1709877014e+02    1.2346199036e+01
    1.1719859314e+02    1.2362098694e+01
    1.1729872131e+02    1.2377899170e+01
    1.1739877319e+02    1.2393497467e+01
    1.1749864197e+02    1.2409099579e+01
    1.1759870148e+02    1.2424598694e+01
    1.1769869995e+02    1.2439998627e+01
    1.1779873657e+02    1.2455200195e+01
    1.1789877319e+02    1.2470497131e+01
    1.1799870300e+02    1.2485599518e+01
    1.1809868622e+02    1.2500801086e+01
    1.1819867706e+02    1.2515998840e+01
    1.1829869080e+02    1.2531097412e+01
    1.1839862061e+02    1.2546100616e+01
    1.1849871826e+02    1.2561298370e+01
    1.1859860992e+02    1.2576198578e+01
    1.1869872284e+02    1.2591300964e+01
    1.1879862213e+02    1.2606197357e+01
    1.1889861298e+02    1.2620998383e+01
    1.1899871063e+02    1.2636100769e+01
    1.1909858704e+02    1.2650901794e+01
    1.1919867706e+02    1.2665901184e+01
    1.1929872131e+02    1.2680698395e+01
    1.1939861298e+02    1.2695598602e+01
    1.1949868774e+02    1.2710498810e+01
    1.1959864044e+02    1.2725299835e+01
    1.1969863129e+02    1.2740097046e+01
    1.1979869843e+02    1.2754901886e+01
    1.1989866638e+02    1.2769798279e+01
    1.1999858093e+02    1.2784599304e+01
    1.2009867859e+02    1.2822700500e+01
    1.2019856262e+02    1.2861099243e+01
    1.2029869843e+02    1.2899600983e+01
    1.2039855957e+02    1.2937999725e+01
    1.2049855804e+02    1.2976600647e+01
    1.2059868622e+02    1.3015197754e+01
    1.2069870758e+02    1.3053897858e+01
    1.2079866791e+02    1.3092498779e+01
    1.2089855194e+02    1.3131000519e+01
    1.2099855042e+02    1.3169601440e+01
    1.2109855652e+02    1.3208202362e+01
    1.2119862366e+02    1.3246799469e+01
    1.2129860687e+02    1.3285499573e+01
    1.2139871216e+02    1.3324302673e+01
    1.2149852753e+02    1.3362899780e+01
    1.2159870148e+02    1.3401699066e+01
    1.2169860077e+02    1.3440498352e+01
    1.2179860687e+02    1.3479198456e+01
    1.2189859009e+02    1.3517700195e+01
    1.2199865723e+02    1.3556400299e+01
    1.2209867859e+02    1.3594799042e+01
    1.2219856262e+02    1.3633197784e+01
    1.2229859161e+02    1.3671497345e+01
    1.2239865875e+02    1.3709796906e+01
    1.2249858856e+02    1.3748001099e+01
    1.2259868622e+02    1.3786197662e+01
    1.2269857788e+02    1.3824199677e+01
    1.2279862213e+02    1.3862300873e+01
    1.2289856720e+02    1.3900302887e+01
    1.2299864960e+02    1.3938201904e+01
    1.2309861755e+02    1.3976001740e+01
    1.2319857025e+02    1.4013698578e+01
    1.2329866791e+02    1.4051498413e+01
    1.2339864349e+02    1.4089099884e+01
    1.2349857330e+02    1.4126800537e+01
    1.2359851074e+02    1.4164402008e+01
    1.2369857788e+02    1.4202098846e+01
    1.2379863739e+02    1.4239700317e+01
    1.2389861298e+02    1.4277400970e+01
    1.2399857330e+02    1.4314899445e+01
    1.2409866333e+02    1.4352500916e+01
    1.2419859314e+02    1.4389999390e+01
    1.2429862976e+02    1.4427497864e+01
    1.2439855957e+02    1.4464900970e+01
    1.2449858093e+02    1.4502300262e+01
    1.2459860992e+02    1.4539699554e+01
    1.2469847870e+02    1.4576999664e+01
    1.2479860687e+02    1.4614501953e+01
    1.2489862823e+02    1.4651901245e+01
    1.2499848175e+02    1.4689201355e+01
    1.2509848785e+02    1.4726600647e+01
    1.2519853210e+02    1.4764099121e+01
    1.2529847717e+02    1.4801399231e+01
    1.2539849854e+02    1.4838699341e+01
    1.2549852753e+02    1.4875999451e+01
    1.2559858704e+02    1.4913299561e+01
    1.2569860840e+02    1.4950500488e+01
    1.2579850769e+02    1.4987697601e+01
    1.2589858246e+02    1.5024902344e+01
    1.2599852753e+02    1.5062000275e+01
    1.2609851837e+02    1.5098999023e+01
    1.2619860077e+02    1.5135997772e+01
    1.2629859924e+02    1.5172901154e+01
    1.2639849854e+02    1.5209701538e+01
    1.2649848175e+02    1.5246402740e+01
    1.2659853363e+02    1.5283000946e+01
    1.2669847870e+02    1.5319499969e+01
    1.2679846954e+02    1.5355899811e+01
    1.2689852905e+02    1.5392299652e+01
    1.2699861908e+02    1.5428600311e+01
    1.2709854126e+02    1.5464698792e+01
    1.2719860840e+02    1.5500900269e+01
    1.2729846954e+02    1.5536899567e+01
    1.2739855194e+02    1.5572799683e+01
    1.2749859619e+02    1.5608699799e+01
    1.2759858704e+02    1.5644500732e+01
    1.2769860077e+02    1.5680099487e+01
    1.2779853821e+02    1.5715702057e+01
    1.2789846802e+02    1.5751197815e+01
    1.2799845123e+02    1.5786598206e+01
    1.2809846497e+02    1.5822101593e+01
    1.2819851685e+02    1.5857395172e+01
    1.2829855347e+02    1.5892799377e+01
    1.2839849854e+02    1.5928096771e+01
    1.2849847412e+02    1.5963302612e+01
    1.2859855652e+02    1.5998497009e+01
    1.2869859314e+02    1.6033500671e+01
    1.2879861450e+02    1.6068595886e+01
    1.2889855957e+02    1.6103504181e+01
    1.2899859619e+02    1.6138599396e+01
    1.2909864807e+02    1.6173503876e+01
    1.2919850159e+02    1.6208301544e+01
    1.2929866028e+02    1.6243202209e+01
    1.2939849854e+02    1.6277801514e+01
    1.2949856567e+02    1.6312595367e+01
    1.2959854126e+02    1.6347202301e+01
    1.2969856262e+02    1.6381797791e+01
    1.2979859924e+02    1.6416202545e+01
    1.2989860535e+02    1.6450496674e+01
    1.2999867249e+02    1.6484703064e+01
    1.3009855652e+02    1.6544097900e+01
    1.3019866943e+02    1.6603897095e+01
    1.3029856873e+02    1.6663398743e+01
    1.3039860535e+02    1.6722900391e+01
    1.3049873352e+02    1.6782497406e+01
    1.3059861755e+02    1.6841701508e+01
    1.3069860840e+02    1.6900901794e+01
    1.3079870605e+02    1.6959899902e+01
    1.3089869690e+02    1.7018699646e+01
    1.3099877930e+02    1.7077499390e+01
    1.3109866333e+02    1.7136104584e+01
    1.3119879150e+02    1.7194602966e+01
    1.3129873657e+02    1.7253101349e+01
    1.3139869690e+02    1.7311496735e+01
    1.3149873352e+02    1.7369903564e+01
    1.3159877014e+02    1.7428096771e+01
    1.3169868469e+02    1.7486297607e+01
    1.3179873657e+02    1.7544399261e+01
    1.3189866638e+02    1.7602298737e+01
    1.3199873352e+02    1.7660099030e+01
    1.3209867859e+02    1.7717800140e+01
    1.3219885254e+02    1.7775398254e+01
    1.3229873657e+02    1.7832698822e+01
    1.3239875793e+02    1.7889801025e+01
    1.3249885559e+02    1.7946899414e+01
    1.3259869385e+02    1.8003604889e+01
    1.3269874573e+02    1.8060302734e+01
    1.3279879761e+02    1.8116703033e+01
    1.3289883423e+02    1.8173004150e+01
    1.3299884033e+02    1.8228904724e+01
    1.3309878540e+02    1.8284603119e+01
    1.3319885254e+02    1.8340003967e+01
    1.3329884338e+02    1.8395095825e+01
    1.3339892578e+02    1.8450195312e+01
    1.3349884033e+02    1.8504898071e+01
    1.3359878540e+02    1.8559398651e+01
    1.3369877625e+02    1.8613601685e+01
    1.3379888916e+02    1.8667797089e+01
    1.3389889526e+02    1.8721599579e+01
    1.3399887085e+02    1.8775199890e+01
    1.3409890747e+02    1.8828502655e+01
    1.3419897461e+02    1.8881698608e+01
    1.3429887390e+02    1.8934501648e+01
    1.3439880371e+02    1.8987102509e+01
    1.3449896240e+02    1.9039600372e+01
    1.3459886169e+02    1.9091697693e+01
    1.3469900513e+02    1.9143802643e+01
    1.3479890442e+02    1.9195598602e+01
    1.3489892578e+02    1.9247295380e+01
    1.3499890137e+02    1.9298698425e+01
    1.3509890747e+02    1.9349998474e+01
    1.3519891357e+02    1.9400997162e+01
    1.3529893494e+02    1.9451797485e+01
    1.3539889526e+02    1.9502201080e+01
    1.3549890137e+02    1.9552600861e+01
    1.3559887695e+02    1.9602500916e+01
    1.3569897461e+02    1.9652400970e+01
    1.3579901123e+02    1.9701999664e+01
    1.3589898682e+02    1.9751300812e+01
    1.3599890137e+02    1.9800205231e+01
    1.3609898376e+02    1.9849002838e+01
    1.3619894409e+02    1.9897495270e+01
    1.3629898071e+02    1.9945697784e+01
    1.3639910889e+02    1.9993602753e+01
    1.3649894714e+02    2.0041095734e+01
    1.3659907532e+02    2.0088294983e+01
    1.3669912720e+02    2.0135295868e+01
    1.3679899597e+02    2.0181797028e+01
    1.3689895630e+02    2.0228099823e+01
    1.3699903870e+02    2.0274299622e+01
    1.3709899902e+02    2.0320098877e+01
    1.3719905090e+02    2.0365600586e+01
    1.3729899597e+02    2.0410701752e+01
    1.3739915466e+02    2.0455699921e+01
    1.3749913025e+02    2.0500301361e+01
    1.3759915161e+02    2.0544502258e+01
    1.3769909668e+02    2.0588302612e+01
    1.3779910278e+02    2.0631801605e+01
    1.3789910889e+02    2.0675102234e+01
    1.3799906921e+02    2.0717895508e+01
    1.3809921265e+02    2.0760601044e+01
    1.3819921875e+02    2.0802803040e+01
    1.3829916382e+02    2.0844596863e+01
    1.3839907837e+02    2.0885997772e+01
    1.3849917603e+02    2.0927097321e+01
    1.3859916687e+02    2.0967899323e+01
    1.3869920349e+02    2.1008399963e+01
    1.3879908752e+02    2.1048400879e+01
    1.3889912415e+02    2.1088100433e+01
    1.3899908447e+02    2.1127502441e+01
    1.3909922791e+02    2.1166702271e+01
    1.3919911194e+02    2.1205501556e+01
    1.3929922485e+02    2.1244102478e+01
    1.3939927673e+02    2.1282302856e+01
    1.3949929810e+02    2.1320201874e+01
    1.3959913635e+02    2.1357696533e+01
    1.3969929504e+02    2.1395004272e+01
    1.3979917908e+02    2.1431896210e+01
    1.3989920044e+02    2.1468498230e+01
    1.3999916077e+02    2.1504798889e+01
    1.4009925842e+02    2.1565502167e+01
    1.4019923401e+02    2.1625995636e+01
    1.4029917908e+02    2.1686100006e+01
    1.4039918518e+02    2.1745895386e+01
    1.4049929810e+02    2.1805496216e+01
    1.4059925842e+02    2.1864601135e+01
    1.4069934082e+02    2.1923500061e+01
    1.4079927063e+02    2.1981697083e+01
    1.4089927673e+02    2.2039699554e+01
    1.4099934387e+02    2.2097202301e+01
    1.4109927368e+02    2.2154399872e+01
    1.4119932556e+02    2.2211200714e+01
    1.4129925537e+02    2.2267597198e+01
    1.4139933777e+02    2.2323799133e+01
    1.4149928284e+02    2.2379604340e+01
    1.4159936523e+02    2.2435096741e+01
    1.4169929504e+02    2.2490203857e+01
    1.4179933167e+02    2.2544898987e+01
    1.4189935303e+02    2.2599098206e+01
    1.4199931335e+02    2.2652999878e+01
    1.4209941101e+02    2.2706504822e+01
    1.4219935608e+02    2.2759498596e+01
    1.4229931641e+02    2.2812103271e+01
    1.4239945984e+02    2.2864204407e+01
    1.4249943542e+02    2.2916000366e+01
    1.4259944153e+02    2.2967201233e+01
    1.4269938660e+02    2.3017997742e+01
    1.4279943848e+02    2.3068496704e+01
    1.4289932251e+02    2.3118301392e+01
    1.4299949646e+02    2.3167701721e+01
    1.4309941101e+02    2.3216598511e+01
    1.4319949341e+02    2.3264900208e+01
    1.4329942322e+02    2.3312797546e+01
    1.4339950562e+02    2.3360099792e+01
    1.4349949646e+02    2.3407005310e+01
    1.4359938049e+02    2.3453498840e+01
    1.4369952393e+02    2.3499496460e+01
    1.4379948425e+02    2.3545005798e+01
    1.4389949036e+02    2.3589996338e+01
    1.4399946594e+02    2.3634399414e+01
    1.4409941101e+02    2.3678497314e+01
    1.4419946289e+02    2.3721900940e+01
    1.4429953003e+02    2.3764801025e+01
    1.4439956665e+02    2.3807296753e+01
    1.4449946594e+02    2.3849098206e+01
    1.4459945679e+02    2.3890594482e+01
    1.4469944763e+02    2.3931701660e+01
    1.4479957581e+02    2.3972297668e+01
    1.4489962769e+02    2.4012504578e+01
    1.4499945068e+02    2.4052299500e+01
    1.4509954834e+02    2.4091697693e+01
    1.4519961548e+02    2.4130599976e+01
    1.4529960632e+02    2.4169097900e+01
    1.4539959717e+02    2.4207099915e+01
    1.4549951172e+02    2.4244598389e+01
    1.4559948730e+02    2.4281799316e+01
    1.4569955444e+02    2.4318603516e+01
    1.4579965210e+02    2.4354904175e+01
    1.4589964294e+02    2.4390701294e+01
    1.4599964905e+02    2.4426002502e+01
    1.4609959412e+02    2.4460800171e+01
    1.4619966125e+02    2.4495201111e+01
    1.4629966736e+02    2.4528900146e+01
    1.4639953613e+02    2.4562095642e+01
    1.4649963379e+02    2.4594703674e+01
    1.4659959412e+02    2.4626800537e+01
    1.4669969177e+02    2.4658294678e+01
    1.4679971313e+02    2.4689300537e+01
    1.4689965820e+02    2.4719795227e+01
    1.4699966431e+02    2.4749801636e+01
    1.4709962463e+02    2.4779205322e+01
    1.4719961548e+02    2.4807998657e+01
    1.4729971313e+02    2.4836395264e+01
    1.4739970398e+02    2.4864204407e+01
    1.4749960327e+02    2.4891395569e+01
    1.4759959412e+02    2.4918098450e+01
    1.4769967651e+02    2.4944404602e+01
    1.4779972839e+02    2.4970001221e+01
    1.4789979553e+02    2.4995300293e+01
    1.4799966431e+02    2.5019897461e+01
    1.4809965515e+02    2.5043899536e+01
    1.4819970703e+02    2.5067604065e+01
    1.4829981995e+02    2.5090805054e+01
    1.4839965820e+02    2.5113403320e+01
    1.4849980164e+02    2.5135597229e+01
    1.4859980774e+02    2.5157196045e+01
    1.4869973755e+02    2.5178398132e+01
    1.4879968262e+02    2.5199203491e+01
    1.4889970398e+02    2.5218399048e+01
    1.4899977112e+02    2.5237998962e+01
    1.4909977722e+02    2.5257301331e+01
    1.4919973755e+02    2.5276100159e+01
    1.4929983521e+02    2.5294197083e+01
    1.4939976501e+02    2.5312103271e+01
    1.4949981689e+02    2.5329406738e+01
    1.4959986877e+02    2.5346099854e+01
    1.4969989014e+02    2.5361297607e+01
    1.4979981995e+02    2.5377197266e+01
    1.4989985657e+02    2.5392501831e+01
    1.4999977112e+02    2.5407402039e+01
    1.5009980774e+02    2.5444595337e+01
    1.5019978333e+02    2.5482505798e+01
    1.5029983521e+02    2.5519699097e+01
    1.5039993286e+02    2.5556404114e+01
    1.5049981689e+02    2.5593093872e+01
    1.5059982300e+02    2.5627998352e+01
    1.5069981384e+02    2.5663398743e+01
    1.5079986572e+02    2.5698204041e+01
    1.5089996338e+02    2.5732398987e+01
    1.5099995422e+02    2.5766296387e+01
    1.5109996033e+02    2.5798706055e+01
    1.5119987488e+02    2.5831703186e+01
    1.5129997253e+02    2.5864006042e+01
    1.5139984131e+02    2.5896301270e+01
    1.5149986267e+02    2.5926902771e+01
    1.5159991455e+02    2.5957901001e+01
    1.5169996643e+02    2.5988403320e+01
    1.5179989624e+02    2.6018600464e+01
    1.5189994812e+02    2.6048103333e+01
    1.5199995422e+02    2.6076095581e+01
    1.5209996033e+02    2.6104499817e+01
    1.5219998169e+02    2.6132293701e+01
    1.5229997253e+02    2.6159698486e+01
    1.5239997864e+02    2.6186401367e+01
    1.5249992371e+02    2.6211799622e+01
    1.5260000610e+02    2.6237304688e+01
    1.5269993591e+02    2.6262596130e+01
    1.5280009460e+02    2.6286903381e+01
    1.5289999390e+02    2.6309997559e+01
    1.5299998474e+02    2.6333503723e+01
    1.5309999084e+02    2.6356300354e+01
    1.5319996643e+02    2.6378601074e+01
    1.5330006409e+02    2.6400100708e+01
    1.5339997864e+02    2.6420402527e+01
    1.5350001526e+02    2.6440895081e+01
    1.5360005188e+02    2.6460998535e+01
    1.5370013428e+02    2.6480400085e+01
    1.5380017090e+02    2.6499397278e+01
    1.5390007019e+02    2.6517105103e+01
    1.5400004578e+02    2.6535202026e+01
    1.5410003662e+02    2.6552703857e+01
    1.5420008850e+02    2.6569496155e+01
    1.5430006409e+02    2.6584999084e+01
    1.5440019226e+02    2.6600700378e+01
    1.5450003052e+02    2.6616401672e+01
    1.5460011292e+02    2.6631095886e+01
    1.5470007324e+02    2.6644699097e+01
    1.5480012512e+02    2.6658500671e+01
    1.5490022278e+02    2.6671897888e+01
    1.5500024414e+02    2.6684997559e+01
    1.5510014343e+02    2.6697799683e+01
    1.5520019531e+02    2.6709800720e+01
    1.5530018616e+02    2.6720497131e+01
    1.5540008545e+02    2.6731803894e+01
    1.5550024414e+02    2.6742195129e+01
    1.5560023499e+02    2.6752403259e+01
    1.5570021057e+02    2.6761199951e+01
    1.5580010986e+02    2.6770698547e+01
    1.5590017700e+02    2.6779296875e+01
    1.5600024414e+02    2.6787498474e+01
    1.5610029602e+02    2.6795196533e+01
    1.5620025635e+02    2.6801498413e+01
    1.5630024719e+02    2.6808296204e+01
    1.5640020752e+02    2.6814498901e+01
    1.5650024414e+02    2.6820106506e+01
    1.5660021973e+02    2.6824203491e+01
    1.5670025635e+02    2.6828804016e+01
    1.5680030823e+02    2.6832801819e+01
    1.5690031433e+02    2.6836402893e+01
    1.5700024414e+02    2.6839698792e+01
    1.5710021973e+02    2.6841400146e+01
    1.5720030212e+02    2.6843399048e+01
    1.5730026245e+02    2.6845100403e+01
    1.5740025330e+02    2.6846298218e+01
    1.5750027466e+02    2.6845901489e+01
    1.5760028076e+02    2.6846099854e+01
    1.5770037842e+02    2.6845603943e+01
    1.5780035400e+02    2.6844894409e+01
    1.5790037537e+02    2.6843696594e+01
    1.5800024414e+02    2.6841300964e+01
    1.5810035706e+02    2.6838897705e+01
    1.5820031738e+02    2.6836502075e+01
    1.5830044556e+02    2.6833198547e+01
    1.5840039062e+02    2.6829902649e+01
    1.5850033569e+02    2.6825195312e+01
    1.5860043335e+02    2.6820602417e+01
    1.5870045471e+02    2.6815895081e+01
    1.5880041504e+02    2.6810798645e+01
    1.5890046692e+02    2.6805198669e+01
    1.5900047302e+02    2.6798202515e+01
    1.5910043335e+02    2.6791999817e+01
    1.5920048523e+02    2.6785202026e+01
    1.5930041504e+02    2.6778305054e+01
    1.5940039062e+02    2.6769897461e+01
    1.5950047302e+02    2.6761901855e+01
    1.5960043335e+02    2.6753799438e+01
    1.5970042419e+02    2.6745201111e+01
    1.5980044556e+02    2.6736198425e+01
    1.5990049744e+02    2.6725700378e+01
    1.6000050354e+02    2.6715896606e+01
    1.6010040283e+02    2.6727996826e+01
    1.6020037842e+02    2.6738594055e+01
    1.6030039978e+02    2.6749702454e+01
    1.6040049744e+02    2.6760200500e+01
    1.6050053406e+02    2.6770500183e+01
    1.6060058594e+02    2.6780296326e+01
    1.6070048523e+02    2.6789199829e+01
    1.6080049133e+02    2.6798400879e+01
    1.6090060425e+02    2.6806900024e+01
    1.6100056458e+02    2.6814300537e+01
    1.6110046387e+02    2.6823005676e+01
    1.6120057678e+02    2.6830001831e+01
    1.6130053711e+02    2.6835998535e+01
    1.6140049744e+02    2.6844001770e+01
    1.6150047302e+02    2.6848999023e+01
    1.6160058594e+02    2.6856010437e+01
    1.6170053101e+02    2.6861999512e+01
    1.6180052185e+02    2.6868003845e+01
    1.6190049744e+02    2.6872001648e+01
    1.6200065613e+02    2.6876998901e+01
    1.6210052490e+02    2.6882003784e+01
    1.6220053101e+02    2.6885002136e+01
    1.6230056763e+02    2.6888992310e+01
    1.6240063477e+02    2.6892997742e+01
    1.6250053406e+02    2.6895996094e+01
    1.6260067749e+02    2.6898002625e+01
    1.6270054626e+02    2.6901000977e+01
    1.6280070496e+02    2.6903007507e+01
    1.6290061951e+02    2.6905006409e+01
    1.6300067139e+02    2.6905998230e+01
    1.6310061646e+02    2.6906997681e+01
    1.6320060730e+02    2.6906997681e+01
    1.6330059814e+02    2.6908004761e+01
    1.6340063477e+02    2.6907997131e+01
    1.6350068665e+02    2.6905998230e+01
    1.6360063171e+02    2.6906005859e+01
    1.6370066833e+02    2.6904998779e+01
    1.6380072021e+02    2.6902999878e+01
    1.6390072632e+02    2.6901000977e+01
    1.6400071716e+02    2.6898994446e+01
    1.6410064697e+02    2.6895996094e+01
    1.6420063782e+02    2.6892997742e+01
    1.6430072021e+02    2.6891006470e+01
    1.6440071106e+02    2.6888000488e+01
    1.6450065613e+02    2.6883995056e+01
    1.6460070801e+02    2.6880004883e+01
    1.6470083618e+02    2.6875991821e+01
    1.6480068970e+02    2.6871994019e+01
    1.6490072632e+02    2.6867004395e+01
    1.6500082397e+02    2.6862991333e+01
    1.6510078430e+02    2.6857009888e+01
    1.6520083618e+02    2.6851997375e+01
    1.6530081177e+02    2.6847007751e+01
    1.6540074158e+02    2.6841003418e+01
    1.6550079346e+02    2.6834999084e+01
    1.6560081482e+02    2.6829002380e+01
    1.6570071411e+02    2.6821998596e+01
    1.6580085754e+02    2.6814994812e+01
    1.6590084839e+02    2.6807998657e+01
    1.6600079346e+02    2.6802009583e+01
    1.6610087585e+02    2.6793006897e+01
    1.6620080566e+02    2.6785995483e+01
    1.6630082703e+02    2.6778007507e+01
    1.6640077209e+02    2.6769004822e+01
    1.6650077820e+02    2.6760993958e+01
    1.6660089111e+02    2.6752998352e+01
    1.6670089722e+02    2.6743995667e+01
    1.6680081177e+02    2.6735008240e+01
    1.6690092468e+02    2.6724998474e+01
    1.6700082397e+02    2.6714996338e+01
    1.6710096741e+02    2.6706001282e+01
    1.6720083618e+02    2.6696998596e+01
    1.6730088806e+02    2.6687004089e+01
    1.6740093994e+02    2.6675003052e+01
    1.6750094604e+02    2.6664993286e+01
    1.6760084534e+02    2.6654998779e+01
    1.6770088196e+02    2.6642997742e+01
    1.6780085754e+02    2.6633003235e+01
    1.6790100098e+02    2.6620994568e+01
    1.6800091553e+02    2.6608993530e+01
    1.6810095215e+02    2.6598007202e+01
    1.6820097351e+02    2.6585998535e+01
    1.6830091858e+02    2.6573997498e+01
    1.6840100098e+02    2.6562004089e+01
    1.6850091553e+02    2.6549995422e+01
    1.6860095215e+02    2.6538002014e+01
    1.6870094299e+02    2.6524002075e+01
    1.6880099487e+02    2.6512008667e+01
    1.6890107727e+02    2.6498992920e+01
    1.6900109863e+02    2.6486999512e+01
    1.6910104370e+02    2.6472999573e+01
    1.6920100403e+02    2.6460990906e+01
    1.6930096436e+02    2.6446990967e+01
    1.6940095520e+02    2.6433998108e+01
    1.6950094604e+02    2.6421005249e+01
    1.6960098267e+02    2.6407005310e+01
    1.6970108032e+02    2.6393997192e+01
    1.6980099487e+02    2.6381004333e+01
    1.6990109253e+02    2.6366996765e+01
    1.7000100708e+02    2.6352996826e+01
    1.7010107422e+02    2.6360000610e+01
    1.7020101929e+02    2.6366004944e+01
    1.7030110168e+02    2.6373001099e+01
    1.7040118408e+02    2.6378997803e+01
    1.7050117493e+02    2.6384994507e+01
    1.7060102844e+02    2.6392005920e+01
    1.7070103455e+02    2.6398002625e+01
    1.7080108643e+02    2.6402999878e+01
    1.7090107727e+02    2.6408996582e+01
    1.7100103760e+02    2.6415000916e+01
    1.7110122681e+02    2.6419998169e+01
    1.7120114136e+02    2.6425994873e+01
    1.7130107117e+02    2.6431007385e+01
    1.7140122986e+02    2.6436004639e+01
    1.7150117493e+02    2.6441993713e+01
    1.7160116577e+02    2.6447990417e+01
    1.7170111084e+02    2.6454002380e+01
    1.7180110168e+02    2.6458999634e+01
    1.7190113831e+02    2.6464996338e+01
    1.7200114441e+02    2.6470008850e+01
    1.7210112000e+02    2.6475997925e+01
    1.7220124817e+02    2.6480995178e+01
    1.7230122375e+02    2.6485992432e+01
    1.7240118408e+02    2.6492004395e+01
    1.7250115967e+02    2.6497001648e+01
    1.7260125732e+02    2.6503005981e+01
    1.7270121765e+02    2.6507003784e+01
    1.7280128479e+02    2.6513000488e+01
    1.7290121460e+02    2.6518005371e+01
    1.7300120544e+02    2.6522994995e+01
    1.7310127258e+02    2.6526992798e+01
    1.7320126343e+02    2.6532012939e+01
    1.7330123901e+02    2.6535995483e+01
    1.7340136719e+02    2.6539993286e+01
    1.7350125122e+02    2.6544998169e+01
    1.7360122681e+02    2.6549011230e+01
    1.7370132446e+02    2.6552993774e+01
    1.7380130005e+02    2.6556991577e+01
    1.7390130615e+02    2.6562011719e+01
    1.7400138855e+02    2.6565994263e+01
    1.7410134888e+02    2.6569992065e+01
    1.7420135498e+02    2.6573989868e+01
    1.7430131531e+02    2.6579010010e+01
    1.7440138245e+02    2.6582992554e+01
    1.7450137329e+02    2.6586990356e+01
    1.7460137939e+02    2.6591003418e+01
    1.7470144653e+02    2.6597000122e+01
    1.7480131531e+02    2.6599990845e+01
    1.7490141296e+02    2.6604003906e+01
    1.7500131226e+02    2.6609008789e+01
    1.7510133362e+02    2.6612991333e+01
    1.7520135498e+02    2.6616989136e+01
    1.7530143738e+02    2.6621994019e+01
    1.7540148926e+02    2.6625991821e+01
    1.7550134277e+02    2.6629989624e+01
    1.7560150146e+02    2.6634002686e+01
    1.7570135498e+02    2.6638992310e+01
    1.7580134583e+02    2.6643005371e+01
    1.7590138245e+02    2.6647003174e+01
    1.7600149536e+02    2.6651000977e+01
    1.7610136414e+02    2.6655990601e+01
    1.7620141602e+02    2.6660003662e+01
    1.7630137634e+02    2.6664001465e+01
    1.7640150452e+02    2.6667999268e+01
    1.7650152588e+02    2.6672012329e+01
    1.7660145569e+02    2.6677001953e+01
    1.7670149231e+02    2.6680999756e+01
    1.7680145264e+02    2.6685012817e+01
    1.7690144348e+02    2.6690002441e+01
    1.7700144958e+02    2.6694000244e+01
    1.7710153198e+02    2.6697998047e+01
    1.7720158386e+02    2.6702011108e+01
    1.7730151367e+02    2.6705993652e+01
    1.7740153503e+02    2.6709991455e+01
    1.7750146484e+02    2.6714004517e+01
    1.7760145569e+02    2.6718002319e+01
    1.7770161438e+02    2.6723007202e+01
    1.7780151367e+02    2.6725997925e+01
    1.7790161133e+02    2.6731002808e+01
    1.7800149536e+02    2.6733993530e+01
    1.7810151672e+02    2.6737991333e+01
    1.7820158386e+02    2.6742996216e+01
    1.7830154419e+02    2.6746994019e+01
    1.7840161133e+02    2.6751007080e+01
    1.7850158691e+02    2.6755004883e+01
    1.7860151672e+02    2.6759994507e+01
    1.7870167542e+02    2.6764007568e+01
    1.7880162048e+02    2.6768005371e+01
    1.7890161133e+02    2.6772994995e+01
    1.7900164795e+02    2.6776992798e+01
    1.7910169983e+02    2.6781997681e+01
    1.7920173645e+02    2.6785995483e+01
    1.7930171204e+02    2.6791000366e+01
    1.7940173340e+02    2.6795013428e+01
    1.7950172424e+02    2.6800003052e+01
    1.7960163879e+02    2.6804992676e+01
    1.7970161438e+02    2.6808990479e+01
    1.7980163574e+02    2.6814010620e+01
    1.7990171814e+02    2.6817993164e+01
    1.8000169373e+02    2.6824005127e+01
    1.8010169983e+02    2.6845001221e+01
    1.8020170593e+02    2.6867996216e+01
    1.8030168152e+02    2.6890014648e+01
    1.8040162659e+02    2.6912002563e+01
    1.8050178528e+02    2.6934005737e+01
    1.8060171509e+02    2.6955993652e+01
    1.8070164490e+02    2.6979003906e+01
    1.8080169678e+02    2.7000000000e+01
    1.8090168762e+02    2.7023010254e+01
    1.8100175476e+02    2.7044998169e+01
    1.8110174561e+02    2.7067001343e+01
    1.8120179749e+02    2.7088989258e+01
    1.8130183411e+02    2.7111999512e+01
    1.8140180969e+02    2.7134002686e+01
    1.8150175476e+02    2.7156005859e+01
    1.8160176086e+02    2.7177993774e+01
    1.8170187378e+02    2.7201004028e+01
    1.8180172729e+02    2.7222991943e+01
    1.8190174866e+02    2.7245010376e+01
    1.8200172424e+02    2.7268005371e+01
    1.8210182190e+02    2.7289993286e+01
    1.8220178223e+02    2.7313003540e+01
    1.8230181885e+02    2.7334991455e+01
    1.8240179443e+02    2.7358001709e+01
    1.8250190735e+02    2.7378997803e+01
    1.8260176086e+02    2.7401000977e+01
    1.8270184326e+02    2.7423004150e+01
    1.8280178833e+02    2.7444992065e+01
    1.8290185547e+02    2.7467987061e+01
    1.8300178528e+02    2.7488998413e+01
    1.8310194397e+02    2.7511001587e+01
    1.8320190430e+02    2.7533004761e+01
    1.8330183411e+02    2.7554992676e+01
    1.8340191650e+02    2.7574996948e+01
    1.8350190735e+02    2.7597000122e+01
    1.8360188293e+02    2.7617996216e+01
    1.8370193481e+02    2.7639999390e+01
    1.8380186462e+02    2.7660995483e+01
    1.8390191650e+02    2.7682998657e+01
    1.8400201416e+02    2.7702987671e+01
    1.8410185242e+02    2.7723999023e+01
    1.8420190430e+02    2.7746002197e+01
    1.8430201721e+02    2.7766998291e+01
    1.8440197754e+02    2.7787994385e+01
    1.8450190735e+02    2.7808013916e+01
    1.8460202026e+02    2.7828994751e+01
    1.8470191956e+02    2.7850006104e+01
    1.8480191040e+02    2.7871002197e+01
    1.8490203857e+02    2.7890991211e+01
    1.8500205994e+02    2.7912002563e+01
    1.8510206604e+02    2.7932006836e+01
    1.8520199585e+02    2.7951995850e+01
    1.8530194092e+02    2.7972000122e+01
    1.8540205383e+02    2.7992996216e+01
    1.8550207520e+02    2.8011993408e+01
    1.8560209656e+02    2.8031997681e+01
    1.8570213318e+02    2.8052001953e+01
    1.8580212402e+02    2.8071990967e+01
    1.8590200806e+02    2.8091003418e+01
    1.8600199890e+02    2.8110992432e+01
    1.8610209656e+02    2.8129989624e+01
    1.8620199585e+02    2.8149002075e+01
    1.8630201721e+02    2.8169006348e+01
    1.8640213013e+02    2.8186996460e+01
    1.8650204468e+02    2.8207000732e+01
    1.8660205078e+02    2.8224990845e+01
    1.8670202637e+02    2.8244003296e+01
    1.8680203247e+02    2.8263000488e+01
    1.8690208435e+02    2.8281005859e+01
    1.8700204468e+02    2.8298995972e+01
    1.8710205078e+02    2.8317001343e+01
    1.8720210266e+02    2.8334991455e+01
    1.8730221558e+02    2.8352996826e+01
    1.8740209961e+02    2.8370010376e+01
    1.8750212097e+02    2.8386993408e+01
    1.8760206604e+02    2.8404006958e+01
    1.8770219421e+02    2.8419998169e+01
    1.8780215454e+02    2.8437988281e+01
    1.8790219116e+02    2.8454010010e+01
    1.8800216675e+02    2.8471008301e+01
    1.8810223389e+02    2.8485992432e+01
    1.8820225525e+02    2.8503005981e+01
    1.8830218506e+02    2.8518997192e+01
    1.8840226746e+02    2.8534988403e+01
    1.8850219727e+02    2.8550003052e+01
    1.8860217285e+02    2.8565002441e+01
    1.8870216370e+02    2.8580993652e+01
    1.8880218506e+02    2.8595993042e+01
    1.8890214539e+02    2.8611999512e+01
    1.8900215149e+02    2.8626007080e+01
    1.8910215759e+02    2.8641006470e+01
    1.8920225525e+02    2.8654998779e+01
    1.8930218506e+02    2.8669998169e+01
    1.8940223694e+02    2.8682998657e+01
    1.8950221252e+02    2.8697998047e+01
    1.8960218811e+02    2.8710998535e+01
    1.8970223999e+02    2.8723999023e+01
    1.8980230713e+02    2.8737991333e+01
    1.8990228271e+02    2.8750000000e+01
    1.9000233459e+02    2.8763992310e+01
    1.9010226440e+02    2.8791000366e+01
    1.9020223999e+02    2.8817993164e+01
    1.9030227661e+02    2.8845001221e+01
    1.9040235901e+02    2.8872009277e+01
    1.9050224304e+02    2.8897994995e+01
    1.9060235596e+02    2.8924011230e+01
    1.9070237732e+02    2.8949996948e+01
    1.9080236816e+02    2.8977005005e+01
    1.9090226746e+02    2.9001007080e+01
    1.9100228882e+02    2.9027008057e+01
    1.9110241699e+02    2.9052001953e+01
    1.9120243835e+02    2.9076004028e+01
    1.9130244446e+02    2.9100997925e+01
    1.9140238953e+02    2.9125000000e+01
    1.9150233459e+02    2.9149002075e+01
    1.9160244751e+02    2.9173995972e+01
    1.9170233154e+02    2.9197006226e+01
    1.9180238342e+02    2.9220001221e+01
    1.9190237427e+02    2.9242996216e+01
    1.9200245667e+02    2.9266006470e+01
    1.9210235596e+02    2.9289001465e+01
    1.9220248413e+02    2.9310989380e+01
    1.9230247498e+02    2.9333007812e+01
    1.9240240479e+02    2.9354995728e+01
    1.9250245667e+02    2.9376007080e+01
    1.9260237122e+02    2.9397003174e+01
    1.9270245361e+02    2.9417999268e+01
    1.9280247498e+02    2.9438003540e+01
    1.9290240479e+02    2.9457992554e+01
    1.9300241089e+02    2.9477996826e+01
    1.9310252380e+02    2.9498001099e+01
    1.9320243835e+02    2.9516998291e+01
    1.9330244446e+02    2.9536010742e+01
    1.9340243530e+02    2.9554000854e+01
    1.9350259399e+02    2.9572006226e+01
    1.9360255432e+02    2.9590011597e+01
    1.9370251465e+02    2.9606994629e+01
    1.9380259705e+02    2.9623992920e+01
    1.9390254211e+02    2.9641006470e+01
    1.9400248718e+02    2.9656997681e+01
    1.9410249329e+02    2.9673004150e+01
    1.9420245361e+02    2.9688995361e+01
    1.9430261230e+02    2.9705001831e+01
    1.9440264893e+02    2.9719009399e+01
[...]
    2.5130595398e+02    1.2906005859e+01
    2.5140606689e+02    1.2850006104e+01
    2.5150596619e+02    1.2792999268e+01
    2.5160598755e+02    1.2735992432e+01
    2.5170597839e+02    1.2678985596e+01
    2.5180607605e+02    1.2622009277e+01
    2.5190611267e+02    1.2563995361e+01
    2.5200613403e+02    1.2506988525e+01
    2.5210612488e+02    1.2449005127e+01
    2.5220610046e+02    1.2389984131e+01
    2.5230607605e+02    1.2330993652e+01
    2.5240609741e+02    1.2272003174e+01
    2.5250605774e+02    1.2213989258e+01
    2.5260615540e+02    1.2153991699e+01
    2.5270603943e+02    1.2093994141e+01
    2.5280610657e+02    1.2033996582e+01
    2.5290620422e+02    1.1975006104e+01
    2.5300619507e+02    1.1912994385e+01
    2.5310609436e+02    1.1852996826e+01
    2.5320610046e+02    1.1791992188e+01
    2.5330616760e+02    1.1730987549e+01
    2.5340623474e+02    1.1669982910e+01
    2.5350616455e+02    1.1608001709e+01
    2.5360612488e+02    1.1545989990e+01
    2.5370620728e+02    1.1483978271e+01
    2.5380616760e+02    1.1421997070e+01
    2.5390620422e+02    1.1358978271e+01
    2.5400616455e+02    1.1296997070e+01
    2.5410627747e+02    1.1234008789e+01
    2.5420620728e+02    1.1169982910e+01
    2.5430621338e+02    1.1105987549e+01
    2.5440629578e+02    1.1041992188e+01
    2.5450621033e+02    1.0979003906e+01
    2.5460627747e+02    1.0914978027e+01
    2.5470625305e+02    1.0850006104e+01
    2.5480618286e+02    1.0785003662e+01
    2.5490620422e+02    1.0719970703e+01
    2.5500628662e+02    1.0654998779e+01
    2.5510633850e+02    1.0589996338e+01
    2.5520620728e+02    1.0524993896e+01
    2.5530636597e+02    1.0458984375e+01
    2.5540626526e+02    1.0391998291e+01
    2.5550633240e+02    1.0326019287e+01
    2.5560621643e+02    1.0260009766e+01
    2.5570634460e+02    1.0193023682e+01
    2.5580627441e+02    1.0126983643e+01
    2.5590638733e+02    1.0058990479e+01
    2.5600625610e+02    9.9909973145e+00
    2.5610635376e+02    9.9240112305e+00
    2.5620623779e+02    9.8570251465e+00
    2.5630630493e+02    9.7890014648e+00
    2.5640640259e+02    9.7200012207e+00
    2.5650637817e+02    9.6520080566e+00
    2.5660641479e+02    9.5840148926e+00
    2.5670635986e+02    9.5140075684e+00
    2.5680627441e+02    9.4460144043e+00
    2.5690640259e+02    9.3760070801e+00
    2.5700634766e+02    9.3070068359e+00
    2.5710638428e+02    9.2380065918e+00
    2.5720635986e+02    9.1679992676e+00
    2.5730630493e+02    9.0979919434e+00
    2.5740634155e+02    9.0280151367e+00
    2.5750640869e+02    8.9570007324e+00
    2.5760638428e+02    8.8869934082e+00
    2.5770632935e+02    8.8170166016e+00
    2.5780648804e+02    8.7460021973e+00
    2.5790649414e+02    8.6750183105e+00
    2.5800650024e+02    8.6040039062e+00
    2.5810647583e+02    8.5320129395e+00
    2.5820651245e+02    8.4599914551e+00
    2.5830654907e+02    8.3890075684e+00
    2.5840640259e+02    8.3179931641e+00
    2.5850650024e+02    8.2449951172e+00
    2.5860641479e+02    8.1730041504e+00
    2.5870645142e+02    8.1010131836e+00
    2.5880648804e+02    8.0280151367e+00
    2.5890655518e+02    7.9550170898e+00
    2.5900646973e+02    7.8829956055e+00
    2.5910650635e+02    7.8099975586e+00
    2.5920654297e+02    7.7369995117e+00
    2.5930651855e+02    7.6640014648e+00
    2.5940652466e+02    7.5899963379e+00
    2.5950643921e+02    7.5169982910e+00
    2.5960650635e+02    7.4429931641e+00
    2.5970648193e+02    7.3699951172e+00
    2.5980651855e+02    7.2959899902e+00
    2.5990649414e+02    7.2210083008e+00
    2.6000656128e+02    7.1470031738e+00
    2.6010650635e+02    7.0740051270e+00
    2.6020654297e+02    6.9989929199e+00
    2.6030661011e+02    6.9260253906e+00
    2.6040649414e+02    6.8510131836e+00
    2.6050668335e+02    6.7779846191e+00
    2.6060650635e+02    6.7040100098e+00
    2.6070657349e+02    6.6289978027e+00
    2.6080657959e+02    6.5540161133e+00
    2.6090652466e+02    6.4800109863e+00
    2.6100653076e+02    6.4049987793e+00
    2.6110650635e+02    6.3299865723e+00
    2.6120672607e+02    6.2550048828e+00
    2.6130654907e+02    6.1789855957e+00
    2.6140658569e+02    6.1040039062e+00
    2.6150656128e+02    6.0290222168e+00
    2.6160659790e+02    5.9530029297e+00
    2.6170663452e+02    5.8779907227e+00
    2.6180664062e+02    5.8009948730e+00
    2.6190667725e+02    5.7259826660e+00
    2.6200668335e+02    5.6499938965e+00
    2.6210662842e+02    5.5729980469e+00
    2.6220663452e+02    5.4970092773e+00
    2.6230664062e+02    5.4210205078e+00
    2.6240667725e+02    5.3439941406e+00
    2.6250662231e+02    5.2669982910e+00
    2.6260671997e+02    5.1910095215e+00
    2.6270663452e+02    5.1140136719e+00
    2.6280673218e+02    5.0370178223e+00
    2.6290664673e+02    4.9590148926e+00
    2.6300683594e+02    4.8829956055e+00
    2.6310665894e+02    4.8059997559e+00
    2.6320678711e+02    4.7290039062e+00
    2.6330679321e+02    4.6499938965e+00
    2.6340682983e+02    4.5729980469e+00
    2.6350677490e+02    4.4950256348e+00
    2.6360687256e+02    4.4169921875e+00
    2.6370684814e+02    4.3389892578e+00
    2.6380685425e+02    4.2619934082e+00
    2.6390673828e+02    4.1829833984e+00
    2.6400677490e+02    4.1050109863e+00
    2.6410671997e+02    4.0270080566e+00
    2.6420687866e+02    3.9480285645e+00
    2.6430682373e+02    3.8700256348e+00
    2.6440676880e+02    3.7919921875e+00
    2.6450686646e+02    3.7130126953e+00
    2.6460687256e+02    3.6340026855e+00
    2.6470687866e+02    3.5559997559e+00
    2.6480685425e+02    3.4760131836e+00
    2.6490686035e+02    3.3979797363e+00
    2.6500689697e+02    3.3190002441e+00
    2.6510687256e+02    3.2399902344e+00
    2.6520681763e+02    3.1600036621e+00
    2.6530691528e+02    3.0809936523e+00
    2.6540682983e+02    3.0020141602e+00
    2.6550686646e+02    2.9219970703e+00
    2.6560699463e+02    2.8429870605e+00
    2.6570693970e+02    2.7640075684e+00
    2.6580685425e+02    2.6839904785e+00
    2.6590698242e+02    2.6050109863e+00
    2.6600698853e+02    2.5240173340e+00
    2.6610690308e+02    2.4460144043e+00
    2.6620697021e+02    2.3650207520e+00
    2.6630700684e+02    2.2859802246e+00
    2.6640689087e+02    2.2059936523e+00
    2.6650695801e+02    2.1260070801e+00
    2.6660702515e+02    2.0460205078e+00
    2.6670687866e+02    1.9660034180e+00
    2.6680700684e+02    1.8859863281e+00
    2.6690692139e+02    1.8059997559e+00
    2.6700698853e+02    1.7259826660e+00
    2.6710699463e+02    1.6449890137e+00
    2.6720693970e+02    1.5650024414e+00
    2.6730691528e+02    1.4850158691e+00
    2.6740704346e+02    1.4040222168e+00
    2.6750692749e+02    1.3240051270e+00
    2.6760702515e+02    1.2439880371e+00
    2.6770706177e+02    1.1629943848e+00
    2.6780703735e+02    1.0820007324e+00
    2.6790695190e+02    1.0020141602e+00
    2.6800711060e+02    9.2102050781e-01
    2.6810705566e+02    8.4097290039e-01
    2.6820709229e+02    7.6098632812e-01
    2.6830703735e+02    6.7999267578e-01
    2.6840704346e+02    5.9899902344e-01
    2.6850704956e+02    5.1901245117e-01
    2.6860699463e+02    4.3798828125e-01
    2.6870715332e+02    3.5702514648e-01
    2.6880706787e+02    2.7697753906e-01
    2.6890704346e+02    1.9598388672e-01
    2.6900701904e+02    1.1499023438e-01
    2.6910717773e+02    3.5003662109e-02
    2.6920703125e+02   -4.5989990234e-02
    2.6930712891e+02   -1.2698364258e-01
    2.6940713501e+02   -2.0898437500e-01
    2.6950717163e+02   -2.8900146484e-01
    2.6960714722e+02   -3.7100219727e-01
    2.6970715332e+02   -4.5098876953e-01
    2.6980706787e+02   -5.3201293945e-01
    2.6990716553e+02   -6.1300659180e-01
    2.7000717163e+02   -6.9497680664e-01
    2.7010708618e+02   -7.7700805664e-01
    2.7020715332e+02   -8.6001586914e-01
    2.7030725098e+02   -9.4302368164e-01
    2.7040713501e+02   -1.0249938965e+00
    2.7050726318e+02   -1.1080017090e+00
    2.7060717773e+02   -1.1910095215e+00
    2.7070715332e+02   -1.2730102539e+00
    2.7080731201e+02   -1.3560180664e+00
    2.7090728760e+02   -1.4389953613e+00
    2.7100726318e+02   -1.5209960938e+00
    2.7110723877e+02   -1.6040039062e+00
    2.7120721436e+02   -1.6880187988e+00
    2.7130715942e+02   -1.7699890137e+00
    2.7140716553e+02   -1.8529968262e+00
    2.7150723267e+02   -1.9360046387e+00
    2.7160726929e+02   -2.0180053711e+00
    2.7170730591e+02   -2.1010131836e+00
    2.7180734253e+02   -2.1839904785e+00
    2.7190734863e+02   -2.2669982910e+00
    2.7200726318e+02   -2.3489990234e+00
    2.7210733032e+02   -2.4320068359e+00
    2.7220724487e+02   -2.5159912109e+00
    2.7230737305e+02   -2.5979919434e+00
    2.7240734863e+02   -2.6799926758e+00
    2.7250735474e+02   -2.7640075684e+00
    2.7260733032e+02   -2.8469848633e+00
    2.7270727539e+02   -2.9289855957e+00
    2.7280743408e+02   -3.0119934082e+00
    2.7290740967e+02   -3.0950012207e+00
    2.7300726318e+02   -3.1770019531e+00
    2.7310729980e+02   -3.2590026855e+00
    2.7320730591e+02   -3.3419799805e+00
    2.7330728149e+02   -3.4250183105e+00
    2.7340744019e+02   -3.5079956055e+00
    2.7350732422e+02   -3.5910034180e+00
    2.7360736084e+02   -3.6730041504e+00
    2.7370733643e+02   -3.7560119629e+00
    2.7380737305e+02   -3.8380126953e+00
    2.7390734863e+02   -3.9199829102e+00
    2.7400744629e+02   -4.0029907227e+00
    2.7410745239e+02   -4.0859985352e+00
    2.7420742798e+02   -4.1679992676e+00
    2.7430743408e+02   -4.2500000000e+00
    2.7440750122e+02   -4.3329772949e+00
    2.7450741577e+02   -4.4149780273e+00
    2.7460754395e+02   -4.4970092773e+00
    2.7470755005e+02   -4.5800170898e+00
    2.7480752563e+02   -4.6620178223e+00
    2.7490750122e+02   -4.7439880371e+00
    2.7500738525e+02   -4.8259887695e+00
    2.7510754395e+02   -4.9089965820e+00
    2.7520739746e+02   -4.9900207520e+00
    2.7530749512e+02   -5.0729980469e+00
    2.7540753174e+02   -5.1549987793e+00
    2.7550747681e+02   -5.2359924316e+00
    2.7560745239e+02   -5.3180236816e+00
    2.7570751953e+02   -5.3999938965e+00
    2.7580758667e+02   -5.4819946289e+00
    2.7590750122e+02   -5.5639953613e+00
    2.7600759888e+02   -5.6459960938e+00
    2.7610748291e+02   -5.7279968262e+00
    2.7620758057e+02   -5.8099975586e+00
    2.7630749512e+02   -5.8909912109e+00
    2.7640759277e+02   -5.9729919434e+00
    2.7650750732e+02   -6.0540161133e+00
    2.7660757446e+02   -6.1359863281e+00
    2.7670764160e+02   -6.2179870605e+00
    2.7680764771e+02   -6.2990112305e+00
    2.7690750122e+02   -6.3800048828e+00
    2.7700765991e+02   -6.4620056152e+00
    2.7710763550e+02   -6.5429992676e+00
    2.7720761108e+02   -6.6239929199e+00
    2.7730755615e+02   -6.7060241699e+00
    2.7740759277e+02   -6.7869873047e+00
    2.7750759888e+02   -6.8679809570e+00
    2.7760757446e+02   -6.9490051270e+00
    2.7770761108e+02   -7.0299987793e+00
    2.7780755615e+02   -7.1110229492e+00
    2.7790768433e+02   -7.1919860840e+00
    2.7800772095e+02   -7.2729797363e+00
    2.7810757446e+02   -7.3540039062e+00
    2.7820761108e+02   -7.4349975586e+00
    2.7830770874e+02   -7.5160217285e+00
    2.7840765381e+02   -7.5969848633e+00
    2.7850775146e+02   -7.6770019531e+00
    2.7860775757e+02   -7.7569885254e+00
    2.7870761108e+02   -7.8380126953e+00
    2.7880776978e+02   -7.9189758301e+00
    2.7890774536e+02   -8.0000000000e+00
    2.7900778198e+02   -8.0800170898e+00
    2.7910778809e+02   -8.1600036621e+00
    2.7920767212e+02   -8.2400207520e+00
    2.7930770874e+02   -8.3209838867e+00
    2.7940774536e+02   -8.4010009766e+00
    2.7950775146e+02   -8.4810180664e+00
    2.7960775757e+02   -8.5610046387e+00
    2.7970770264e+02   -8.6419982910e+00
    2.7980780029e+02   -8.7209777832e+00
    2.7990771484e+02   -8.8009948730e+00
    2.8000775146e+02   -8.8810119629e+00
    2.8010769653e+02   -8.9649963379e+00
    2.8020770264e+02   -9.0489807129e+00
    2.8030786133e+02   -9.1319885254e+00
    2.8040780640e+02   -9.2149963379e+00
    2.8050772095e+02   -9.2989807129e+00
    2.8060772705e+02   -9.3809814453e+00
    2.8070779419e+02   -9.4649963379e+00
    2.8080783081e+02   -9.5469970703e+00
    2.8090774536e+02   -9.6300048828e+00
    2.8100775146e+02   -9.7139892578e+00
    2.8110781860e+02   -9.7969970703e+00
    2.8120785522e+02   -9.8789978027e+00
    2.8130795288e+02   -9.9630126953e+00
    2.8140792847e+02   -1.0045013428e+01
    2.8150793457e+02   -1.0128021240e+01
    2.8160787964e+02   -1.0210021973e+01
    2.8170779419e+02   -1.0292999268e+01
    2.8180786133e+02   -1.0375000000e+01
    2.8190789795e+02   -1.0457977295e+01
    2.8200784302e+02   -1.0539978027e+01
    2.8210781860e+02   -1.0622985840e+01
    2.8220782471e+02   -1.0703979492e+01
    2.8230786133e+02   -1.0786987305e+01
    2.8240798950e+02   -1.0868988037e+01
    2.8250793457e+02   -1.0950988770e+01
    2.8260784912e+02   -1.1032989502e+01
    2.8270785522e+02   -1.1115020752e+01
    2.8280792236e+02   -1.1196990967e+01
    2.8290798950e+02   -1.1279022217e+01
    2.8300796509e+02   -1.1360015869e+01
    2.8310787964e+02   -1.1441009521e+01
    2.8320797729e+02   -1.1524017334e+01
    2.8330792236e+02   -1.1604980469e+01
    2.8340792847e+02   -1.1686004639e+01
    2.8350796509e+02   -1.1767974854e+01
    2.8360797119e+02   -1.1850006104e+01
    2.8370797729e+02   -1.1929962158e+01
    2.8380795288e+02   -1.2011962891e+01
    2.8390792847e+02   -1.2092987061e+01
    2.8400802612e+02   -1.2173980713e+01
    2.8410809326e+02   -1.2255004883e+01
    2.8420812988e+02   -1.2335998535e+01
    2.8430807495e+02   -1.2417022705e+01
    2.8440808105e+02   -1.2497985840e+01
    2.8450802612e+02   -1.2579010010e+01
    2.8460812378e+02   -1.2659027100e+01
    2.8470797729e+02   -1.2739990234e+01
    2.8480807495e+02   -1.2821014404e+01
    2.8490814209e+02   -1.2901031494e+01
    2.8500811768e+02   -1.2981994629e+01
    2.8510803223e+02   -1.3062011719e+01
    2.8520809937e+02   -1.3142974854e+01
    2.8530807495e+02   -1.3222015381e+01
    2.8540817261e+02   -1.3302978516e+01
    2.8550814819e+02   -1.3382019043e+01
    2.8560815430e+02   -1.3462982178e+01
    2.8570816040e+02   -1.3542968750e+01
    2.8580804443e+02   -1.3623016357e+01
    2.8590805054e+02   -1.3703002930e+01
    2.8600820923e+02   -1.3783020020e+01
    2.8610821533e+02   -1.3861999512e+01
    2.8620812988e+02   -1.3941009521e+01
    2.8630807495e+02   -1.4020996094e+01
    2.8640817261e+02   -1.4101043701e+01
    2.8650823975e+02   -1.4180023193e+01
    2.8660809326e+02   -1.4260009766e+01
    2.8670825195e+02   -1.4339965820e+01
    2.8680813599e+02   -1.4418975830e+01
    2.8690820312e+02   -1.4498016357e+01
    2.8700814819e+02   -1.4576965332e+01
    2.8710818481e+02   -1.4657012939e+01
    2.8720816040e+02   -1.4735046387e+01
    2.8730822754e+02   -1.4815002441e+01
    2.8740814209e+02   -1.4892944336e+01
    2.8750814819e+02   -1.4973022461e+01
    2.8760815430e+02   -1.5051025391e+01
    2.8770819092e+02   -1.5130004883e+01
    2.8780831909e+02   -1.5208984375e+01
    2.8790829468e+02   -1.5286987305e+01
    2.8800833130e+02   -1.5364990234e+01
    2.8810821533e+02   -1.5445007324e+01
    2.8820828247e+02   -1.5523010254e+01
    2.8830828857e+02   -1.5601989746e+01
    2.8840823364e+02   -1.5680053711e+01
    2.8850830078e+02   -1.5757995605e+01
    2.8860833740e+02   -1.5836975098e+01
    2.8870831299e+02   -1.5914001465e+01
    2.8880828857e+02   -1.5993041992e+01
    2.8890832520e+02   -1.6070983887e+01
    2.8900823975e+02   -1.6148986816e+01
    2.8910842896e+02   -1.6226989746e+01
    2.8920828247e+02   -1.6304992676e+01
    2.8930841064e+02   -1.6382995605e+01
    2.8940838623e+02   -1.6460998535e+01
    2.8950836182e+02   -1.6539001465e+01
    2.8960836792e+02   -1.6617004395e+01
    2.8970837402e+02   -1.6693969727e+01
    2.8980834961e+02   -1.6772033691e+01
    2.8990835571e+02   -1.6848999023e+01
    2.9000830078e+02   -1.6927001953e+01
    2.9010833740e+02   -1.7010009766e+01
    2.9020834351e+02   -1.7091979980e+01
    2.9030844116e+02   -1.7174987793e+01
    2.9040835571e+02   -1.7257019043e+01
    2.9050836182e+02   -1.7339050293e+01
    2.9060848999e+02   -1.7421020508e+01
    2.9070849609e+02   -1.7502990723e+01
    2.9080844116e+02   -1.7584960938e+01
    2.9090841675e+02   -1.7668029785e+01
    2.9100845337e+02   -1.7749023438e+01
    2.9110848999e+02   -1.7832031250e+01
    2.9120840454e+02   -1.7914001465e+01
    2.9130838013e+02   -1.7996032715e+01
    2.9140841675e+02   -1.8077026367e+01
    2.9150842285e+02   -1.8158996582e+01
    2.9160855103e+02   -1.8241027832e+01
    2.9170855713e+02   -1.8322998047e+01
    2.9180844116e+02   -1.8403991699e+01
    2.9190844727e+02   -1.8486022949e+01
    2.9200848389e+02   -1.8567993164e+01
    2.9210845947e+02   -1.8648986816e+01
    2.9220843506e+02   -1.8729980469e+01
    2.9230850220e+02   -1.8812011719e+01
    2.9240856934e+02   -1.8893005371e+01
    2.9250854492e+02   -1.8974975586e+01
    2.9260852051e+02   -1.9057006836e+01
    2.9270846558e+02   -1.9138000488e+01
    2.9280856323e+02   -1.9218994141e+01
    2.9290847778e+02   -1.9299987793e+01
    2.9300854492e+02   -1.9380981445e+01
    2.9310848999e+02   -1.9461975098e+01
    2.9320849609e+02   -1.9544006348e+01
    2.9330865479e+02   -1.9625000000e+01
    2.9340850830e+02   -1.9705017090e+01
    2.9350851440e+02   -1.9786987305e+01
    2.9360867310e+02   -1.9867980957e+01
    2.9370855713e+02   -1.9949035645e+01
    2.9380853271e+02   -2.0030029297e+01
    2.9390866089e+02   -2.0109985352e+01
    2.9400869751e+02   -2.0191955566e+01
    2.9410858154e+02   -2.0272033691e+01
    2.9420858765e+02   -2.0353027344e+01
    2.9430859375e+02   -2.0434020996e+01
    2.9440856934e+02   -2.0514953613e+01
    2.9450872803e+02   -2.0594970703e+01
    2.9460858154e+02   -2.0676025391e+01
    2.9470861816e+02   -2.0757019043e+01
    2.9480868530e+02   -2.0836975098e+01
    2.9490875244e+02   -2.0917968750e+01
    2.9500863647e+02   -2.0999023438e+01
    2.9510867310e+02   -2.1079040527e+01
    2.9520861816e+02   -2.1158996582e+01
    2.9530877686e+02   -2.1239990234e+01
    2.9540875244e+02   -2.1320983887e+01
    2.9550872803e+02   -2.1401000977e+01
    2.9560879517e+02   -2.1481018066e+01
    2.9570864868e+02   -2.1560974121e+01
    2.9580865479e+02   -2.1641967773e+01
    2.9590872192e+02   -2.1723022461e+01
    2.9600878906e+02   -2.1803039551e+01
    2.9610867310e+02   -2.1883972168e+01
    2.9620874023e+02   -2.1963989258e+01
    2.9630877686e+02   -2.2044982910e+01
    2.9640872192e+02   -2.2125000000e+01
    2.9650878906e+02   -2.2205993652e+01
    2.9660879517e+02   -2.2286987305e+01
    2.9670870972e+02   -2.2367980957e+01
    2.9680874634e+02   -2.2447998047e+01
    2.9690878296e+02   -2.2528991699e+01
    2.9700878906e+02   -2.2611022949e+01
    2.9710888672e+02   -2.2692016602e+01
    2.9720877075e+02   -2.2771972656e+01
    2.9730874634e+02   -2.2854003906e+01
    2.9740878296e+02   -2.2934020996e+01
    2.9750891113e+02   -2.3015991211e+01
    2.9760876465e+02   -2.3096984863e+01
    2.9770892334e+02   -2.3177978516e+01
    2.9780889893e+02   -2.3260009766e+01
    2.9790884399e+02   -2.3341003418e+01
    2.9800881958e+02   -2.3421997070e+01
    2.9810891724e+02   -2.3503967285e+01
    2.9820889282e+02   -2.3583984375e+01
    2.9830880737e+02   -2.3665039062e+01
    2.9840890503e+02   -2.3747009277e+01
    2.9850888062e+02   -2.3827026367e+01
    2.9860882568e+02   -2.3908996582e+01
    2.9870895386e+02   -2.3991027832e+01
    2.9880886841e+02   -2.4072021484e+01
    2.9890884399e+02   -2.4153015137e+01
    2.9900900269e+02   -2.4234008789e+01
    2.9910888672e+02   -2.4315002441e+01
    2.9920901489e+02   -2.4397033691e+01
    2.9930889893e+02   -2.4479003906e+01
    2.9940902710e+02   -2.4559997559e+01
    2.9950903320e+02   -2.4641967773e+01
    2.9960903931e+02   -2.4722961426e+01
    2.9970892334e+02   -2.4804016113e+01
    2.9980895996e+02   -2.4887023926e+01
    2.9990899658e+02   -2.4968017578e+01
endcurve
