Curveplot
LS-DYNA keyword deck by LS-PrePost
Abscissa
Ordinate
XY data
CHOPHeadzDis-1 #pts=3000
* Minval=    -1.9118900299e+01 at time=       189.8023071289
* Maxval=     2.3671898842e+00 at time=       295.6087951660
    0.0000000000e+00    0.0000000000e+00
    9.9978484213e-02    2.4458899668e-14
    1.9994476438e-01    2.5567200623e-07
    2.9985594749e-01    3.9613900071e-07
    3.9993065596e-01    5.6227202094e-07
    4.9983286858e-01    7.2231199510e-07
    5.9996074438e-01    6.4414001599e-07
    6.9996917248e-01    4.5426901352e-07
    7.9987239838e-01    1.7704400079e-06
    8.9996677637e-01    4.5104197852e-06
    9.9981802702e-01    7.4132799455e-06
    1.0999013186e+00    9.5002096714e-06
    1.1999312639e+00    9.8522796179e-06
    1.2999420166e+00    9.5415698524e-06
    1.3998707533e+00    7.9744895629e-06
    1.4999967813e+00    5.4894899222e-06
    1.5999176502e+00    2.6344901016e-06
    1.6998231411e+00   -2.7837700145e-07
    1.7998125553e+00   -3.3952399008e-06
    1.8998631239e+00   -6.3058901105e-06
    1.9999403954e+00   -1.0030299563e-05
    2.0999372005e+00   -1.4623699826e-05
    2.1998307705e+00   -1.9563700334e-05
    2.2999815941e+00   -2.3728300221e-05
    2.3998348713e+00   -2.7452300856e-05
    2.4998700619e+00   -3.2930998714e-05
    2.5998649597e+00   -3.9945400204e-05
    2.6998441219e+00   -4.8792400776e-05
    2.7999923229e+00   -5.9665198933e-05
    2.8998992443e+00   -7.1318398113e-05
    2.9998807907e+00   -8.3325998276e-05
    3.0998446941e+00   -9.6216499514e-05
    3.1998353004e+00   -1.1066900333e-04
    3.2999982834e+00   -1.2572399282e-04
    3.3999238014e+00   -1.4277499577e-04
    3.4999976158e+00   -1.6236500232e-04
    3.5999677181e+00   -1.8445600290e-04
    3.6998908520e+00   -2.0719399618e-04
    3.7998950481e+00   -2.3154600058e-04
    3.8999593258e+00   -2.5658999220e-04
    3.9998872280e+00   -2.8317898978e-04
    4.0999002457e+00   -3.1270598993e-04
    4.1999154091e+00   -3.4535801387e-04
    4.2999529839e+00   -3.8026098628e-04
    4.3998851776e+00   -4.1687898920e-04
    4.4998784065e+00   -4.5589599176e-04
    4.5999293327e+00   -4.9735902576e-04
    4.6999778748e+00   -5.4137397092e-04
    4.7999606133e+00   -5.8799702674e-04
    4.8998966217e+00   -6.3750398112e-04
    4.9999694824e+00   -6.8919401383e-04
    5.0999503136e+00   -7.4386200868e-04
    5.1998300552e+00   -8.0119102495e-04
    5.2998480797e+00   -8.6051097605e-04
    5.3998847008e+00   -9.2218001373e-04
    5.4998626709e+00   -9.8609097768e-04
    5.5999817848e+00   -1.0535899783e-03
    5.6998472214e+00   -1.1236099526e-03
    5.7998046875e+00   -1.1969599873e-03
    5.8998994827e+00   -1.2735399650e-03
    5.9999914169e+00   -1.3533099554e-03
    6.0998306274e+00   -1.4367999975e-03
    6.1999139786e+00   -1.5244099777e-03
    6.2998967171e+00   -1.6146800481e-03
    6.3998079300e+00   -1.7068700399e-03
    6.4998803139e+00   -1.8013300141e-03
    6.5999507904e+00   -1.8991699908e-03
    6.6999664307e+00   -1.9995600451e-03
    6.7998299599e+00   -2.1025000606e-03
    6.8998317719e+00   -2.2084300872e-03
    6.9998917580e+00   -2.3175000679e-03
    7.0998682976e+00   -2.4295500480e-03
    7.1999130249e+00   -2.5444999337e-03
    7.2999601364e+00   -2.6624500751e-03
    7.3999619484e+00   -2.7827599552e-03
    7.4998159409e+00   -2.9065299314e-03
    7.5999779701e+00   -3.0344899278e-03
    7.6999573708e+00   -3.1657901127e-03
    7.7999353409e+00   -3.2987499144e-03
    7.8999133110e+00   -3.4341700375e-03
    7.9999518394e+00   -3.5723999608e-03
    8.0999116898e+00   -3.7135600578e-03
    8.1999921799e+00   -3.8580500986e-03
    8.2998600006e+00   -4.0049701929e-03
    8.3999414444e+00   -4.1551501490e-03
    8.4999418259e+00   -4.3070400134e-03
    8.5998668671e+00   -4.4609098695e-03
    8.6999950409e+00   -4.6164300293e-03
    8.7998943329e+00   -4.7731800005e-03
    8.8998794556e+00   -4.9324599095e-03
    8.9998931885e+00   -5.0953398459e-03
    9.0998735428e+00   -5.2616200410e-03
    9.1998090744e+00   -5.4306699894e-03
    9.2998924255e+00   -5.6030401029e-03
    9.3998374939e+00   -5.7768900879e-03
    9.4999208450e+00   -5.9531400912e-03
    9.5998888016e+00   -6.1313798651e-03
    9.6999607086e+00   -6.3120401464e-03
    9.7999601364e+00   -6.4950501546e-03
    9.8999509811e+00   -6.6802501678e-03
    9.9999437332e+00   -6.8675200455e-03
    1.0099899292e+01   -7.0563699119e-03
    1.0199932098e+01   -7.2471899912e-03
    1.0299875259e+01   -7.4401102029e-03
    1.0399922371e+01   -7.6357200742e-03
    1.0499888420e+01   -7.8332601115e-03
    1.0599976540e+01   -8.0336900428e-03
    1.0699834824e+01   -8.2364901900e-03
    1.0799839020e+01   -8.4397001192e-03
    1.0899987221e+01   -8.6434502155e-03
    1.0999872208e+01   -8.8489297777e-03
    1.1099974632e+01   -9.0582799166e-03
    1.1199816704e+01   -9.2722903937e-03
    1.1299883842e+01   -9.4904396683e-03
    1.1399881363e+01   -9.7122099251e-03
    1.1499829292e+01   -9.9379001185e-03
    1.1599976540e+01   -1.0167099535e-02
    1.1699942589e+01   -1.0398100130e-02
    1.1799819946e+01   -1.0630900040e-02
    1.1899915695e+01   -1.0866399854e-02
    1.1999942780e+01   -1.1104799807e-02
    1.2099864960e+01   -1.1346600018e-02
    1.2199995041e+01   -1.1590899900e-02
    1.2300000191e+01   -1.1836499907e-02
    1.2399901390e+01   -1.2084599584e-02
    1.2499962807e+01   -1.2338300236e-02
    1.2599871635e+01   -1.2596500106e-02
    1.2699990273e+01   -1.2860099785e-02
    1.2799981117e+01   -1.3127800077e-02
    1.2899868011e+01   -1.3398599811e-02
    1.2999883652e+01   -1.3673599809e-02
    1.3099851608e+01   -1.3951100409e-02
    1.3199937820e+01   -1.4232899994e-02
    1.3299961090e+01   -1.4518200420e-02
    1.3399948120e+01   -1.4807799831e-02
    1.3499955177e+01   -1.5102799982e-02
    1.3599972725e+01   -1.5402999707e-02
    1.3699863434e+01   -1.5705699101e-02
    1.3799963951e+01   -1.6013499349e-02
    1.3899989128e+01   -1.6325399280e-02
    1.3999843597e+01   -1.6641499475e-02
    1.4099994659e+01   -1.6964899376e-02
    1.4199995995e+01   -1.7293300480e-02
    1.4299977303e+01   -1.7626000568e-02
    1.4399853706e+01   -1.7962900922e-02
    1.4499971390e+01   -1.8304200843e-02
    1.4599962234e+01   -1.8650600687e-02
    1.4699860573e+01   -1.9001999870e-02
    1.4799954414e+01   -1.9359700382e-02
    1.4899956703e+01   -1.9722299650e-02
    1.4999971390e+01   -2.0089700818e-02
    1.5099837303e+01   -2.0461099222e-02
    1.5200016975e+01   -2.0838400349e-02
    1.5299937248e+01   -2.1219300106e-02
    1.5399894714e+01   -2.1604400128e-02
    1.5499953270e+01   -2.1994899958e-02
    1.5599922180e+01   -2.2390799597e-02
    1.5699946404e+01   -2.2792000324e-02
    1.5799880981e+01   -2.3197600618e-02
    1.5899893761e+01   -2.3608800024e-02
    1.6000009537e+01   -2.4025799707e-02
    1.6100021362e+01   -2.4449000135e-02
    1.6199943542e+01   -2.4878200144e-02
    1.6299993515e+01   -2.5311699137e-02
    1.6399923325e+01   -2.5747800246e-02
    1.6499935150e+01   -2.6186900213e-02
    1.6600019455e+01   -2.6630800217e-02
    1.6699966431e+01   -2.7077799663e-02
    1.6799919128e+01   -2.7528699487e-02
    1.6899942398e+01   -2.7983900160e-02
    1.6999977112e+01   -2.8444500640e-02
    1.7099969864e+01   -2.8909800574e-02
    1.7200016022e+01   -2.9378900304e-02
    1.7299913406e+01   -2.9851200059e-02
    1.7399948120e+01   -3.0327400193e-02
    1.7499986649e+01   -3.0808499083e-02
    1.7599855423e+01   -3.1293001026e-02
    1.7699888229e+01   -3.1782001257e-02
    1.7799867630e+01   -3.2272901386e-02
    1.7900030136e+01   -3.2767999917e-02
    1.8000001907e+01   -3.3265400678e-02
    1.8100002289e+01   -3.3766601235e-02
    1.8199903488e+01   -3.4270599484e-02
    1.8299930573e+01   -3.4778501838e-02
    1.8399866104e+01   -3.5289499909e-02
    1.8499961853e+01   -3.5803098232e-02
    1.8600009918e+01   -3.6318298429e-02
    1.8699945450e+01   -3.6834098399e-02
    1.8799982071e+01   -3.7352100015e-02
    1.8899885178e+01   -3.7872400135e-02
    1.8999877930e+01   -3.8396898657e-02
    1.9099937439e+01   -3.8924299181e-02
    1.9199964523e+01   -3.9454601705e-02
    1.9299915314e+01   -3.9987999946e-02
    1.9399930954e+01   -4.0523301810e-02
    1.9499971390e+01   -4.1060898453e-02
    1.9599996567e+01   -4.1600000113e-02
    1.9699876785e+01   -4.2139999568e-02
    1.9799945831e+01   -4.2682901025e-02
    1.9899951935e+01   -4.3227300048e-02
    1.9999975204e+01   -4.3772701174e-02
    2.0099910736e+01   -4.4318798929e-02
    2.0200038910e+01   -4.4867701828e-02
    2.0299928665e+01   -4.5418400317e-02
    2.0399969101e+01   -4.5971799642e-02
    2.0499897003e+01   -4.6526201069e-02
    2.0599882126e+01   -4.7083098441e-02
    2.0699890137e+01   -4.7641798854e-02
    2.0800008774e+01   -4.8200000077e-02
    2.0900033951e+01   -4.8757199198e-02
    2.0999982834e+01   -4.9315601587e-02
    2.1099977493e+01   -4.9877498299e-02
    2.1199924469e+01   -5.0443999469e-02
    2.1299985886e+01   -5.1013700664e-02
    2.1399898529e+01   -5.1585800946e-02
    2.1500028610e+01   -5.2162401378e-02
    2.1599893570e+01   -5.2740100771e-02
    2.1700010300e+01   -5.3320698440e-02
    2.1799985886e+01   -5.3901899606e-02
    2.1899875641e+01   -5.4483599961e-02
    2.1999879837e+01   -5.5067300797e-02
    2.2100011826e+01   -5.5654998869e-02
    2.2199956894e+01   -5.6242499501e-02
    2.2300016403e+01   -5.6830901653e-02
    2.2400018692e+01   -5.7420399040e-02
    2.2499933243e+01   -5.8014098555e-02
    2.2600017548e+01   -5.8612998575e-02
    2.2699880600e+01   -5.9214100242e-02
    2.2799909592e+01   -5.9819400311e-02
    2.2900049210e+01   -6.0427699238e-02
    2.2999948502e+01   -6.1036899686e-02
    2.3099882126e+01   -6.1647601426e-02
    2.3199964523e+01   -6.2261600047e-02
    2.3299911499e+01   -6.2877796590e-02
    2.3400043488e+01   -6.3497997820e-02
    2.3499912262e+01   -6.4120203257e-02
    2.3599950790e+01   -6.4747601748e-02
    2.3699897766e+01   -6.5375298262e-02
    2.3799978256e+01   -6.6006496549e-02
    2.3899904251e+01   -6.6639900208e-02
    2.4000043869e+01   -6.7277297378e-02
    2.4100038528e+01   -6.7918099463e-02
    2.4200052261e+01   -6.8562597036e-02
    2.4300033569e+01   -6.9209299982e-02
    2.4399972916e+01   -6.9857798517e-02
    2.4500045776e+01   -7.0509500802e-02
    2.4599969864e+01   -7.1164198220e-02
    2.4699985504e+01   -7.1823298931e-02
    2.4800001144e+01   -7.2485603392e-02
    2.4899925232e+01   -7.3150202632e-02
    2.4999992371e+01   -7.3818303645e-02
    2.5100019455e+01   -7.4488401413e-02
    2.5199989319e+01   -7.5161598623e-02
    2.5299991608e+01   -7.5837001204e-02
    2.5399894714e+01   -7.6513603330e-02
    2.5499933243e+01   -7.7192701399e-02
    2.5600042343e+01   -7.7875502408e-02
    2.5699977875e+01   -7.8559599817e-02
    2.5799924850e+01   -7.9246498644e-02
    2.5899940491e+01   -7.9936496913e-02
    2.5999990463e+01   -8.0630697310e-02
    2.6100011826e+01   -8.1329502165e-02
    2.6199951172e+01   -8.2030996680e-02
    2.6299898148e+01   -8.2733899355e-02
    2.6399993896e+01   -8.3437800407e-02
    2.6500017166e+01   -8.4140799940e-02
    2.6599876404e+01   -8.4845103323e-02
    2.6700063705e+01   -8.5553400218e-02
    2.6800020218e+01   -8.6260899901e-02
    2.6900028229e+01   -8.6970299482e-02
    2.6999944687e+01   -8.7682202458e-02
    2.7100065231e+01   -8.8397502899e-02
    2.7199987411e+01   -8.9112997055e-02
    2.7299985886e+01   -8.9829400182e-02
    2.7399879456e+01   -9.0546302497e-02
    2.7500011444e+01   -9.1266900301e-02
    2.7599903107e+01   -9.1987803578e-02
    2.7700067520e+01   -9.2711701989e-02
    2.7800014496e+01   -9.3433797359e-02
    2.7899932861e+01   -9.4156198204e-02
    2.7999940872e+01   -9.4879902899e-02
    2.8099967957e+01   -9.5605500042e-02
    2.8200038910e+01   -9.6332803369e-02
    2.8299932480e+01   -9.7059197724e-02
    2.8400028229e+01   -9.7788102925e-02
    2.8500000000e+01   -9.8515599966e-02
    2.8600059509e+01   -9.9241897464e-02
    2.8700017929e+01   -9.9966198206e-02
    2.8800045013e+01   -1.0069099814e-01
    2.8900045395e+01   -1.0141599923e-01
    2.8999914169e+01   -1.0214100033e-01
    2.9100065231e+01   -1.0286899656e-01
    2.9199949265e+01   -1.0359700024e-01
    2.9299966812e+01   -1.0432600230e-01
    2.9400009155e+01   -1.0505499691e-01
    2.9499992371e+01   -1.0578399897e-01
    2.9599905014e+01   -1.0651200265e-01
    2.9699943542e+01   -1.0723999888e-01
    2.9800020218e+01   -1.0796800256e-01
    2.9900011063e+01   -1.0869400203e-01
    3.0000030518e+01   -1.0941900313e-01
    3.0099977493e+01   -1.1014299840e-01
    3.0200006485e+01   -1.1086700112e-01
    3.0299949646e+01   -1.1159200221e-01
    3.0400007248e+01   -1.1231800169e-01
    3.0499969482e+01   -1.1304300278e-01
    3.0599927902e+01   -1.1376699805e-01
    3.0699987411e+01   -1.1449299753e-01
    3.0800060272e+01   -1.1521299928e-01
    3.0900039673e+01   -1.1592700332e-01
    3.0999963760e+01   -1.1664000154e-01
    3.1100059509e+01   -1.1735700071e-01
    3.1200065613e+01   -1.1807999760e-01
    3.1300043106e+01   -1.1880599707e-01
    3.1400012970e+01   -1.1953499913e-01
    3.1500053406e+01   -1.2026900053e-01
    3.1599956512e+01   -1.2100400031e-01
    3.1700004578e+01   -1.2173999846e-01
    3.1799985886e+01   -1.2247399986e-01
    3.1900049210e+01   -1.2320800126e-01
    3.2000019073e+01   -1.2394200265e-01
    3.2100021362e+01   -1.2468100339e-01
    3.2200027466e+01   -1.2541900575e-01
    3.2299896240e+01   -1.2615300715e-01
    3.2399921417e+01   -1.2688800693e-01
    3.2500053406e+01   -1.2763099372e-01
    3.2599964142e+01   -1.2837900221e-01
    3.2699958801e+01   -1.2913300097e-01
    3.2799972534e+01   -1.2989300489e-01
    3.2899932861e+01   -1.3065600395e-01
    3.2999946594e+01   -1.3142099977e-01
    3.3099956512e+01   -1.3218800724e-01
    3.3200050354e+01   -1.3296000659e-01
    3.3299980164e+01   -1.3373400271e-01
    3.3399986267e+01   -1.3451400399e-01
    3.3500026703e+01   -1.3530300558e-01
    3.3599929810e+01   -1.3609899580e-01
    3.3699920654e+01   -1.3689599931e-01
    3.3799945831e+01   -1.3769799471e-01
    3.3899971008e+01   -1.3850300014e-01
    3.4000022888e+01   -1.3931499422e-01
    3.4099967957e+01   -1.4013500512e-01
    3.4200031281e+01   -1.4096499979e-01
    3.4299991608e+01   -1.4180000126e-01
    3.4399997711e+01   -1.4263999462e-01
    3.4499969482e+01   -1.4348499477e-01
    3.4599987030e+01   -1.4433999360e-01
    3.4700038910e+01   -1.4520299435e-01
    3.4799896240e+01   -1.4607299864e-01
    3.4899944305e+01   -1.4695400000e-01
    3.5000022888e+01   -1.4784200490e-01
    3.5099899292e+01   -1.4873699844e-01
    3.5200019836e+01   -1.4964100718e-01
    3.5299957275e+01   -1.5054899454e-01
    3.5400020599e+01   -1.5146300197e-01
    3.5499973297e+01   -1.5238499641e-01
    3.5599994659e+01   -1.5331700444e-01
    3.5699958801e+01   -1.5425799787e-01
    3.5799915314e+01   -1.5520699322e-01
    3.5899986267e+01   -1.5616600215e-01
    3.6000007629e+01   -1.5713499486e-01
    3.6099834442e+01   -1.5811599791e-01
    3.6199829102e+01   -1.5910999477e-01
    3.6299858093e+01   -1.6011199355e-01
    3.6399887085e+01   -1.6111899912e-01
    3.6499965668e+01   -1.6213099658e-01
    3.6599861145e+01   -1.6315099597e-01
    3.6699977875e+01   -1.6418099403e-01
    3.6799884796e+01   -1.6521500051e-01
    3.6899868011e+01   -1.6625800729e-01
    3.7000000000e+01   -1.6731299460e-01
    3.7099826813e+01   -1.6837500036e-01
    3.7199993134e+01   -1.6944800317e-01
    3.7299999237e+01   -1.7052799463e-01
    3.7399833679e+01   -1.7161199450e-01
    3.7499885559e+01   -1.7270900309e-01
    3.7599887848e+01   -1.7381499708e-01
    3.7699905396e+01   -1.7492899299e-01
    3.7799926758e+01   -1.7604899406e-01
    3.7899852753e+01   -1.7717400193e-01
    3.7999881744e+01   -1.7830899358e-01
    3.8099922180e+01   -1.7945200205e-01
    3.8199855804e+01   -1.8060399592e-01
    3.8299934387e+01   -1.8176400661e-01
    3.8399871826e+01   -1.8293100595e-01
    3.8499889374e+01   -1.8410399556e-01
    3.8599884033e+01   -1.8527899683e-01
    3.8699882507e+01   -1.8645800650e-01
    3.8799812317e+01   -1.8764099479e-01
    3.8899814606e+01   -1.8883299828e-01
    3.8999797821e+01   -1.9003300369e-01
    3.9099895477e+01   -1.9124400616e-01
    3.9199844360e+01   -1.9246099889e-01
    3.9299861908e+01   -1.9368800521e-01
    3.9399944305e+01   -1.9492100179e-01
    3.9499946594e+01   -1.9615900517e-01
    3.9599903107e+01   -1.9740200043e-01
    3.9699886322e+01   -1.9865000248e-01
    3.9799957275e+01   -1.9990700483e-01
    3.9899921417e+01   -2.0116800070e-01
    3.9999809265e+01   -2.0243099332e-01
    4.0099941254e+01   -2.0370000601e-01
    4.0199787140e+01   -2.0497299731e-01
    4.0299869537e+01   -2.0625700057e-01
    4.0399929047e+01   -2.0754800737e-01
    4.0499782562e+01   -2.0884199440e-01
    4.0599948883e+01   -2.1014800668e-01
    4.0699897766e+01   -2.1145600080e-01
    4.0799831390e+01   -2.1276199818e-01
    4.0899837494e+01   -2.1406799555e-01
    4.0999752045e+01   -2.1537800133e-01
    4.1099769592e+01   -2.1669800580e-01
    4.1199775696e+01   -2.1803499758e-01
    4.1299812317e+01   -2.1938200295e-01
    4.1399841309e+01   -2.2074200213e-01
    4.1499851227e+01   -2.2211199999e-01
    4.1599895477e+01   -2.2349199653e-01
    4.1699802399e+01   -2.2487699986e-01
    4.1799865723e+01   -2.2627100348e-01
    4.1899848938e+01   -2.2766999900e-01
    4.1999832153e+01   -2.2907799482e-01
    4.2099906921e+01   -2.3049700260e-01
    4.2199810028e+01   -2.3191900551e-01
    4.2299758911e+01   -2.3334600031e-01
    4.2399814606e+01   -2.3478099704e-01
    4.2499809265e+01   -2.3623099923e-01
    4.2599796295e+01   -2.3769499362e-01
    4.2699745178e+01   -2.3917399347e-01
    4.2799892426e+01   -2.4066899717e-01
    4.2899875641e+01   -2.4217200279e-01
    4.2999862671e+01   -2.4368600547e-01
    4.3099845886e+01   -2.4520699680e-01
    4.3199832916e+01   -2.4674099684e-01
    4.3299884796e+01   -2.4828800559e-01
    4.3399837494e+01   -2.4984900653e-01
    4.3499855042e+01   -2.5142899156e-01
    4.3599899292e+01   -2.5302699208e-01
    4.3699829102e+01   -2.5463101268e-01
    4.3799827576e+01   -2.5624901056e-01
    4.3899833679e+01   -2.5788098574e-01
    4.3999832153e+01   -2.5952500105e-01
    4.4099826813e+01   -2.6118600368e-01
    4.4199737549e+01   -2.6286101341e-01
    4.4299892426e+01   -2.6455500722e-01
    4.4399868011e+01   -2.6625698805e-01
    4.4499702454e+01   -2.6796901226e-01
    4.4599742889e+01   -2.6970100403e-01
    4.4699775696e+01   -2.7145099640e-01
    4.4799800873e+01   -2.7321699262e-01
    4.4899864197e+01   -2.7500200272e-01
    4.4999713898e+01   -2.7679699659e-01
    4.5099708557e+01   -2.7860900760e-01
    4.5199810028e+01   -2.8043898940e-01
    4.5299716949e+01   -2.8227800131e-01
    4.5399738312e+01   -2.8413200378e-01
    4.5499870300e+01   -2.8600099683e-01
    4.5599754333e+01   -2.8788399696e-01
    4.5699707031e+01   -2.8978300095e-01
    4.5799831390e+01   -2.9170000553e-01
    4.5899711609e+01   -2.9362800717e-01
    4.5999748230e+01   -2.9557800293e-01
    4.6099834442e+01   -2.9754900932e-01
    4.6199802399e+01   -2.9953598976e-01
    4.6299800873e+01   -3.0153599381e-01
    4.6399692535e+01   -3.0354300141e-01
    4.6499713898e+01   -3.0556198955e-01
    4.6599819183e+01   -3.0759599805e-01
    4.6699840546e+01   -3.0964198709e-01
    4.6799701691e+01   -3.1169500947e-01
    4.6899787903e+01   -3.1376600266e-01
    4.6999794006e+01   -3.1585198641e-01
    4.7099784851e+01   -3.1795299053e-01
    4.7199695587e+01   -3.2006299496e-01
    4.7299804688e+01   -3.2218798995e-01
    4.7399776459e+01   -3.2432198524e-01
    4.7499843597e+01   -3.2647100091e-01
    4.7599708557e+01   -3.2862898707e-01
    4.7699691772e+01   -3.3079901338e-01
    4.7799755096e+01   -3.3297899365e-01
    4.7899799347e+01   -3.3516499400e-01
    4.7999759674e+01   -3.3736300468e-01
    4.8099727631e+01   -3.3957400918e-01
    4.8199680328e+01   -3.4179499745e-01
    4.8299709320e+01   -3.4402498603e-01
    4.8399784088e+01   -3.4626901150e-01
    4.8499725342e+01   -3.4851500392e-01
    4.8599765778e+01   -3.5076600313e-01
    4.8699726105e+01   -3.5302001238e-01
    4.8799701691e+01   -3.5527798533e-01
    4.8899768829e+01   -3.5754999518e-01
    4.8999675751e+01   -3.5982799530e-01
    4.9099800110e+01   -3.6212199926e-01
    4.9199691772e+01   -3.6441901326e-01
    4.9299644470e+01   -3.6672800779e-01
    4.9399677277e+01   -3.6904400587e-01
    4.9499786377e+01   -3.7136998773e-01
    4.9599704742e+01   -3.7369599938e-01
    4.9699722290e+01   -3.7603101134e-01
    4.9799629211e+01   -3.7836998701e-01
    4.9899761200e+01   -3.8071900606e-01
    4.9999683380e+01   -3.8306498528e-01
    5.0099693298e+01   -3.8541600108e-01
    5.0199775696e+01   -3.8777801394e-01
    5.0299724579e+01   -3.9014500380e-01
    5.0399742126e+01   -3.9252200723e-01
    5.0499668121e+01   -3.9490100741e-01
    5.0599678040e+01   -3.9728999138e-01
    5.0699630737e+01   -3.9968299866e-01
    5.0799720764e+01   -4.0207299590e-01
    5.0899765015e+01   -4.0445700288e-01
    5.0999656677e+01   -4.0684100986e-01
    5.1099712372e+01   -4.0924000740e-01
    5.1199718475e+01   -4.1165199876e-01
    5.1299747467e+01   -4.1407701373e-01
    5.1399620056e+01   -4.1650798917e-01
    5.1499671936e+01   -4.1895800829e-01
    5.1599685669e+01   -4.2141699791e-01
    5.1699718475e+01   -4.2388200760e-01
    5.1799606323e+01   -4.2634901404e-01
    5.1899761200e+01   -4.2882800102e-01
    5.1999633789e+01   -4.3130800128e-01
    5.2099731445e+01   -4.3380498886e-01
    5.2199714661e+01   -4.3630498648e-01
    5.2299598694e+01   -4.3880200386e-01
    5.2399673462e+01   -4.4130998850e-01
    5.2499603271e+01   -4.4382798672e-01
    5.2599750519e+01   -4.4637000561e-01
    5.2699607849e+01   -4.4891500473e-01
    5.2799686432e+01   -4.5147898793e-01
    5.2899692535e+01   -4.5405000448e-01
    5.2999664307e+01   -4.5662900805e-01
    5.3099590302e+01   -4.5921400189e-01
    5.3199596405e+01   -4.6181100607e-01
    5.3299671173e+01   -4.6442401409e-01
    5.3399654388e+01   -4.6704798937e-01
    5.3499603271e+01   -4.6969300508e-01
    5.3599712372e+01   -4.7235998511e-01
    5.3699672699e+01   -4.7503200173e-01
    5.3799583435e+01   -4.7771200538e-01
    5.3899574280e+01   -4.8040801287e-01
    5.3999687195e+01   -4.8311701417e-01
    5.4099624634e+01   -4.8583599925e-01
    5.4199634552e+01   -4.8857098818e-01
    5.4299663544e+01   -4.9131599069e-01
    5.4399547577e+01   -4.9406498671e-01
    5.4499645233e+01   -4.9682798982e-01
    5.4599685669e+01   -4.9960601330e-01
    5.4699588776e+01   -5.0239497423e-01
    5.4799594879e+01   -5.0520402193e-01
    5.4899650574e+01   -5.0802898407e-01
    5.4999568939e+01   -5.1086401939e-01
    5.5099613190e+01   -5.1371598244e-01
    5.5199722290e+01   -5.1658397913e-01
    5.5299694061e+01   -5.1945799589e-01
    5.5399608612e+01   -5.2234101295e-01
    5.5499637604e+01   -5.2523797750e-01
    5.5599674225e+01   -5.2814900875e-01
    5.5699668884e+01   -5.3107100725e-01
    5.5799541473e+01   -5.3399902582e-01
    5.5899627686e+01   -5.3694701195e-01
    5.5999656677e+01   -5.3990799189e-01
    5.6099613190e+01   -5.4288697243e-01
    5.6199653625e+01   -5.4588598013e-01
    5.6299560547e+01   -5.4889100790e-01
    5.6399532318e+01   -5.5190199614e-01
    5.6499553680e+01   -5.5491900444e-01
    5.6599662781e+01   -5.5795198679e-01
    5.6699607849e+01   -5.6098997593e-01
    5.6799545288e+01   -5.6403601170e-01
    5.6899665833e+01   -5.6709897518e-01
    5.6999614716e+01   -5.7017201185e-01
    5.7099521637e+01   -5.7325398922e-01
    5.7199523926e+01   -5.7634699345e-01
    5.7299674988e+01   -5.7945102453e-01
    5.7399566650e+01   -5.8255100250e-01
    5.7499595642e+01   -5.8566498756e-01
    5.7599620819e+01   -5.8878898621e-01
    5.7699558258e+01   -5.9191799164e-01
    5.7799518585e+01   -5.9505099058e-01
    5.7899627686e+01   -5.9819602966e-01
    5.7999576569e+01   -6.0134297609e-01
    5.8099639893e+01   -6.0450398922e-01
    5.8199581146e+01   -6.0766899586e-01
    5.8299652100e+01   -6.1084502935e-01
    5.8399593353e+01   -6.1402398348e-01
    5.8499515533e+01   -6.1720401049e-01
    5.8599624634e+01   -6.2038600445e-01
    5.8699584961e+01   -6.2356400490e-01
    5.8799510956e+01   -6.2673997879e-01
    5.8899551392e+01   -6.2992602587e-01
    5.8999591827e+01   -6.3311898708e-01
    5.9099605560e+01   -6.3631600142e-01
    5.9199497223e+01   -6.3951599598e-01
    5.9299488068e+01   -6.4272701740e-01
    5.9399654388e+01   -6.4594697952e-01
    5.9499633789e+01   -6.4916402102e-01
    5.9599586487e+01   -6.5238201618e-01
    5.9699630737e+01   -6.5560597181e-01
    5.9799552917e+01   -6.5882998705e-01
    5.9899524689e+01   -6.6205602884e-01
    5.9999519348e+01   -6.6527998447e-01
    6.0099643707e+01   -6.6850799322e-01
    6.0199581146e+01   -6.7173397541e-01
    6.0299583435e+01   -6.7496997118e-01
    6.0399501801e+01   -6.7820698023e-01
    6.0499507904e+01   -6.8144601583e-01
    6.0599502563e+01   -6.8468600512e-01
    6.0699542999e+01   -6.8793100119e-01
    6.0799564362e+01   -6.9116199017e-01
    6.0899490356e+01   -6.9438099861e-01
    6.0999588013e+01   -6.9760400057e-01
    6.1099559784e+01   -7.0082998276e-01
    6.1199512482e+01   -7.0406997204e-01
    6.1299606323e+01   -7.0732402802e-01
    6.1399570465e+01   -7.1058398485e-01
    6.1499546051e+01   -7.1385502815e-01
    6.1599517822e+01   -7.1713399887e-01
    6.1699516296e+01   -7.2041702271e-01
    6.1799499512e+01   -7.2370398045e-01
    6.1899562836e+01   -7.2699499130e-01
    6.1999618530e+01   -7.3029100895e-01
    6.2099491119e+01   -7.3358899355e-01
    6.2199600220e+01   -7.3689597845e-01
    6.2299610138e+01   -7.4019801617e-01
    6.2399501801e+01   -7.4349999428e-01
    6.2499546051e+01   -7.4682098627e-01
    6.2599575043e+01   -7.5015598536e-01
    6.2699577332e+01   -7.5350201130e-01
    6.2799491882e+01   -7.5685697794e-01
    6.2899452209e+01   -7.6021999121e-01
    6.2999519348e+01   -7.6359498501e-01
    6.3099445343e+01   -7.6696997881e-01
    6.3199558258e+01   -7.7035999298e-01
    6.3299438477e+01   -7.7375400066e-01
    6.3399513245e+01   -7.7716898918e-01
    6.3499568939e+01   -7.8060400486e-01
    6.3599418640e+01   -7.8405201435e-01
    6.3699485779e+01   -7.8751301765e-01
    6.3799503326e+01   -7.9098600149e-01
    6.3899452209e+01   -7.9447102547e-01
    6.3999488831e+01   -7.9797101021e-01
    6.4099487305e+01   -8.0148297548e-01
    6.4199447632e+01   -8.0500698090e-01
    6.4299552917e+01   -8.0854499340e-01
    6.4399536133e+01   -8.1208598614e-01
    6.4499488831e+01   -8.1563401222e-01
    6.4599418640e+01   -8.1919598579e-01
    6.4699417114e+01   -8.2277601957e-01
    6.4799423218e+01   -8.2637399435e-01
    6.4899421692e+01   -8.2998698950e-01
    6.4999542236e+01   -8.3361601830e-01
    6.5099555969e+01   -8.3725601435e-01
    6.5199523926e+01   -8.4090799093e-01
    6.5299377441e+01   -8.4456801414e-01
    6.5399513245e+01   -8.4825098515e-01
    6.5499412537e+01   -8.5194098949e-01
    6.5599411011e+01   -8.5565102100e-01
    6.5699424744e+01   -8.5937798023e-01
    6.5799400330e+01   -8.6311799288e-01
    6.5899452209e+01   -8.6687600613e-01
    6.5999427795e+01   -8.7064898014e-01
    6.6099388123e+01   -8.7444698811e-01
    6.6199417114e+01   -8.7826597691e-01
    6.6299415588e+01   -8.8209599257e-01
    6.6399398804e+01   -8.8592898846e-01
    6.6499412537e+01   -8.8976997137e-01
    6.6599380493e+01   -8.9362001419e-01
    6.6699378967e+01   -8.9748102427e-01
    6.6799461365e+01   -9.0135598183e-01
    6.6899375916e+01   -9.0523898602e-01
    6.6999488831e+01   -9.0914797783e-01
    6.7099540710e+01   -9.1307300329e-01
    6.7199363708e+01   -9.1700202227e-01
    6.7299507141e+01   -9.2095202208e-01
    6.7399497986e+01   -9.2490702868e-01
    6.7499420166e+01   -9.2887198925e-01
    6.7599533081e+01   -9.3285900354e-01
    6.7699516296e+01   -9.3685102463e-01
    6.7799362183e+01   -9.4084399939e-01
    6.7899444580e+01   -9.4485598803e-01
    6.7999511719e+01   -9.4888001680e-01
    6.8099472046e+01   -9.5291197300e-01
    6.8199531555e+01   -9.5695602894e-01
    6.8299430847e+01   -9.6100097895e-01
    6.8399414062e+01   -9.6505999565e-01
    6.8499496460e+01   -9.6912497282e-01
    6.8599418640e+01   -9.7318500280e-01
    6.8699386597e+01   -9.7724902630e-01
    6.8799392700e+01   -9.8131799698e-01
    6.8899421692e+01   -9.8539900780e-01
    6.8999366760e+01   -9.8948800564e-01
    6.9099372864e+01   -9.9358999729e-01
    6.9199440002e+01   -9.9770700932e-01
    6.9299400330e+01   -1.0018299818e+00
    6.9399444580e+01   -1.0059700012e+00
    6.9499412537e+01   -1.0101100206e+00
    6.9599327087e+01   -1.0142500401e+00
    6.9699478149e+01   -1.0184099674e+00
    6.9799331665e+01   -1.0225600004e+00
    6.9899452209e+01   -1.0267299414e+00
    6.9999389648e+01   -1.0308899879e+00
    7.0099426270e+01   -1.0350600481e+00
    7.0199493408e+01   -1.0392400026e+00
    7.0299446106e+01   -1.0434199572e+00
    7.0399475098e+01   -1.0476200581e+00
    7.0499389648e+01   -1.0518200397e+00
    7.0599334717e+01   -1.0560300350e+00
    7.0699302673e+01   -1.0602500439e+00
    7.0799377441e+01   -1.0644600391e+00
    7.0899337769e+01   -1.0686600208e+00
    7.0999313354e+01   -1.0728600025e+00
    7.1099380493e+01   -1.0770800114e+00
    7.1199310303e+01   -1.0813100338e+00
    7.1299301147e+01   -1.0855599642e+00
    7.1399375916e+01   -1.0898300409e+00
    7.1499404907e+01   -1.0941100121e+00
    7.1599403381e+01   -1.0983999968e+00
    7.1699432373e+01   -1.1026999950e+00
    7.1799438477e+01   -1.1069999933e+00
    7.1899360657e+01   -1.1113100052e+00
    7.1999351501e+01   -1.1156400442e+00
    7.2099395752e+01   -1.1199799776e+00
    7.2199386597e+01   -1.1243200302e+00
    7.2299392700e+01   -1.1286699772e+00
    7.2399284363e+01   -1.1330200434e+00
    7.2499351501e+01   -1.1374000311e+00
    7.2599441528e+01   -1.1418000460e+00
    7.2699371338e+01   -1.1462099552e+00
    7.2799301147e+01   -1.1506400108e+00
    7.2899337769e+01   -1.1550799608e+00
    7.2999397278e+01   -1.1595400572e+00
    7.3099411011e+01   -1.1640000343e+00
    7.3199302673e+01   -1.1684700251e+00
    7.3299270630e+01   -1.1729600430e+00
    7.3399269104e+01   -1.1774699688e+00
    7.3499389648e+01   -1.1820100546e+00
    7.3599426270e+01   -1.1865799427e+00
    7.3699432373e+01   -1.1911499500e+00
    7.3799377441e+01   -1.1957399845e+00
    7.3899391174e+01   -1.2003599405e+00
    7.3999351501e+01   -1.2049900293e+00
    7.4099319458e+01   -1.2096400261e+00
    7.4199348450e+01   -1.2143100500e+00
    7.4299362183e+01   -1.2189999819e+00
    7.4399276733e+01   -1.2236800194e+00
    7.4499359131e+01   -1.2283899784e+00
    7.4599411011e+01   -1.2331099510e+00
    7.4699378967e+01   -1.2378499508e+00
    7.4799385071e+01   -1.2426199913e+00
    7.4899284363e+01   -1.2473900318e+00
    7.4999252319e+01   -1.2521899939e+00
    7.5099349976e+01   -1.2570099831e+00
    7.5199287415e+01   -1.2618399858e+00
    7.5299339294e+01   -1.2667000294e+00
    7.5399238586e+01   -1.2715599537e+00
    7.5499366760e+01   -1.2764500380e+00
    7.5599395752e+01   -1.2813600302e+00
    7.5699287415e+01   -1.2862900496e+00
    7.5799400330e+01   -1.2912399769e+00
    7.5899253845e+01   -1.2962000370e+00
    7.5999336243e+01   -1.3012000322e+00
    7.6099342346e+01   -1.3062200546e+00
    7.6199371338e+01   -1.3112599850e+00
    7.6299293518e+01   -1.3163100481e+00
    7.6399307251e+01   -1.3213700056e+00
    7.6499382019e+01   -1.3264399767e+00
    7.6599235535e+01   -1.3315099478e+00
    7.6699325562e+01   -1.3366099596e+00
    7.6799224854e+01   -1.3417099714e+00
    7.6899253845e+01   -1.3468400240e+00
    7.6999343872e+01   -1.3519899845e+00
    7.7099334717e+01   -1.3571599722e+00
    7.7199234009e+01   -1.3623399734e+00
    7.7299263000e+01   -1.3675400019e+00
    7.7399253845e+01   -1.3727600574e+00
    7.7499359131e+01   -1.3779900074e+00
    7.7599250793e+01   -1.3832299709e+00
    7.7699203491e+01   -1.3884799480e+00
    7.7799331665e+01   -1.3937499523e+00
    7.7899253845e+01   -1.3990199566e+00
    7.7999282837e+01   -1.4043099880e+00
    7.8099273682e+01   -1.4096100330e+00
    7.8199310303e+01   -1.4149199724e+00
    7.8299217224e+01   -1.4202400446e+00
    7.8399223328e+01   -1.4255700111e+00
    7.8499313354e+01   -1.4309200048e+00
    7.8599311829e+01   -1.4362599850e+00
    7.8699195862e+01   -1.4415899515e+00
    7.8799255371e+01   -1.4469499588e+00
    7.8899185181e+01   -1.4523099661e+00
    7.8999282837e+01   -1.4576900005e+00
    7.9099205017e+01   -1.4630700350e+00
    7.9199302673e+01   -1.4684799910e+00
    7.9299232483e+01   -1.4738899469e+00
    7.9399223328e+01   -1.4793100357e+00
    7.9499259949e+01   -1.4847400188e+00
    7.9599235535e+01   -1.4901800156e+00
    7.9699226379e+01   -1.4956200123e+00
    7.9799232483e+01   -1.5010700226e+00
    7.9899238586e+01   -1.5065300465e+00
    7.9999221802e+01   -1.5119800568e+00
    8.0099304199e+01   -1.5174499750e+00
    8.0199310303e+01   -1.5229200125e+00
    8.0299293518e+01   -1.5284099579e+00
    8.0399322510e+01   -1.5339100361e+00
    8.0499328613e+01   -1.5394099951e+00
    8.0599273682e+01   -1.5449199677e+00
    8.0699256897e+01   -1.5504399538e+00
    8.0799240112e+01   -1.5559400320e+00
    8.0899208069e+01   -1.5614399910e+00
    8.0999267578e+01   -1.5669499636e+00
    8.1099227905e+01   -1.5724600554e+00
    8.1199195862e+01   -1.5779999495e+00
    8.1299148560e+01   -1.5835399628e+00
    8.1399139404e+01   -1.5891000032e+00
    8.1499137878e+01   -1.5946799517e+00
    8.1599281311e+01   -1.6002899408e+00
    8.1699157715e+01   -1.6058800220e+00
    8.1799186707e+01   -1.6115000248e+00
    8.1899269104e+01   -1.6171200275e+00
    8.1999237061e+01   -1.6227500439e+00
    8.2099151611e+01   -1.6283899546e+00
    8.2199302673e+01   -1.6340500116e+00
    8.2299301147e+01   -1.6397000551e+00
    8.2399291992e+01   -1.6453499794e+00
    8.2499130249e+01   -1.6510200500e+00
    8.2599143982e+01   -1.6567300558e+00
    8.2699134827e+01   -1.6624399424e+00
    8.2799156189e+01   -1.6681799889e+00
    8.2899230957e+01   -1.6739300489e+00
    8.2999198914e+01   -1.6796799898e+00
    8.3099220276e+01   -1.6854399443e+00
    8.3199157715e+01   -1.6912200451e+00
    8.3299232483e+01   -1.6970200539e+00
    8.3399177551e+01   -1.7028299570e+00
    8.3499122620e+01   -1.7086700201e+00
    8.3599105835e+01   -1.7145400047e+00
    8.3699195862e+01   -1.7204300165e+00
    8.3799148560e+01   -1.7263200283e+00
    8.3899253845e+01   -1.7322499752e+00
    8.3999259949e+01   -1.7381900549e+00
    8.4099105835e+01   -1.7441300154e+00
    8.4199127197e+01   -1.7501000166e+00
    8.4299171448e+01   -1.7560900450e+00
    8.4399276733e+01   -1.7620899677e+00
    8.4499244690e+01   -1.7680900097e+00
    8.4599136353e+01   -1.7741099596e+00
    8.4699180603e+01   -1.7801500559e+00
    8.4799186707e+01   -1.7862099409e+00
    8.4899238586e+01   -1.7922999859e+00
    8.4999252319e+01   -1.7984000444e+00
    8.5099166870e+01   -1.8045200109e+00
    8.5199203491e+01   -1.8106600046e+00
    8.5299133301e+01   -1.8168100119e+00
    8.5399215698e+01   -1.8229800463e+00
    8.5499084473e+01   -1.8291599751e+00
    8.5599105835e+01   -1.8353699446e+00
    8.5699226379e+01   -1.8416099548e+00
    8.5799163818e+01   -1.8478599787e+00
    8.5899246216e+01   -1.8541400433e+00
    8.5999076843e+01   -1.8604199886e+00
    8.6099128723e+01   -1.8667399883e+00
    8.6199073792e+01   -1.8730800152e+00
    8.6299217224e+01   -1.8794499636e+00
    8.6399215698e+01   -1.8858100176e+00
    8.6499237061e+01   -1.8921799660e+00
    8.6599082947e+01   -1.8985600471e+00
    8.6699096680e+01   -1.9049700499e+00
    8.6799194336e+01   -1.9113899469e+00
    8.6899200439e+01   -1.9178199768e+00
    8.6999214172e+01   -1.9242800474e+00
    8.7099174500e+01   -1.9307600260e+00
    8.7199073792e+01   -1.9372500181e+00
    8.7299118042e+01   -1.9437600374e+00
    8.7399047852e+01   -1.9502799511e+00
    8.7499076843e+01   -1.9568300247e+00
    8.7599090576e+01   -1.9633899927e+00
    8.7699226379e+01   -1.9699599743e+00
    8.7799179077e+01   -1.9765399694e+00
    8.7899223328e+01   -1.9831299782e+00
    8.7999160767e+01   -1.9897300005e+00
    8.8099220276e+01   -1.9963599443e+00
    8.8199180603e+01   -2.0029900074e+00
    8.8299087524e+01   -2.0096299648e+00
    8.8399131775e+01   -2.0162899494e+00
    8.8499206543e+01   -2.0229599476e+00
    8.8599098206e+01   -2.0296199322e+00
    8.8699096680e+01   -2.0362899303e+00
    8.8799209595e+01   -2.0429699421e+00
    8.8899154663e+01   -2.0496599674e+00
    8.8999183655e+01   -2.0563700199e+00
    8.9099166870e+01   -2.0630900860e+00
    8.9199157715e+01   -2.0698199272e+00
    8.9299041748e+01   -2.0765700340e+00
    8.9399047852e+01   -2.0833299160e+00
    8.9499176025e+01   -2.0901100636e+00
    8.9599075317e+01   -2.0968799591e+00
    8.9699188232e+01   -2.1036798954e+00
    8.9799171448e+01   -2.1104700565e+00
    8.9899032593e+01   -2.1172699928e+00
    8.9999038696e+01   -2.1240799427e+00
    9.0099159241e+01   -2.1308999062e+00
    9.0199005127e+01   -2.1377201080e+00
    9.0299125671e+01   -2.1445798874e+00
    9.0399063110e+01   -2.1514298916e+00
    9.0499130249e+01   -2.1582999229e+00
    9.0599159241e+01   -2.1651799679e+00
    9.0699081421e+01   -2.1720600128e+00
    9.0799171448e+01   -2.1789400578e+00
    9.0899009705e+01   -2.1857900620e+00
    9.0999168396e+01   -2.1926701069e+00
    9.1099151611e+01   -2.1995599270e+00
    9.1199073792e+01   -2.2064700127e+00
    9.1299057007e+01   -2.2133998871e+00
    9.1398994446e+01   -2.2203500271e+00
    9.1499046326e+01   -2.2273299694e+00
    9.1599113464e+01   -2.2343299389e+00
    9.1699127197e+01   -2.2413399220e+00
    9.1799171448e+01   -2.2483699322e+00
    9.1899078369e+01   -2.2553999424e+00
    9.1999114990e+01   -2.2624499798e+00
    9.2099098206e+01   -2.2695200443e+00
    9.2199127197e+01   -2.2765998840e+00
    9.2299110413e+01   -2.2836799622e+00
    9.2399101257e+01   -2.2907700539e+00
    9.2499023438e+01   -2.2978899479e+00
    9.2599098206e+01   -2.3050498962e+00
    9.2699005127e+01   -2.3122200966e+00
    9.2799041748e+01   -2.3194301128e+00
    9.2899116516e+01   -2.3266599178e+00
    9.2999008179e+01   -2.3338899612e+00
    9.3099113464e+01   -2.3411500454e+00
    9.3199012756e+01   -2.3484199047e+00
    9.3299034119e+01   -2.3557300568e+00
    9.3399032593e+01   -2.3630599976e+00
    9.3499137878e+01   -2.3704400063e+00
    9.3599136353e+01   -2.3778500557e+00
    9.3699119568e+01   -2.3852798939e+00
    9.3798965454e+01   -2.3927299976e+00
    9.3899009705e+01   -2.4002099037e+00
    9.3998992920e+01   -2.4077200890e+00
    9.4099067688e+01   -2.4152700901e+00
    9.4199058533e+01   -2.4228401184e+00
    9.4298950195e+01   -2.4304299355e+00
    9.4398979187e+01   -2.4380500317e+00
    9.4499099731e+01   -2.4456899166e+00
    9.4599098206e+01   -2.4533600807e+00
    9.4699066162e+01   -2.4610500336e+00
    9.4798995972e+01   -2.4687800407e+00
    9.4898948669e+01   -2.4765400887e+00
    9.4998939514e+01   -2.4843299389e+00
    9.5099014282e+01   -2.4921700954e+00
    9.5198974609e+01   -2.5000300407e+00
    9.5298995972e+01   -2.5079200268e+00
    9.5399063110e+01   -2.5158400536e+00
    9.5499069214e+01   -2.5237801075e+00
    9.5598960876e+01   -2.5317599773e+00
    9.5698982239e+01   -2.5397799015e+00
    9.5799026489e+01   -2.5478401184e+00
    9.5899078369e+01   -2.5559298992e+00
    9.5998947144e+01   -2.5640499592e+00
    9.6098976135e+01   -2.5722200871e+00
    9.6198974609e+01   -2.5804300308e+00
    9.6299003601e+01   -2.5886700153e+00
    9.6399070740e+01   -2.5969400406e+00
    9.6498947144e+01   -2.6052000523e+00
    9.6598953247e+01   -2.6135199070e+00
    9.6698928833e+01   -2.6218600273e+00
    9.6799049377e+01   -2.6302399635e+00
    9.6898971558e+01   -2.6386299133e+00
    9.6999076843e+01   -2.6470799446e+00
    9.7098937988e+01   -2.6555500031e+00
    9.7198974609e+01   -2.6640698910e+00
    9.7298912048e+01   -2.6726000309e+00
    9.7399055481e+01   -2.6811800003e+00
    9.7499008179e+01   -2.6897799969e+00
    9.7598922729e+01   -2.6984100342e+00
    9.7698928833e+01   -2.7070798874e+00
    9.7799018860e+01   -2.7157700062e+00
    9.7899002075e+01   -2.7244799137e+00
    9.7998908997e+01   -2.7332100868e+00
    9.8098945618e+01   -2.7419900894e+00
    9.8198989868e+01   -2.7507998943e+00
    9.8298927307e+01   -2.7596299648e+00
    9.8399032593e+01   -2.7685000896e+00
    9.8498947144e+01   -2.7773699760e+00
    9.8599029541e+01   -2.7862699032e+00
    9.8698898315e+01   -2.7951800823e+00
    9.8798881531e+01   -2.8041100502e+00
    9.8899024963e+01   -2.8130800724e+00
    9.8998886108e+01   -2.8220601082e+00
    9.9098922729e+01   -2.8310899734e+00
    9.9199020386e+01   -2.8401501179e+00
    9.9299049377e+01   -2.8492400646e+00
    9.9398948669e+01   -2.8583400249e+00
    9.9498939514e+01   -2.8674800396e+00
    9.9598899841e+01   -2.8766300678e+00
    9.9698875427e+01   -2.8858199120e+00
    9.9798973083e+01   -2.8950400352e+00
    9.9898933411e+01   -2.9042699337e+00
    9.9998931885e+01   -2.9135200977e+00
    1.0009902954e+02   -2.9228000641e+00
    1.0019895935e+02   -2.9321000576e+00
    1.0029888916e+02   -2.9414200783e+00
    1.0039891815e+02   -2.9507799149e+00
    1.0049889374e+02   -2.9601600170e+00
    1.0059890747e+02   -2.9695699215e+00
    1.0069886017e+02   -2.9790000916e+00
    1.0079886627e+02   -2.9884400368e+00
    1.0089900970e+02   -2.9978899956e+00
    1.0099894714e+02   -3.0073399544e+00
    1.0109899139e+02   -3.0168299675e+00
    1.0119901276e+02   -3.0263700485e+00
    1.0129894257e+02   -3.0359399319e+00
    1.0139893341e+02   -3.0455501080e+00
    1.0149890137e+02   -3.0552000999e+00
    1.0159886932e+02   -3.0648899078e+00
    1.0169893646e+02   -3.0746200085e+00
    1.0179895020e+02   -3.0843698978e+00
    1.0189888000e+02   -3.0941400528e+00
    1.0199893188e+02   -3.1039500237e+00
    1.0209889221e+02   -3.1138000488e+00
    1.0219882965e+02   -3.1236600876e+00
    1.0229891968e+02   -3.1335599422e+00
    1.0239894867e+02   -3.1434800625e+00
    1.0249891663e+02   -3.1534500122e+00
    1.0259889984e+02   -3.1634600163e+00
    1.0269891357e+02   -3.1735301018e+00
    1.0279884338e+02   -3.1836199760e+00
    1.0289882660e+02   -3.1937699318e+00
    1.0299896240e+02   -3.2039599419e+00
    1.0309884644e+02   -3.2141599655e+00
    1.0319883728e+02   -3.2244100571e+00
    1.0329885864e+02   -3.2347099781e+00
    1.0339890289e+02   -3.2450599670e+00
    1.0349893188e+02   -3.2554700375e+00
    1.0359889221e+02   -3.2659199238e+00
    1.0369889832e+02   -3.2764201164e+00
    1.0379881287e+02   -3.2869598866e+00
    1.0389884186e+02   -3.2975499630e+00
    1.0399883270e+02   -3.3081901073e+00
    1.0409895325e+02   -3.3188900948e+00
    1.0419892883e+02   -3.3296198845e+00
    1.0429884338e+02   -3.3403899670e+00
    1.0439891815e+02   -3.3512101173e+00
    1.0449884796e+02   -3.3620500565e+00
    1.0459883881e+02   -3.3729500771e+00
    1.0469892883e+02   -3.3839199543e+00
    1.0479882050e+02   -3.3949100971e+00
    1.0489888000e+02   -3.4059801102e+00
    1.0499884796e+02   -3.4170799255e+00
    1.0509893036e+02   -3.4282400608e+00
    1.0519892883e+02   -3.4394500256e+00
    1.0529891205e+02   -3.4506900311e+00
    1.0539888000e+02   -3.4619801044e+00
    1.0549889374e+02   -3.4733200073e+00
    1.0559893799e+02   -3.4847199917e+00
    1.0569888306e+02   -3.4961700439e+00
    1.0579888153e+02   -3.5076699257e+00
    1.0589882660e+02   -3.5192201138e+00
    1.0599890137e+02   -3.5308399200e+00
    1.0609880829e+02   -3.5425100327e+00
    1.0619891357e+02   -3.5542500019e+00
    1.0629891968e+02   -3.5660300255e+00
    1.0639891815e+02   -3.5778400898e+00
    1.0649886322e+02   -3.5896799564e+00
    1.0659889984e+02   -3.6015698910e+00
    1.0669886780e+02   -3.6135001183e+00
    1.0679878998e+02   -3.6254699230e+00
    1.0689890289e+02   -3.6375100613e+00
    1.0699884033e+02   -3.6495800018e+00
    1.0709887695e+02   -3.6617200375e+00
    1.0719886017e+02   -3.6738901138e+00
    1.0729892731e+02   -3.6861200333e+00
    1.0739888000e+02   -3.6983699799e+00
    1.0749880981e+02   -3.7106699944e+00
    1.0759884644e+02   -3.7230401039e+00
    1.0769880676e+02   -3.7354300022e+00
    1.0779876709e+02   -3.7478499413e+00
    1.0789891052e+02   -3.7603399754e+00
    1.0799880981e+02   -3.7728400230e+00
    1.0809876251e+02   -3.7853798866e+00
    1.0819879150e+02   -3.7979800701e+00
    1.0829882812e+02   -3.8106200695e+00
    1.0839884949e+02   -3.8232998848e+00
    1.0849874878e+02   -3.8359899521e+00
    1.0859873199e+02   -3.8487100601e+00
    1.0869891357e+02   -3.8614799976e+00
    1.0879885101e+02   -3.8742499352e+00
    1.0889880371e+02   -3.8870599270e+00
    1.0899874878e+02   -3.8999199867e+00
    1.0909882355e+02   -3.9128301144e+00
    1.0919873810e+02   -3.9257600307e+00
    1.0929882050e+02   -3.9387600422e+00
    1.0939888763e+02   -3.9517900944e+00
    1.0949877930e+02   -3.9648299217e+00
    1.0959877777e+02   -3.9779200554e+00
    1.0969877625e+02   -3.9910399914e+00
    1.0979876709e+02   -4.0041999817e+00
    1.0989875793e+02   -4.0173997879e+00
    1.0999880219e+02   -4.0306301117e+00
    1.1009886169e+02   -4.0438899994e+00
    1.1019870758e+02   -4.0571699142e+00
    1.1029881287e+02   -4.0705299377e+00
    1.1039881897e+02   -4.0839200020e+00
    1.1049880981e+02   -4.0973401070e+00
    1.1059874725e+02   -4.1107997894e+00
    1.1069873810e+02   -4.1243000031e+00
    1.1079885101e+02   -4.1378397942e+00
    1.1089878082e+02   -4.1513600349e+00
    1.1099881744e+02   -4.1649298668e+00
    1.1109870911e+02   -4.1785302162e+00
    1.1119877625e+02   -4.1922202110e+00
    1.1129882050e+02   -4.2059597969e+00
    1.1139884186e+02   -4.2197499275e+00
    1.1149875641e+02   -4.2335901260e+00
    1.1159871674e+02   -4.2474899292e+00
    1.1169876862e+02   -4.2614598274e+00
    1.1179882050e+02   -4.2754697800e+00
    1.1189884186e+02   -4.2895197868e+00
    1.1199886322e+02   -4.3036298752e+00
    1.1209867859e+02   -4.3177599907e+00
    1.1219873810e+02   -4.3319802284e+00
    1.1229868317e+02   -4.3462300301e+00
    1.1239874268e+02   -4.3605499268e+00
    1.1249874115e+02   -4.3749299049e+00
    1.1259877014e+02   -4.3894100189e+00
    1.1269883728e+02   -4.4039502144e+00
    1.1279879761e+02   -4.4185600281e+00
    1.1289877319e+02   -4.4332299232e+00
    1.1299874878e+02   -4.4479598999e+00
    1.1309880829e+02   -4.4627599716e+00
    1.1319882965e+02   -4.4776201248e+00
    1.1329881287e+02   -4.4925498962e+00
    1.1339878845e+02   -4.5075497627e+00
    1.1349877930e+02   -4.5226302147e+00
    1.1359870148e+02   -4.5377898216e+00
    1.1369879150e+02   -4.5530200005e+00
    1.1379875946e+02   -4.5683097839e+00
    1.1389871216e+02   -4.5836701393e+00
    1.1399874115e+02   -4.5991001129e+00
    1.1409877014e+02   -4.6146001816e+00
    1.1419879913e+02   -4.6301698685e+00
    1.1429881287e+02   -4.6457901001e+00
    1.1439880371e+02   -4.6614699364e+00
    1.1449871063e+02   -4.6771798134e+00
    1.1459874725e+02   -4.6929898262e+00
    1.1469879913e+02   -4.7088699341e+00
    1.1479876709e+02   -4.7248101234e+00
    1.1489865112e+02   -4.7408199310e+00
    1.1499873352e+02   -4.7569198608e+00
    1.1509873962e+02   -4.7730798721e+00
    1.1519866180e+02   -4.7892999649e+00
    1.1529866028e+02   -4.8056101799e+00
    1.1539875031e+02   -4.8219900131e+00
    1.1549871063e+02   -4.8384299278e+00
    1.1559868622e+02   -4.8549499512e+00
    1.1569869232e+02   -4.8715600967e+00
    1.1579863739e+02   -4.8882398605e+00
    1.1589862823e+02   -4.9050002098e+00
    1.1599868774e+02   -4.9218502045e+00
    1.1609874725e+02   -4.9387898445e+00
    1.1619870758e+02   -4.9558000565e+00
    1.1629866028e+02   -4.9728698730e+00
    1.1639874268e+02   -4.9899997711e+00
    1.1649867249e+02   -5.0071601868e+00
    1.1659861755e+02   -5.0243902206e+00
    1.1669870758e+02   -5.0416998863e+00
    1.1679865265e+02   -5.0590400696e+00
    1.1689875031e+02   -5.0764799118e+00
    1.1699867249e+02   -5.0939698219e+00
    1.1709877014e+02   -5.1115598679e+00
    1.1719859314e+02   -5.1291599274e+00
    1.1729872131e+02   -5.1468901634e+00
    1.1739877319e+02   -5.1646599770e+00
    1.1749864197e+02   -5.1824798584e+00
    1.1759870148e+02   -5.2003998756e+00
    1.1769869995e+02   -5.2183899879e+00
    1.1779873657e+02   -5.2364301682e+00
    1.1789877319e+02   -5.2545499802e+00
    1.1799870300e+02   -5.2727198601e+00
    1.1809868622e+02   -5.2909798622e+00
    1.1819867706e+02   -5.3093099594e+00
    1.1829869080e+02   -5.3277101517e+00
    1.1839862061e+02   -5.3461699486e+00
    1.1849871826e+02   -5.3647198677e+00
    1.1859860992e+02   -5.3832697868e+00
    1.1869872284e+02   -5.4019098282e+00
    1.1879862213e+02   -5.4205598831e+00
    1.1889861298e+02   -5.4392900467e+00
    1.1899871063e+02   -5.4580998421e+00
    1.1909858704e+02   -5.4769301414e+00
    1.1919867706e+02   -5.4958600998e+00
    1.1929872131e+02   -5.5148301125e+00
    1.1939861298e+02   -5.5338201523e+00
    1.1949868774e+02   -5.5528798103e+00
    1.1959864044e+02   -5.5719599724e+00
    1.1969863129e+02   -5.5910902023e+00
    1.1979869843e+02   -5.6102700233e+00
    1.1989866638e+02   -5.6294698715e+00
    1.1999858093e+02   -5.6486802101e+00
    1.2009867859e+02   -5.6679701805e+00
    1.2019856262e+02   -5.6872701645e+00
    1.2029869843e+02   -5.7066597939e+00
    1.2039855957e+02   -5.7260499001e+00
    1.2049855804e+02   -5.7455000877e+00
    1.2059868622e+02   -5.7650299072e+00
    1.2069870758e+02   -5.7845802307e+00
    1.2079866791e+02   -5.8041200638e+00
    1.2089855194e+02   -5.8236498833e+00
    1.2099855042e+02   -5.8432397842e+00
    1.2109855652e+02   -5.8628702164e+00
    1.2119862366e+02   -5.8825898170e+00
    1.2129860687e+02   -5.9023299217e+00
    1.2139871216e+02   -5.9221401215e+00
    1.2149852753e+02   -5.9419598579e+00
    1.2159870148e+02   -5.9618902206e+00
    1.2169860077e+02   -5.9817900658e+00
    1.2179860687e+02   -6.0017299652e+00
    1.2189859009e+02   -6.0216898918e+00
    1.2199865723e+02   -6.0416998863e+00
    1.2209867859e+02   -6.0617198944e+00
    1.2219856262e+02   -6.0817298889e+00
    1.2229859161e+02   -6.1017799377e+00
    1.2239865875e+02   -6.1218600273e+00
    1.2249858856e+02   -6.1419501305e+00
    1.2259868622e+02   -6.1621198654e+00
    1.2269857788e+02   -6.1822800636e+00
    1.2279862213e+02   -6.2024998665e+00
    1.2289856720e+02   -6.2227201462e+00
    1.2299864960e+02   -6.2429800034e+00
    1.2309861755e+02   -6.2632298470e+00
    1.2319857025e+02   -6.2834901810e+00
    1.2329866791e+02   -6.3038101196e+00
    1.2339864349e+02   -6.3241100311e+00
    1.2349857330e+02   -6.3444499969e+00
    1.2359851074e+02   -6.3648200035e+00
    1.2369857788e+02   -6.3852200508e+00
    1.2379863739e+02   -6.4056301117e+00
    1.2389861298e+02   -6.4260401726e+00
    1.2399857330e+02   -6.4464502335e+00
    1.2409866333e+02   -6.4668898582e+00
    1.2419859314e+02   -6.4873199463e+00
    1.2429862976e+02   -6.5077500343e+00
    1.2439855957e+02   -6.5281600952e+00
    1.2449858093e+02   -6.5485601425e+00
    1.2459860992e+02   -6.5689802170e+00
    1.2469847870e+02   -6.5893697739e+00
    1.2479860687e+02   -6.6098198891e+00
    1.2489862823e+02   -6.6302499771e+00
    1.2499848175e+02   -6.6506400108e+00
    1.2509848785e+02   -6.6710600853e+00
    1.2519853210e+02   -6.6914901733e+00
    1.2529847717e+02   -6.7118802071e+00
    1.2539849854e+02   -6.7322697639e+00
    1.2549852753e+02   -6.7526497841e+00
    1.2559858704e+02   -6.7730298042e+00
    1.2569860840e+02   -6.7933998108e+00
    1.2579850769e+02   -6.8137297630e+00
    1.2589858246e+02   -6.8340902328e+00
    1.2599852753e+02   -6.8544101715e+00
    1.2609851837e+02   -6.8747501373e+00
    1.2619860077e+02   -6.8951001167e+00
    1.2629859924e+02   -6.9154000282e+00
    1.2639849854e+02   -6.9356398582e+00
    1.2649848175e+02   -6.9558501244e+00
    1.2659853363e+02   -6.9760398865e+00
    1.2669847870e+02   -6.9961900711e+00
    1.2679846954e+02   -7.0163102150e+00
    1.2689852905e+02   -7.0364298820e+00
    1.2699861908e+02   -7.0565299988e+00
    1.2709854126e+02   -7.0765900612e+00
    1.2719860840e+02   -7.0966501236e+00
    1.2729846954e+02   -7.1166300774e+00
    1.2739855194e+02   -7.1366200447e+00
    1.2749859619e+02   -7.1565699577e+00
    1.2759858704e+02   -7.1764698029e+00
    1.2769860077e+02   -7.1963400841e+00
    1.2779853821e+02   -7.2161397934e+00
    1.2789846802e+02   -7.2358899117e+00
    1.2799845123e+02   -7.2556200027e+00
    1.2809846497e+02   -7.2753200531e+00
    1.2819851685e+02   -7.2949800491e+00
    1.2829855347e+02   -7.3145999908e+00
    1.2839849854e+02   -7.3341598511e+00
    1.2849847412e+02   -7.3536601067e+00
    1.2859855652e+02   -7.3731098175e+00
    1.2869859314e+02   -7.3924798965e+00
    1.2879861450e+02   -7.4117898941e+00
    1.2889855957e+02   -7.4310398102e+00
    1.2899859619e+02   -7.4502501488e+00
    1.2909864807e+02   -7.4694299698e+00
    1.2919850159e+02   -7.4885101318e+00
    1.2929866028e+02   -7.5076098442e+00
    1.2939849854e+02   -7.5265798569e+00
    1.2949856567e+02   -7.5455298424e+00
    1.2959854126e+02   -7.5643901825e+00
    1.2969856262e+02   -7.5831999779e+00
    1.2979859924e+02   -7.6019401550e+00
    1.2989860535e+02   -7.6206002235e+00
    1.2999867249e+02   -7.6391901970e+00
    1.3009855652e+02   -7.6576800346e+00
    1.3019866943e+02   -7.6761398315e+00
    1.3029856873e+02   -7.6944999695e+00
    1.3039860535e+02   -7.7128300667e+00
    1.3049873352e+02   -7.7311000824e+00
    1.3059861755e+02   -7.7492599487e+00
    1.3069860840e+02   -7.7673702240e+00
    1.3079870605e+02   -7.7853899002e+00
    1.3089869690e+02   -7.8032798767e+00
    1.3099877930e+02   -7.8211002350e+00
    1.3109866333e+02   -7.8388299942e+00
    1.3119879150e+02   -7.8565697670e+00
    1.3129873657e+02   -7.8742098808e+00
    1.3139869690e+02   -7.8918199539e+00
    1.3149873352e+02   -7.9094099998e+00
    1.3159877014e+02   -7.9269399643e+00
    1.3169868469e+02   -7.9443898201e+00
    1.3179873657e+02   -7.9618000984e+00
    1.3189866638e+02   -7.9791097641e+00
    1.3199873352e+02   -7.9963998795e+00
    1.3209867859e+02   -8.0136098862e+00
    1.3219885254e+02   -8.0307798386e+00
    1.3229873657e+02   -8.0478401184e+00
    1.3239875793e+02   -8.0648498535e+00
    1.3249885559e+02   -8.0818395615e+00
    1.3259869385e+02   -8.0987596512e+00
    1.3269874573e+02   -8.1156597137e+00
    1.3279879761e+02   -8.1325101852e+00
    1.3289883423e+02   -8.1493101120e+00
    1.3299884033e+02   -8.1660299301e+00
    1.3309878540e+02   -8.1826801300e+00
    1.3319885254e+02   -8.1992797852e+00
    1.3329884338e+02   -8.2158098221e+00
    1.3339892578e+02   -8.2323198318e+00
    1.3349884033e+02   -8.2487697601e+00
    1.3359878540e+02   -8.2651901245e+00
    1.3369877625e+02   -8.2815599442e+00
    1.3379888916e+02   -8.2979097366e+00
    1.3389889526e+02   -8.3142004013e+00
    1.3399887085e+02   -8.3304500580e+00
    1.3409890747e+02   -8.3466596603e+00
    1.3419897461e+02   -8.3628501892e+00
    1.3429887390e+02   -8.3789501190e+00
    1.3439880371e+02   -8.3950099945e+00
    1.3449896240e+02   -8.4110403061e+00
    1.3459886169e+02   -8.4270095825e+00
    1.3469900513e+02   -8.4429903030e+00
    1.3479890442e+02   -8.4589195251e+00
    1.3489892578e+02   -8.4748497009e+00
    1.3499890137e+02   -8.4907302856e+00
    1.3509890747e+02   -8.5066003799e+00
    1.3519891357e+02   -8.5224304199e+00
    1.3529893494e+02   -8.5382204056e+00
    1.3539889526e+02   -8.5539703369e+00
    1.3549890137e+02   -8.5696802139e+00
    1.3559887695e+02   -8.5853700638e+00
    1.3569897461e+02   -8.6010599136e+00
    1.3579901123e+02   -8.6167001724e+00
    1.3589898682e+02   -8.6323003769e+00
    1.3599890137e+02   -8.6478900909e+00
    1.3609898376e+02   -8.6634998322e+00
    1.3619894409e+02   -8.6790800095e+00
    1.3629898071e+02   -8.6946296692e+00
    1.3639910889e+02   -8.7101602554e+00
    1.3649894714e+02   -8.7256002426e+00
    1.3659907532e+02   -8.7410602570e+00
    1.3669912720e+02   -8.7565002441e+00
    1.3679899597e+02   -8.7719001770e+00
    1.3689895630e+02   -8.7873096466e+00
    1.3699903870e+02   -8.8027601242e+00
    1.3709899902e+02   -8.8182096481e+00
    1.3719905090e+02   -8.8336696625e+00
    1.3729899597e+02   -8.8491201401e+00
    1.3739915466e+02   -8.8645896912e+00
    1.3749913025e+02   -8.8800497055e+00
    1.3759915161e+02   -8.8955001831e+00
    1.3769909668e+02   -8.9109497070e+00
    1.3779910278e+02   -8.9263896942e+00
    1.3789910889e+02   -8.9418296814e+00
    1.3799906921e+02   -8.9572801590e+00
    1.3809921265e+02   -8.9727602005e+00
    1.3819921875e+02   -8.9882297516e+00
    1.3829916382e+02   -9.0037097931e+00
    1.3839907837e+02   -9.0191898346e+00
    1.3849917603e+02   -9.0346803665e+00
    1.3859916687e+02   -9.0501499176e+00
    1.3869920349e+02   -9.0656204224e+00
    1.3879908752e+02   -9.0810699463e+00
    1.3889912415e+02   -9.0965595245e+00
    1.3899908447e+02   -9.1120700836e+00
    1.3909922791e+02   -9.1276302338e+00
    1.3919911194e+02   -9.1431999207e+00
    1.3929922485e+02   -9.1588201523e+00
    1.3939927673e+02   -9.1744604111e+00
    1.3949929810e+02   -9.1901102066e+00
    1.3959913635e+02   -9.2057600021e+00
    1.3969929504e+02   -9.2214899063e+00
    1.3979917908e+02   -9.2371997833e+00
    1.3989920044e+02   -9.2529401779e+00
    1.3999916077e+02   -9.2686996460e+00
    1.4009925842e+02   -9.2845001221e+00
    1.4019923401e+02   -9.3003196716e+00
    1.4029917908e+02   -9.3161697388e+00
    1.4039918518e+02   -9.3320798874e+00
    1.4049929810e+02   -9.3480396271e+00
    1.4059925842e+02   -9.3640098572e+00
    1.4069934082e+02   -9.3800401688e+00
    1.4079927063e+02   -9.3960399628e+00
    1.4089927673e+02   -9.4120597839e+00
    1.4099934387e+02   -9.4280996323e+00
    1.4109927368e+02   -9.4441795349e+00
    1.4119932556e+02   -9.4603595734e+00
    1.4129925537e+02   -9.4765901566e+00
    1.4139933777e+02   -9.4929199219e+00
    1.4149928284e+02   -9.5093297958e+00
    1.4159936523e+02   -9.5258197784e+00
    1.4169929504e+02   -9.5423698425e+00
    1.4179933167e+02   -9.5590000153e+00
    1.4189935303e+02   -9.5756998062e+00
    1.4199931335e+02   -9.5924596786e+00
    1.4209941101e+02   -9.6093301773e+00
    1.4219935608e+02   -9.6262397766e+00
    1.4229931641e+02   -9.6432199478e+00
    1.4239945984e+02   -9.6603298187e+00
    1.4249943542e+02   -9.6775102615e+00
    1.4259944153e+02   -9.6948099136e+00
    1.4269938660e+02   -9.7122001648e+00
    1.4279943848e+02   -9.7297201157e+00
    1.4289932251e+02   -9.7473001480e+00
    1.4299949646e+02   -9.7650098801e+00
    1.4309941101e+02   -9.7827501297e+00
    1.4319949341e+02   -9.8006296158e+00
    1.4329942322e+02   -9.8185796738e+00
    1.4339950562e+02   -9.8366603851e+00
    1.4349949646e+02   -9.8548603058e+00
    1.4359938049e+02   -9.8731498718e+00
    1.4369952393e+02   -9.8915996552e+00
    1.4379948425e+02   -9.9101200104e+00
    1.4389949036e+02   -9.9287595749e+00
    1.4399946594e+02   -9.9475002289e+00
    1.4409941101e+02   -9.9663496017e+00
    1.4419946289e+02   -9.9853296280e+00
    1.4429953003e+02   -1.0004400253e+01
    1.4439956665e+02   -1.0023599625e+01
    1.4449946594e+02   -1.0042799950e+01
    1.4459945679e+02   -1.0062199593e+01
    1.4469944763e+02   -1.0081700325e+01
    1.4479957581e+02   -1.0101300240e+01
    1.4489962769e+02   -1.0121100426e+01
    1.4499945068e+02   -1.0140999794e+01
    1.4509954834e+02   -1.0161100388e+01
    1.4519961548e+02   -1.0181300163e+01
    1.4529960632e+02   -1.0201600075e+01
    1.4539959717e+02   -1.0222100258e+01
    1.4549951172e+02   -1.0242600441e+01
    1.4559948730e+02   -1.0263400078e+01
    1.4569955444e+02   -1.0284199715e+01
    1.4579965210e+02   -1.0305299759e+01
    1.4589964294e+02   -1.0326399803e+01
    1.4599964905e+02   -1.0347700119e+01
    1.4609959412e+02   -1.0369099617e+01
    1.4619966125e+02   -1.0390700340e+01
    1.4629966736e+02   -1.0412400246e+01
    1.4639953613e+02   -1.0434200287e+01
    1.4649963379e+02   -1.0456100464e+01
    1.4659959412e+02   -1.0478099823e+01
    1.4669969177e+02   -1.0500200272e+01
    1.4679971313e+02   -1.0522500038e+01
    1.4689965820e+02   -1.0544899940e+01
    1.4699966431e+02   -1.0567399979e+01
    1.4709962463e+02   -1.0590100288e+01
    1.4719961548e+02   -1.0612999916e+01
    1.4729971313e+02   -1.0635999680e+01
    1.4739970398e+02   -1.0659099579e+01
    1.4749960327e+02   -1.0682299614e+01
    1.4759959412e+02   -1.0705699921e+01
    1.4769967651e+02   -1.0729299545e+01
    1.4779972839e+02   -1.0753000259e+01
    1.4789979553e+02   -1.0776800156e+01
    1.4799966431e+02   -1.0800700188e+01
    1.4809965515e+02   -1.0824799538e+01
    1.4819970703e+02   -1.0849100113e+01
    1.4829981995e+02   -1.0873499870e+01
    1.4839965820e+02   -1.0897999763e+01
    1.4849980164e+02   -1.0922599792e+01
    1.4859980774e+02   -1.0947400093e+01
    1.4869973755e+02   -1.0972200394e+01
    1.4879968262e+02   -1.0997200012e+01
    1.4889970398e+02   -1.1022299767e+01
    1.4899977112e+02   -1.1047599792e+01
    1.4909977722e+02   -1.1072899818e+01
    1.4919973755e+02   -1.1098400116e+01
    1.4929983521e+02   -1.1124099731e+01
    1.4939976501e+02   -1.1149800301e+01
    1.4949981689e+02   -1.1175700188e+01
    1.4959986877e+02   -1.1201700211e+01
    1.4969989014e+02   -1.1227800369e+01
    1.4979981995e+02   -1.1253999710e+01
    1.4989985657e+02   -1.1280300140e+01
    1.4999977112e+02   -1.1306599617e+01
    1.5009980774e+02   -1.1333100319e+01
    1.5019978333e+02   -1.1359700203e+01
    1.5029983521e+02   -1.1386400223e+01
    1.5039993286e+02   -1.1413299561e+01
    1.5049981689e+02   -1.1440199852e+01
    1.5059982300e+02   -1.1467300415e+01
    1.5069981384e+02   -1.1494500160e+01
    1.5079986572e+02   -1.1521699905e+01
    1.5089996338e+02   -1.1548999786e+01
    1.5099995422e+02   -1.1576399803e+01
    1.5109996033e+02   -1.1603899956e+01
    1.5119987488e+02   -1.1631500244e+01
    1.5129997253e+02   -1.1659299850e+01
    1.5139984131e+02   -1.1687199593e+01
    1.5149986267e+02   -1.1715200424e+01
    1.5159991455e+02   -1.1743399620e+01
    1.5169996643e+02   -1.1771699905e+01
    1.5179989624e+02   -1.1800000191e+01
    1.5189994812e+02   -1.1828499794e+01
    1.5199995422e+02   -1.1857000351e+01
    1.5209996033e+02   -1.1885700226e+01
    1.5219998169e+02   -1.1914400101e+01
    1.5229997253e+02   -1.1943200111e+01
    1.5239997864e+02   -1.1972200394e+01
    1.5249992371e+02   -1.2001199722e+01
    1.5260000610e+02   -1.2030300140e+01
    1.5269993591e+02   -1.2059599876e+01
    1.5280009460e+02   -1.2088999748e+01
    1.5289999390e+02   -1.2118399620e+01
    1.5299998474e+02   -1.2147899628e+01
    1.5309999084e+02   -1.2177499771e+01
    1.5319996643e+02   -1.2207200050e+01
    1.5330006409e+02   -1.2237000465e+01
    1.5339997864e+02   -1.2266799927e+01
    1.5350001526e+02   -1.2296799660e+01
    1.5360005188e+02   -1.2326899529e+01
    1.5370013428e+02   -1.2357099533e+01
    1.5380017090e+02   -1.2387399673e+01
    1.5390007019e+02   -1.2417699814e+01
    1.5400004578e+02   -1.2448100090e+01
    1.5410003662e+02   -1.2478599548e+01
    1.5420008850e+02   -1.2509099960e+01
    1.5430006409e+02   -1.2539699554e+01
    1.5440019226e+02   -1.2570400238e+01
    1.5450003052e+02   -1.2601099968e+01
    1.5460011292e+02   -1.2631899834e+01
    1.5470007324e+02   -1.2662699699e+01
    1.5480012512e+02   -1.2693699837e+01
    1.5490022278e+02   -1.2724699974e+01
    1.5500024414e+02   -1.2755800247e+01
    1.5510014343e+02   -1.2786899567e+01
    1.5520019531e+02   -1.2818099976e+01
    1.5530018616e+02   -1.2849399567e+01
    1.5540008545e+02   -1.2880599976e+01
    1.5550024414e+02   -1.2911999702e+01
    1.5560023499e+02   -1.2943400383e+01
    1.5570021057e+02   -1.2974800110e+01
    1.5580010986e+02   -1.3006299973e+01
    1.5590017700e+02   -1.3037799835e+01
    1.5600024414e+02   -1.3069399834e+01
    1.5610029602e+02   -1.3101099968e+01
    1.5620025635e+02   -1.3132699966e+01
    1.5630024719e+02   -1.3164400101e+01
    1.5640020752e+02   -1.3196000099e+01
    1.5650024414e+02   -1.3227700233e+01
    1.5660021973e+02   -1.3259400368e+01
    1.5670025635e+02   -1.3291099548e+01
    1.5680030823e+02   -1.3322899818e+01
    1.5690031433e+02   -1.3354599953e+01
    1.5700024414e+02   -1.3386400223e+01
    1.5710021973e+02   -1.3418299675e+01
    1.5720030212e+02   -1.3450099945e+01
    1.5730026245e+02   -1.3482000351e+01
    1.5740025330e+02   -1.3513899803e+01
    1.5750027466e+02   -1.3545800209e+01
    1.5760028076e+02   -1.3577699661e+01
    1.5770037842e+02   -1.3609600067e+01
    1.5780035400e+02   -1.3641400337e+01
    1.5790037537e+02   -1.3673299789e+01
    1.5800024414e+02   -1.3705100060e+01
    1.5810035706e+02   -1.3737000465e+01
    1.5820031738e+02   -1.3768799782e+01
    1.5830044556e+02   -1.3800700188e+01
    1.5840039062e+02   -1.3832500458e+01
    1.5850033569e+02   -1.3864199638e+01
    1.5860043335e+02   -1.3895899773e+01
    1.5870045471e+02   -1.3927599907e+01
    1.5880041504e+02   -1.3959199905e+01
    1.5890046692e+02   -1.3990799904e+01
    1.5900047302e+02   -1.4022399902e+01
    1.5910043335e+02   -1.4053899765e+01
    1.5920048523e+02   -1.4085399628e+01
    1.5930041504e+02   -1.4116900444e+01
    1.5940039062e+02   -1.4148300171e+01
    1.5950047302e+02   -1.4179699898e+01
    1.5960043335e+02   -1.4211000443e+01
    1.5970042419e+02   -1.4242300034e+01
    1.5980044556e+02   -1.4273500443e+01
    1.5990049744e+02   -1.4304599762e+01
    1.6000050354e+02   -1.4335700035e+01
    1.6010040283e+02   -1.4366600037e+01
    1.6020037842e+02   -1.4397600174e+01
    1.6030039978e+02   -1.4428400040e+01
    1.6040049744e+02   -1.4459300041e+01
    1.6050053406e+02   -1.4489999771e+01
    1.6060058594e+02   -1.4520700455e+01
    1.6070048523e+02   -1.4551199913e+01
    1.6080049133e+02   -1.4581600189e+01
    1.6090060425e+02   -1.4612000465e+01
    1.6100056458e+02   -1.4642200470e+01
    1.6110046387e+02   -1.4672300339e+01
    1.6120057678e+02   -1.4702400208e+01
    1.6130053711e+02   -1.4732399940e+01
    1.6140049744e+02   -1.4762299538e+01
    1.6150047302e+02   -1.4792200089e+01
    1.6160058594e+02   -1.4822099686e+01
    1.6170053101e+02   -1.4851900101e+01
    1.6180052185e+02   -1.4881500244e+01
    1.6190049744e+02   -1.4911100388e+01
    1.6200065613e+02   -1.4940699577e+01
    1.6210052490e+02   -1.4970100403e+01
    1.6220053101e+02   -1.4999400139e+01
    1.6230056763e+02   -1.5028699875e+01
    1.6240063477e+02   -1.5057800293e+01
    1.6250053406e+02   -1.5086899757e+01
    1.6260067749e+02   -1.5115900040e+01
    1.6270054626e+02   -1.5144800186e+01
    1.6280070496e+02   -1.5173700333e+01
    1.6290061951e+02   -1.5202400208e+01
    1.6300067139e+02   -1.5230999947e+01
    1.6310061646e+02   -1.5259499550e+01
    1.6320060730e+02   -1.5287899971e+01
    1.6330059814e+02   -1.5316200256e+01
    1.6340063477e+02   -1.5344400406e+01
    1.6350068665e+02   -1.5372500420e+01
    1.6360063171e+02   -1.5400500298e+01
    1.6370066833e+02   -1.5428500175e+01
    1.6380072021e+02   -1.5456299782e+01
    1.6390072632e+02   -1.5484100342e+01
    1.6400071716e+02   -1.5511699677e+01
    1.6410064697e+02   -1.5539199829e+01
    1.6420063782e+02   -1.5566699982e+01
    1.6430072021e+02   -1.5593999863e+01
    1.6440071106e+02   -1.5621199608e+01
    1.6450065613e+02   -1.5648300171e+01
    1.6460070801e+02   -1.5675299644e+01
    1.6470083618e+02   -1.5702300072e+01
    1.6480068970e+02   -1.5729000092e+01
    1.6490072632e+02   -1.5755800247e+01
    1.6500082397e+02   -1.5782500267e+01
    1.6510078430e+02   -1.5809000015e+01
    1.6520083618e+02   -1.5835399628e+01
    1.6530081177e+02   -1.5861700058e+01
    1.6540074158e+02   -1.5887800217e+01
    1.6550079346e+02   -1.5913800240e+01
    1.6560081482e+02   -1.5939800262e+01
    1.6570071411e+02   -1.5965499878e+01
    1.6580085754e+02   -1.5991299629e+01
    1.6590084839e+02   -1.6016799927e+01
    1.6600079346e+02   -1.6042299271e+01
    1.6610087585e+02   -1.6067699432e+01
    1.6620080566e+02   -1.6092899323e+01
    1.6630082703e+02   -1.6118000031e+01
    1.6640077209e+02   -1.6142999649e+01
    1.6650077820e+02   -1.6167900085e+01
    1.6660089111e+02   -1.6192600250e+01
    1.6670089722e+02   -1.6217300415e+01
    1.6680081177e+02   -1.6241800308e+01
    1.6690092468e+02   -1.6266199112e+01
    1.6700082397e+02   -1.6290599823e+01
    1.6710096741e+02   -1.6314800262e+01
    1.6720083618e+02   -1.6338899612e+01
    1.6730088806e+02   -1.6363000870e+01
    1.6740093994e+02   -1.6386899948e+01
    1.6750094604e+02   -1.6410600662e+01
    1.6760084534e+02   -1.6434299469e+01
    1.6770088196e+02   -1.6457799911e+01
    1.6780085754e+02   -1.6481100082e+01
    1.6790100098e+02   -1.6504400253e+01
    1.6800091553e+02   -1.6527500153e+01
    1.6810095215e+02   -1.6550500870e+01
    1.6820097351e+02   -1.6573299408e+01
    1.6830091858e+02   -1.6596099854e+01
    1.6840100098e+02   -1.6618700027e+01
    1.6850091553e+02   -1.6641199112e+01
    1.6860095215e+02   -1.6663499832e+01
    1.6870094299e+02   -1.6685699463e+01
    1.6880099487e+02   -1.6707799911e+01
    1.6890107727e+02   -1.6729700089e+01
    1.6900109863e+02   -1.6751600266e+01
    1.6910104370e+02   -1.6773300171e+01
    1.6920100403e+02   -1.6794900894e+01
    1.6930096436e+02   -1.6816499710e+01
    1.6940095520e+02   -1.6837799072e+01
    1.6950094604e+02   -1.6859100342e+01
    1.6960098267e+02   -1.6880199432e+01
    1.6970108032e+02   -1.6901300430e+01
    1.6980099487e+02   -1.6922100067e+01
    1.6990109253e+02   -1.6942800522e+01
    1.7000100708e+02   -1.6963399887e+01
    1.7010107422e+02   -1.6983900070e+01
    1.7020101929e+02   -1.7004100800e+01
    1.7030110168e+02   -1.7024299622e+01
    1.7040118408e+02   -1.7044399261e+01
    1.7050117493e+02   -1.7064300537e+01
    1.7060102844e+02   -1.7084100723e+01
    1.7070103455e+02   -1.7103700638e+01
    1.7080108643e+02   -1.7123199463e+01
    1.7090107727e+02   -1.7142499924e+01
    1.7100103760e+02   -1.7161600113e+01
    1.7110122681e+02   -1.7180700302e+01
    1.7120114136e+02   -1.7199600220e+01
    1.7130107117e+02   -1.7218500137e+01
    1.7140122986e+02   -1.7237300873e+01
    1.7150117493e+02   -1.7255899429e+01
    1.7160116577e+02   -1.7274499893e+01
    1.7170111084e+02   -1.7292999268e+01
    1.7180110168e+02   -1.7311399460e+01
    1.7190113831e+02   -1.7329700470e+01
    1.7200114441e+02   -1.7347900391e+01
    1.7210112000e+02   -1.7365999222e+01
    1.7220124817e+02   -1.7384000778e+01
    1.7230122375e+02   -1.7401800156e+01
    1.7240118408e+02   -1.7419500351e+01
    1.7250115967e+02   -1.7437200546e+01
    1.7260125732e+02   -1.7454799652e+01
    1.7270121765e+02   -1.7472200394e+01
    1.7280128479e+02   -1.7489599228e+01
    1.7290121460e+02   -1.7506799698e+01
    1.7300120544e+02   -1.7524000168e+01
    1.7310127258e+02   -1.7540899277e+01
    1.7320126343e+02   -1.7557800293e+01
    1.7330123901e+02   -1.7574600220e+01
    1.7340136719e+02   -1.7591299057e+01
    1.7350125122e+02   -1.7607900620e+01
    1.7360122681e+02   -1.7624399185e+01
    1.7370132446e+02   -1.7640899658e+01
    1.7380130005e+02   -1.7657300949e+01
    1.7390130615e+02   -1.7673700333e+01
    1.7400138855e+02   -1.7689899445e+01
    1.7410134888e+02   -1.7706100464e+01
    1.7420135498e+02   -1.7722200394e+01
    1.7430131531e+02   -1.7738199234e+01
    1.7440138245e+02   -1.7754100800e+01
    1.7450137329e+02   -1.7769899368e+01
    1.7460137939e+02   -1.7785699844e+01
    1.7470144653e+02   -1.7801300049e+01
    1.7480131531e+02   -1.7816900253e+01
    1.7490141296e+02   -1.7832399368e+01
    1.7500131226e+02   -1.7847799301e+01
    1.7510133362e+02   -1.7863100052e+01
    1.7520135498e+02   -1.7878400803e+01
    1.7530143738e+02   -1.7893499374e+01
    1.7540148926e+02   -1.7908500671e+01
    1.7550134277e+02   -1.7923400879e+01
    1.7560150146e+02   -1.7938199997e+01
    1.7570135498e+02   -1.7952999115e+01
    1.7580134583e+02   -1.7967599869e+01
    1.7590138245e+02   -1.7982299805e+01
    1.7600149536e+02   -1.7996799469e+01
    1.7610136414e+02   -1.8011299133e+01
    1.7620141602e+02   -1.8025800705e+01
    1.7630137634e+02   -1.8040199280e+01
    1.7640150452e+02   -1.8054500580e+01
    1.7650152588e+02   -1.8068700790e+01
    1.7660145569e+02   -1.8082799911e+01
    1.7670149231e+02   -1.8096799850e+01
    1.7680145264e+02   -1.8110799789e+01
    1.7690144348e+02   -1.8124700546e+01
    1.7700144958e+02   -1.8138599396e+01
    1.7710153198e+02   -1.8152399063e+01
    1.7720158386e+02   -1.8166099548e+01
    1.7730151367e+02   -1.8179700851e+01
    1.7740153503e+02   -1.8193199158e+01
    1.7750146484e+02   -1.8206600189e+01
    1.7760145569e+02   -1.8219900131e+01
    1.7770161438e+02   -1.8233100891e+01
    1.7780151367e+02   -1.8246200562e+01
    1.7790161133e+02   -1.8259300232e+01
    1.7800149536e+02   -1.8272300720e+01
    1.7810151672e+02   -1.8285200119e+01
    1.7820158386e+02   -1.8298000336e+01
    1.7830154419e+02   -1.8310800552e+01
    1.7840161133e+02   -1.8323499680e+01
    1.7850158691e+02   -1.8336200714e+01
    1.7860151672e+02   -1.8348699570e+01
    1.7870167542e+02   -1.8361200333e+01
    1.7880162048e+02   -1.8373600006e+01
    1.7890161133e+02   -1.8385799408e+01
    1.7900164795e+02   -1.8398099899e+01
    1.7910169983e+02   -1.8410200119e+01
    1.7920173645e+02   -1.8422300339e+01
    1.7930171204e+02   -1.8434200287e+01
    1.7940173340e+02   -1.8446100235e+01
    1.7950172424e+02   -1.8457899094e+01
    1.7960163879e+02   -1.8469499588e+01
    1.7970161438e+02   -1.8481100082e+01
    1.7980163574e+02   -1.8492500305e+01
    1.7990171814e+02   -1.8503799438e+01
    1.8000169373e+02   -1.8515100479e+01
    1.8010169983e+02   -1.8526199341e+01
    1.8020170593e+02   -1.8537200928e+01
    1.8030168152e+02   -1.8548200607e+01
    1.8040162659e+02   -1.8559099197e+01
    1.8050178528e+02   -1.8569900513e+01
    1.8060171509e+02   -1.8580600739e+01
    1.8070164490e+02   -1.8591199875e+01
    1.8080169678e+02   -1.8601699829e+01
    1.8090168762e+02   -1.8611999512e+01
    1.8100175476e+02   -1.8622299194e+01
    1.8110174561e+02   -1.8632400513e+01
    1.8120179749e+02   -1.8642499924e+01
    1.8130183411e+02   -1.8652500153e+01
    1.8140180969e+02   -1.8662399292e+01
    1.8150175476e+02   -1.8672199249e+01
    1.8160176086e+02   -1.8681999207e+01
    1.8170187378e+02   -1.8691699982e+01
    1.8180172729e+02   -1.8701200485e+01
    1.8190174866e+02   -1.8710699081e+01
    1.8200172424e+02   -1.8720100403e+01
    1.8210182190e+02   -1.8729400635e+01
    1.8220178223e+02   -1.8738599777e+01
    1.8230181885e+02   -1.8747600555e+01
    1.8240179443e+02   -1.8756599426e+01
    1.8250190735e+02   -1.8765499115e+01
    1.8260176086e+02   -1.8774400711e+01
    1.8270184326e+02   -1.8783100128e+01
    1.8280178833e+02   -1.8791799545e+01
    1.8290185547e+02   -1.8800300598e+01
    1.8300178528e+02   -1.8808700562e+01
    1.8310194397e+02   -1.8816999435e+01
    1.8320190430e+02   -1.8825199127e+01
    1.8330183411e+02   -1.8833299637e+01
    1.8340191650e+02   -1.8841400146e+01
    1.8350190735e+02   -1.8849300385e+01
    1.8360188293e+02   -1.8857099533e+01
    1.8370193481e+02   -1.8864900589e+01
    1.8380186462e+02   -1.8872600555e+01
    1.8390191650e+02   -1.8880199432e+01
    1.8400201416e+02   -1.8887699127e+01
    1.8410185242e+02   -1.8895099640e+01
    1.8420190430e+02   -1.8902399063e+01
    1.8430201721e+02   -1.8909500122e+01
    1.8440197754e+02   -1.8916599274e+01
    1.8450190735e+02   -1.8923500061e+01
    1.8460202026e+02   -1.8930400848e+01
    1.8470191956e+02   -1.8937099457e+01
    1.8480191040e+02   -1.8943799973e+01
    1.8490203857e+02   -1.8950300217e+01
    1.8500205994e+02   -1.8956800461e+01
    1.8510206604e+02   -1.8963100433e+01
    1.8520199585e+02   -1.8969299316e+01
    1.8530194092e+02   -1.8975299835e+01
    1.8540205383e+02   -1.8981300354e+01
    1.8550207520e+02   -1.8987100601e+01
    1.8560209656e+02   -1.8992799759e+01
    1.8570213318e+02   -1.8998399734e+01
    1.8580212402e+02   -1.9003900528e+01
    1.8590200806e+02   -1.9009300232e+01
    1.8600199890e+02   -1.9014600754e+01
    1.8610209656e+02   -1.9019800186e+01
    1.8620199585e+02   -1.9024900436e+01
    1.8630201721e+02   -1.9029800415e+01
    1.8640213013e+02   -1.9034700394e+01
    1.8650204468e+02   -1.9039300919e+01
    1.8660205078e+02   -1.9043899536e+01
    1.8670202637e+02   -1.9048299789e+01
    1.8680203247e+02   -1.9052600861e+01
    1.8690208435e+02   -1.9056800842e+01
    1.8700204468e+02   -1.9060899734e+01
    1.8710205078e+02   -1.9064899445e+01
    1.8720210266e+02   -1.9068700790e+01
    1.8730221558e+02   -1.9072399139e+01
    1.8740209961e+02   -1.9076000214e+01
    1.8750212097e+02   -1.9079399109e+01
    1.8760206604e+02   -1.9082700729e+01
    1.8770219421e+02   -1.9085800171e+01
    1.8780215454e+02   -1.9088800430e+01
    1.8790219116e+02   -1.9091600418e+01
    1.8800216675e+02   -1.9094299316e+01
    1.8810223389e+02   -1.9096900940e+01
    1.8820225525e+02   -1.9099399567e+01
    1.8830218506e+02   -1.9101699829e+01
    1.8840226746e+02   -1.9103900909e+01
    1.8850219727e+02   -1.9106000900e+01
    1.8860217285e+02   -1.9107900620e+01
    1.8870216370e+02   -1.9109600067e+01
    1.8880218506e+02   -1.9111200333e+01
    1.8890214539e+02   -1.9112600327e+01
    1.8900215149e+02   -1.9113899231e+01
    1.8910215759e+02   -1.9115100861e+01
    1.8920225525e+02   -1.9116100311e+01
    1.8930218506e+02   -1.9117000580e+01
    1.8940223694e+02   -1.9117700577e+01
    1.8950221252e+02   -1.9118200302e+01
    1.8960218811e+02   -1.9118600845e+01
    1.8970223999e+02   -1.9118799210e+01
    1.8980230713e+02   -1.9118900299e+01
    1.8990228271e+02   -1.9118700027e+01
    1.9000233459e+02   -1.9118400574e+01
    1.9010226440e+02   -1.9118000031e+01
    1.9020223999e+02   -1.9117399216e+01
    1.9030227661e+02   -1.9116600037e+01
    1.9040235901e+02   -1.9115699768e+01
    1.9050224304e+02   -1.9114700317e+01
    1.9060235596e+02   -1.9113500595e+01
    1.9070237732e+02   -1.9112100601e+01
    1.9080236816e+02   -1.9110500336e+01
    1.9090226746e+02   -1.9108800888e+01
    1.9100228882e+02   -1.9106800079e+01
    1.9110241699e+02   -1.9104700089e+01
    1.9120243835e+02   -1.9102500916e+01
    1.9130244446e+02   -1.9100099564e+01
    1.9140238953e+02   -1.9097600937e+01
    1.9150233459e+02   -1.9094900131e+01
    1.9160244751e+02   -1.9092100143e+01
    1.9170233154e+02   -1.9089099884e+01
    1.9180238342e+02   -1.9086000443e+01
    1.9190237427e+02   -1.9082700729e+01
    1.9200245667e+02   -1.9079299927e+01
    1.9210235596e+02   -1.9075700760e+01
    1.9220248413e+02   -1.9072000504e+01
    1.9230247498e+02   -1.9068099976e+01
    1.9240240479e+02   -1.9063999176e+01
    1.9250245667e+02   -1.9059799194e+01
    1.9260237122e+02   -1.9055500031e+01
    1.9270245361e+02   -1.9051099777e+01
    1.9280247498e+02   -1.9046499252e+01
    1.9290240479e+02   -1.9041700363e+01
    1.9300241089e+02   -1.9036699295e+01
    1.9310252380e+02   -1.9031600952e+01
    1.9320243835e+02   -1.9026300430e+01
    1.9330244446e+02   -1.9020900726e+01
    1.9340243530e+02   -1.9015399933e+01
    1.9350259399e+02   -1.9009700775e+01
    1.9360255432e+02   -1.9003799438e+01
    1.9370251465e+02   -1.8997900009e+01
    1.9380259705e+02   -1.8991800308e+01
    1.9390254211e+02   -1.8985500336e+01
    1.9400248718e+02   -1.8979200363e+01
    1.9410249329e+02   -1.8972700119e+01
    1.9420245361e+02   -1.8965999603e+01
    1.9430261230e+02   -1.8959199905e+01
    1.9440264893e+02   -1.8952299118e+01
[...]
    2.5130595398e+02   -4.3411297798e+00
    2.5140606689e+02   -4.3117599487e+00
    2.5150596619e+02   -4.2825298309e+00
    2.5160598755e+02   -4.2533397675e+00
    2.5170597839e+02   -4.2242498398e+00
    2.5180607605e+02   -4.1951999664e+00
    2.5190611267e+02   -4.1662502289e+00
    2.5200613403e+02   -4.1373801231e+00
    2.5210612488e+02   -4.1086101532e+00
    2.5220610046e+02   -4.0799198151e+00
    2.5230607605e+02   -4.0513100624e+00
    2.5240609741e+02   -4.0227599144e+00
    2.5250605774e+02   -3.9943299294e+00
    2.5260615540e+02   -3.9659399986e+00
    2.5270603943e+02   -3.9376900196e+00
    2.5280610657e+02   -3.9094800949e+00
    2.5290620422e+02   -3.8813500404e+00
    2.5300619507e+02   -3.8533198833e+00
    2.5310609436e+02   -3.8254098892e+00
    2.5320610046e+02   -3.7975599766e+00
    2.5330616760e+02   -3.7697799206e+00
    2.5340623474e+02   -3.7420799732e+00
    2.5350616455e+02   -3.7145099640e+00
    2.5360612488e+02   -3.6870200634e+00
    2.5370620728e+02   -3.6596000195e+00
    2.5380616760e+02   -3.6322898865e+00
    2.5390620422e+02   -3.6050601006e+00
    2.5400616455e+02   -3.5779299736e+00
    2.5410627747e+02   -3.5508599281e+00
    2.5420620728e+02   -3.5239200592e+00
    2.5430621338e+02   -3.4970500469e+00
    2.5440629578e+02   -3.4702599049e+00
    2.5450621033e+02   -3.4435899258e+00
    2.5460627747e+02   -3.4169900417e+00
    2.5470625305e+02   -3.3904900551e+00
    2.5480618286e+02   -3.3640999794e+00
    2.5490620422e+02   -3.3377799988e+00
    2.5500628662e+02   -3.3115398884e+00
    2.5510633850e+02   -3.2853999138e+00
    2.5520620728e+02   -3.2593998909e+00
    2.5530636597e+02   -3.2334098816e+00
    2.5540626526e+02   -3.2075800896e+00
    2.5550633240e+02   -3.1817998886e+00
    2.5560621643e+02   -3.1561601162e+00
    2.5570634460e+02   -3.1305398941e+00
    2.5580627441e+02   -3.1050798893e+00
    2.5590638733e+02   -3.0796599388e+00
    2.5600625610e+02   -3.0543899536e+00
    2.5610635376e+02   -3.0291600227e+00
    2.5620623779e+02   -3.0040700436e+00
    2.5630630493e+02   -2.9790298939e+00
    2.5640640259e+02   -2.9540600777e+00
    2.5650637817e+02   -2.9291999340e+00
    2.5660641479e+02   -2.9044299126e+00
    2.5670635986e+02   -2.8797500134e+00
    2.5680627441e+02   -2.8551700115e+00
    2.5690640259e+02   -2.8306300640e+00
    2.5700634766e+02   -2.8062200546e+00
    2.5710638428e+02   -2.7818698883e+00
    2.5720635986e+02   -2.7576200962e+00
    2.5730630493e+02   -2.7334599495e+00
    2.5740634155e+02   -2.7093698978e+00
    2.5750640869e+02   -2.6853499413e+00
    2.5760638428e+02   -2.6614398956e+00
    2.5770632935e+02   -2.6376099586e+00
    2.5780648804e+02   -2.6138200760e+00
    2.5790649414e+02   -2.5901401043e+00
    2.5800650024e+02   -2.5665500164e+00
    2.5810647583e+02   -2.5430400372e+00
    2.5820651245e+02   -2.5195899010e+00
    2.5830654907e+02   -2.4962298870e+00
    2.5840640259e+02   -2.4729700089e+00
    2.5850650024e+02   -2.4497399330e+00
    2.5860641479e+02   -2.4266300201e+00
    2.5870645142e+02   -2.4035599232e+00
    2.5880648804e+02   -2.3805599213e+00
    2.5890655518e+02   -2.3576400280e+00
    2.5900646973e+02   -2.3348200321e+00
    2.5910650635e+02   -2.3120601177e+00
    2.5920654297e+02   -2.2893700600e+00
    2.5930651855e+02   -2.2667698860e+00
    2.5940652466e+02   -2.2442400455e+00
    2.5950643921e+02   -2.2218000889e+00
    2.5960650635e+02   -2.1993899345e+00
    2.5970648193e+02   -2.1770799160e+00
    2.5980651855e+02   -2.1548299789e+00
    2.5990649414e+02   -2.1326498985e+00
    2.6000656128e+02   -2.1105298996e+00
    2.6010650635e+02   -2.0885000229e+00
    2.6020654297e+02   -2.0665199757e+00
    2.6030661011e+02   -2.0446100235e+00
    2.6040649414e+02   -2.0227999687e+00
    2.6050668335e+02   -2.0010099411e+00
    2.6060650635e+02   -1.9793599844e+00
    2.6070657349e+02   -1.9577300549e+00
    2.6080657959e+02   -1.9361699820e+00
    2.6090652466e+02   -1.9147100449e+00
    2.6100653076e+02   -1.8933000565e+00
    2.6110650635e+02   -1.8719600439e+00
    2.6120672607e+02   -1.8506400585e+00
    2.6130654907e+02   -1.8294700384e+00
    2.6140658569e+02   -1.8083300591e+00
    2.6150656128e+02   -1.7872600555e+00
    2.6160659790e+02   -1.7662600279e+00
    2.6170663452e+02   -1.7453099489e+00
    2.6180664062e+02   -1.7244299650e+00
    2.6190667725e+02   -1.7036199570e+00
    2.6200668335e+02   -1.6828800440e+00
    2.6210662842e+02   -1.6622200012e+00
    2.6220663452e+02   -1.6416100264e+00
    2.6230664062e+02   -1.6210700274e+00
    2.6240667725e+02   -1.6005799770e+00
    2.6250662231e+02   -1.5801899433e+00
    2.6260671997e+02   -1.5598299503e+00
    2.6270663452e+02   -1.5395699739e+00
    2.6280673218e+02   -1.5193300247e+00
    2.6290664673e+02   -1.4991999865e+00
    2.6300683594e+02   -1.4790699482e+00
    2.6310665894e+02   -1.4590799809e+00
    2.6320678711e+02   -1.4390799999e+00
    2.6330679321e+02   -1.4191700220e+00
    2.6340682983e+02   -1.3993200064e+00
    2.6350677490e+02   -1.3795399666e+00
    2.6360687256e+02   -1.3597899675e+00
    2.6370684814e+02   -1.3401299715e+00
    2.6380685425e+02   -1.3205200434e+00
    2.6390673828e+02   -1.3009899855e+00
    2.6400677490e+02   -1.2814899683e+00
    2.6410671997e+02   -1.2620699406e+00
    2.6420687866e+02   -1.2426600456e+00
    2.6430682373e+02   -1.2233500481e+00
    2.6440676880e+02   -1.2040899992e+00
    2.6450686646e+02   -1.1848499775e+00
    2.6460687256e+02   -1.1656899452e+00
    2.6470687866e+02   -1.1465799809e+00
    2.6480685425e+02   -1.1275199652e+00
    2.6490686035e+02   -1.1085100174e+00
    2.6500689697e+02   -1.0895400047e+00
    2.6510687256e+02   -1.0706399679e+00
    2.6520681763e+02   -1.0517899990e+00
    2.6530691528e+02   -1.0329500437e+00
    2.6540682983e+02   -1.0142099857e+00
    2.6550686646e+02   -9.9548798800e-01
    2.6560699463e+02   -9.7679597139e-01
    2.6570693970e+02   -9.5818400383e-01
    2.6580685425e+02   -9.3961900473e-01
    2.6590698242e+02   -9.2106699944e-01
    2.6600698853e+02   -9.0257602930e-01
    2.6610690308e+02   -8.8414901495e-01
    2.6620697021e+02   -8.6573898792e-01
    2.6630700684e+02   -8.4737098217e-01
    2.6640689087e+02   -8.2907402515e-01
    2.6650695801e+02   -8.1077599525e-01
    2.6660702515e+02   -7.9252398014e-01
    2.6670687866e+02   -7.7434700727e-01
    2.6680700684e+02   -7.5616401434e-01
    2.6690692139e+02   -7.3805797100e-01
    2.6700698853e+02   -7.1996402740e-01
    2.6710699463e+02   -7.0192098618e-01
    2.6720693970e+02   -6.8392699957e-01
    2.6730691528e+02   -6.6596400738e-01
    2.6740704346e+02   -6.4801800251e-01
    2.6750692749e+02   -6.3014698029e-01
    2.6760702515e+02   -6.1227798462e-01
    2.6770706177e+02   -5.9445500374e-01
    2.6780703735e+02   -5.7667398453e-01
    2.6790695190e+02   -5.5894702673e-01
    2.6800711060e+02   -5.4120600224e-01
    2.6810705566e+02   -5.2354198694e-01
    2.6820709229e+02   -5.0589197874e-01
    2.6830703735e+02   -4.8829698563e-01
    2.6840704346e+02   -4.7073099017e-01
    2.6850704956e+02   -4.5319598913e-01
    2.6860699463e+02   -4.3570598960e-01
    2.6870715332e+02   -4.1821300983e-01
    2.6880706787e+02   -4.0080100298e-01
    2.6890704346e+02   -3.8341099024e-01
    2.6900701904e+02   -3.6605900526e-01
    2.6910717773e+02   -3.4871199727e-01
    2.6920703125e+02   -3.3144700527e-01
    2.6930712891e+02   -3.1418299675e-01
    2.6940713501e+02   -2.9696199298e-01
    2.6950717163e+02   -2.7977299690e-01
    2.6960714722e+02   -2.6263099909e-01
    2.6970715332e+02   -2.4551099539e-01
    2.6980706787e+02   -2.2844299674e-01
    2.6990716553e+02   -2.1138000488e-01
    2.7000717163e+02   -1.9436900318e-01
    2.7010708618e+02   -1.7740599811e-01
    2.7020715332e+02   -1.6045099497e-01
    2.7030725098e+02   -1.4352899790e-01
    2.7040713501e+02   -1.2667299807e-01
    2.7050726318e+02   -1.0981900245e-01
    2.7060717773e+02   -9.3026198447e-02
    2.7070715332e+02   -7.6261900365e-02
    2.7080731201e+02   -5.9506300837e-02
    2.7090728760e+02   -4.2809300125e-02
    2.7100726318e+02   -2.6152299717e-02
    2.7110723877e+02   -9.5230601728e-03
    2.7120721436e+02    7.0723299868e-03
    2.7130715942e+02    2.3626899347e-02
    2.7140716553e+02    4.0164399892e-02
    2.7150723267e+02    5.6674100459e-02
    2.7160726929e+02    7.3145702481e-02
    2.7170730591e+02    8.9586399496e-02
    2.7180734253e+02    1.0599000007e-01
    2.7190734863e+02    1.2235400081e-01
    2.7200726318e+02    1.3866800070e-01
    2.7210733032e+02    1.5497800708e-01
    2.7220724487e+02    1.7122699320e-01
    2.7230737305e+02    1.8747499585e-01
    2.7240734863e+02    2.0366300642e-01
    2.7250735474e+02    2.1982499957e-01
    2.7260733032e+02    2.3594999313e-01
    2.7270727539e+02    2.5203999877e-01
    2.7280743408e+02    2.6813200116e-01
    2.7290740967e+02    2.8416600823e-01
    2.7300726318e+02    3.0013900995e-01
    2.7310729980e+02    3.1611800194e-01
    2.7320730591e+02    3.3205300570e-01
    2.7330728149e+02    3.4795001149e-01
    2.7340744019e+02    3.6384201050e-01
    2.7350732422e+02    3.7966099381e-01
    2.7360736084e+02    3.9547100663e-01
    2.7370733643e+02    4.1123598814e-01
    2.7380737305e+02    4.2697700858e-01
    2.7390734863e+02    4.4267800450e-01
    2.7400744629e+02    4.5836099982e-01
    2.7410745239e+02    4.7399899364e-01
    2.7420742798e+02    4.8960000277e-01
    2.7430743408e+02    5.0517398119e-01
    2.7440750122e+02    5.2072602510e-01
    2.7450741577e+02    5.3622102737e-01
    2.7460754395e+02    5.5170899630e-01
    2.7470755005e+02    5.6714898348e-01
    2.7480752563e+02    5.8254897594e-01
    2.7490750122e+02    5.9791600704e-01
    2.7500738525e+02    6.1323398352e-01
    2.7510754395e+02    6.2855100632e-01
    2.7520739746e+02    6.4378899336e-01
    2.7530749512e+02    6.5902799368e-01
    2.7540753174e+02    6.7422199249e-01
    2.7550747681e+02    6.8936502934e-01
    2.7560745239e+02    7.0447200537e-01
    2.7570751953e+02    7.1956199408e-01
    2.7580758667e+02    7.3461002111e-01
    2.7590750122e+02    7.4959099293e-01
    2.7600759888e+02    7.6456701756e-01
    2.7610748291e+02    7.7947402000e-01
    2.7620758057e+02    7.9436999559e-01
    2.7630749512e+02    8.0919700861e-01
    2.7640759277e+02    8.2400900126e-01
    2.7650750732e+02    8.3875101805e-01
    2.7660757446e+02    8.5347199440e-01
    2.7670764160e+02    8.6815202236e-01
    2.7680764771e+02    8.8277900219e-01
    2.7690750122e+02    8.9733600616e-01
    2.7700765991e+02    9.1189199686e-01
    2.7710763550e+02    9.2637497187e-01
    2.7720761108e+02    9.4081598520e-01
    2.7730755615e+02    9.5520102978e-01
    2.7740759277e+02    9.6955400705e-01
    2.7750759888e+02    9.8385697603e-01
    2.7760757446e+02    9.9810498953e-01
    2.7770761108e+02    1.0123200417e+00
    2.7780755615e+02    1.0264600515e+00
    2.7790768433e+02    1.0405800343e+00
    2.7800772095e+02    1.0546400547e+00
    2.7810757446e+02    1.0686199665e+00
    2.7820761108e+02    1.0825699568e+00
    2.7830770874e+02    1.0964800119e+00
    2.7840765381e+02    1.1103099585e+00
    2.7850775146e+02    1.1241099834e+00
    2.7860775757e+02    1.1378500462e+00
    2.7870761108e+02    1.1514999866e+00
    2.7880776978e+02    1.1651400328e+00
    2.7890774536e+02    1.1787099838e+00
    2.7900778198e+02    1.1922199726e+00
    2.7910778809e+02    1.2056800127e+00
    2.7920767212e+02    1.2190599442e+00
    2.7930770874e+02    1.2324099541e+00
    2.7940774536e+02    1.2456899881e+00
    2.7950775146e+02    1.2589199543e+00
    2.7960775757e+02    1.2720799446e+00
    2.7970770264e+02    1.2851799726e+00
    2.7980780029e+02    1.2982300520e+00
    2.7990771484e+02    1.3112000227e+00
    2.8000775146e+02    1.3241300583e+00
    2.8010769653e+02    1.3369799852e+00
    2.8020770264e+02    1.3497699499e+00
    2.8030786133e+02    1.3625299931e+00
    2.8040780640e+02    1.3752000332e+00
    2.8050772095e+02    1.3877999783e+00
    2.8060772705e+02    1.4003399611e+00
    2.8070779419e+02    1.4128400087e+00
    2.8080783081e+02    1.4252599478e+00
    2.8090774536e+02    1.4375900030e+00
    2.8100775146e+02    1.4498800039e+00
    2.8110781860e+02    1.4621100426e+00
    2.8120785522e+02    1.4742699862e+00
    2.8130795288e+02    1.4863699675e+00
    2.8140792847e+02    1.4983999729e+00
    2.8150793457e+02    1.5103600025e+00
    2.8160787964e+02    1.5222400427e+00
    2.8170779419e+02    1.5340499878e+00
    2.8180786133e+02    1.5458099842e+00
    2.8190789795e+02    1.5574899912e+00
    2.8200784302e+02    1.5690900087e+00
    2.8210781860e+02    1.5806299448e+00
    2.8220782471e+02    1.5921000242e+00
    2.8230786133e+02    1.6034899950e+00
    2.8240798950e+02    1.6148200035e+00
    2.8250793457e+02    1.6260600090e+00
    2.8260784912e+02    1.6372300386e+00
    2.8270785522e+02    1.6483299732e+00
    2.8280792236e+02    1.6593699455e+00
    2.8290798950e+02    1.6703300476e+00
    2.8300796509e+02    1.6812100410e+00
    2.8310787964e+02    1.6919900179e+00
    2.8320797729e+02    1.7027299404e+00
    2.8330792236e+02    1.7133699656e+00
    2.8340792847e+02    1.7239300013e+00
    2.8350796509e+02    1.7344299555e+00
    2.8360797119e+02    1.7448400259e+00
    2.8370797729e+02    1.7551699877e+00
    2.8380795288e+02    1.7654199600e+00
    2.8390792847e+02    1.7755800486e+00
    2.8400802612e+02    1.7856800556e+00
    2.8410809326e+02    1.7956999540e+00
    2.8420812988e+02    1.8056399822e+00
    2.8430807495e+02    1.8154900074e+00
    2.8440808105e+02    1.8252600431e+00
    2.8450802612e+02    1.8349499702e+00
    2.8460812378e+02    1.8445700407e+00
    2.8470797729e+02    1.8540799618e+00
    2.8480807495e+02    1.8635400534e+00
    2.8490814209e+02    1.8729000092e+00
    2.8500811768e+02    1.8821799755e+00
    2.8510803223e+02    1.8913600445e+00
    2.8520809937e+02    1.9004800320e+00
    2.8530807495e+02    1.9095000029e+00
    2.8540817261e+02    1.9184399843e+00
    2.8550814819e+02    1.9272899628e+00
    2.8560815430e+02    1.9360599518e+00
    2.8570816040e+02    1.9447400570e+00
    2.8580804443e+02    1.9533300400e+00
    2.8590805054e+02    1.9618400335e+00
    2.8600820923e+02    1.9702700377e+00
    2.8610821533e+02    1.9786200523e+00
    2.8620812988e+02    1.9868600368e+00
    2.8630807495e+02    1.9950200319e+00
    2.8640817261e+02    2.0031099319e+00
    2.8650823975e+02    2.0111000538e+00
    2.8660809326e+02    2.0189800262e+00
    2.8670825195e+02    2.0267999172e+00
    2.8680813599e+02    2.0345098972e+00
    2.8690820312e+02    2.0421500206e+00
    2.8700814819e+02    2.0496900082e+00
    2.8710818481e+02    2.0571498871e+00
    2.8720816040e+02    2.0645198822e+00
    2.8730822754e+02    2.0717999935e+00
    2.8740814209e+02    2.0789899826e+00
    2.8750814819e+02    2.0860900879e+00
    2.8760815430e+02    2.0931100845e+00
    2.8770819092e+02    2.1000399590e+00
    2.8780831909e+02    2.1068899632e+00
    2.8790829468e+02    2.1136400700e+00
    2.8800833130e+02    2.1203100681e+00
    2.8810821533e+02    2.1268699169e+00
    2.8820828247e+02    2.1333599091e+00
    2.8830828857e+02    2.1397600174e+00
    2.8840823364e+02    2.1460599899e+00
    2.8850830078e+02    2.1522800922e+00
    2.8860833740e+02    2.1584100723e+00
    2.8870831299e+02    2.1644399166e+00
    2.8880828857e+02    2.1703898907e+00
    2.8890832520e+02    2.1762499809e+00
    2.8900823975e+02    2.1820199490e+00
    2.8910842896e+02    2.1877100468e+00
    2.8920828247e+02    2.1933000088e+00
    2.8930841064e+02    2.1988101006e+00
    2.8940838623e+02    2.2042300701e+00
    2.8950836182e+02    2.2095499039e+00
    2.8960836792e+02    2.2147901058e+00
    2.8970837402e+02    2.2199399471e+00
    2.8980834961e+02    2.2249999046e+00
    2.8990835571e+02    2.2299699783e+00
    2.9000830078e+02    2.2348399162e+00
    2.9010833740e+02    2.2396299839e+00
    2.9020834351e+02    2.2443299294e+00
    2.9030844116e+02    2.2489399910e+00
    2.9040835571e+02    2.2534499168e+00
    2.9050836182e+02    2.2578899860e+00
    2.9060848999e+02    2.2622299194e+00
    2.9070849609e+02    2.2664899826e+00
    2.9080844116e+02    2.2706499100e+00
    2.9090841675e+02    2.2747199535e+00
    2.9100845337e+02    2.2787098885e+00
    2.9110848999e+02    2.2826099396e+00
    2.9120840454e+02    2.2864201069e+00
    2.9130838013e+02    2.2901499271e+00
    2.9140841675e+02    2.2937901020e+00
    2.9150842285e+02    2.2973399162e+00
    2.9160855103e+02    2.3008100986e+00
    2.9170855713e+02    2.3041799068e+00
    2.9180844116e+02    2.3074500561e+00
    2.9190844727e+02    2.3106400967e+00
    2.9200848389e+02    2.3137300014e+00
    2.9210845947e+02    2.3167400360e+00
    2.9220843506e+02    2.3196599483e+00
    2.9230850220e+02    2.3224899769e+00
    2.9240856934e+02    2.3252201080e+00
    2.9250854492e+02    2.3278698921e+00
    2.9260852051e+02    2.3304300308e+00
    2.9270846558e+02    2.3329100609e+00
    2.9280856323e+02    2.3352999687e+00
    2.9290847778e+02    2.3375999928e+00
    2.9300854492e+02    2.3398199081e+00
    2.9310848999e+02    2.3419399261e+00
    2.9320849609e+02    2.3439700603e+00
    2.9330865479e+02    2.3459200859e+00
    2.9340850830e+02    2.3477699757e+00
    2.9350851440e+02    2.3495399952e+00
    2.9360867310e+02    2.3512299061e+00
    2.9370855713e+02    2.3528199196e+00
    2.9380853271e+02    2.3543200493e+00
    2.9390866089e+02    2.3557400703e+00
    2.9400869751e+02    2.3570699692e+00
    2.9410858154e+02    2.3583199978e+00
    2.9420858765e+02    2.3594899178e+00
    2.9430859375e+02    2.3605799675e+00
    2.9440856934e+02    2.3615899086e+00
    2.9450872803e+02    2.3625099659e+00
    2.9460858154e+02    2.3633499146e+00
    2.9470861816e+02    2.3640999794e+00
    2.9480868530e+02    2.3647799492e+00
    2.9490875244e+02    2.3653700352e+00
    2.9500863647e+02    2.3658800125e+00
    2.9510867310e+02    2.3663098812e+00
    2.9520861816e+02    2.3666501045e+00
    2.9530877686e+02    2.3669099808e+00
    2.9540875244e+02    2.3670799732e+00
    2.9550872803e+02    2.3671700954e+00
    2.9560879517e+02    2.3671898842e+00
    2.9570864868e+02    2.3671300411e+00
    2.9580865479e+02    2.3669800758e+00
    2.9590872192e+02    2.3667500019e+00
    2.9600878906e+02    2.3664500713e+00
    2.9610867310e+02    2.3660600185e+00
    2.9620874023e+02    2.3655800819e+00
    2.9630877686e+02    2.3650200367e+00
    2.9640872192e+02    2.3643600941e+00
    2.9650878906e+02    2.3636200428e+00
    2.9660879517e+02    2.3627901077e+00
    2.9670870972e+02    2.3618900776e+00
    2.9680874634e+02    2.3608899117e+00
    2.9690878296e+02    2.3598299026e+00
    2.9700878906e+02    2.3586900234e+00
    2.9710888672e+02    2.3574900627e+00
    2.9720877075e+02    2.3562200069e+00
    2.9730874634e+02    2.3548800945e+00
    2.9740878296e+02    2.3534901142e+00
    2.9750891113e+02    2.3520400524e+00
    2.9760876465e+02    2.3505399227e+00
    2.9770892334e+02    2.3489799500e+00
    2.9780889893e+02    2.3473598957e+00
    2.9790884399e+02    2.3456900120e+00
    2.9800881958e+02    2.3439600468e+00
    2.9810891724e+02    2.3421800137e+00
    2.9820889282e+02    2.3403398991e+00
    2.9830880737e+02    2.3384499550e+00
    2.9840890503e+02    2.3365099430e+00
    2.9850888062e+02    2.3345000744e+00
    2.9860882568e+02    2.3324398994e+00
    2.9870895386e+02    2.3303101063e+00
    2.9880886841e+02    2.3281199932e+00
    2.9890884399e+02    2.3258600235e+00
    2.9900900269e+02    2.3235499859e+00
    2.9910888672e+02    2.3211600780e+00
    2.9920901489e+02    2.3187100887e+00
    2.9930889893e+02    2.3162000179e+00
    2.9940902710e+02    2.3136200905e+00
    2.9950903320e+02    2.3109900951e+00
    2.9960903931e+02    2.3082900047e+00
    2.9970892334e+02    2.3055601120e+00
    2.9980895996e+02    2.3027698994e+00
    2.9990899658e+02    2.2999401093e+00
endcurve
