Curveplot
LS-DYNA keyword deck by LS-PrePost
Abscissa
Ordinate
XY data
CHOPHeadxDis-1 #pts=3000
* Minval=    -2.2054992676e+01 at time=       299.9089965820
* Maxval=     4.4875000000e+01 at time=       195.8026733398
    0.0000000000e+00    0.0000000000e+00
    9.9978484213e-02    1.5629599802e-03
    1.9994476438e-01    3.1257446390e-03
    2.9985594749e-01    4.6876710840e-03
    3.9993065596e-01    6.2522077933e-03
    4.9983286858e-01    7.8137526289e-03
    5.9996074438e-01    9.3791475520e-03
    6.9996917248e-01    1.0944183916e-02
    7.9987239838e-01    1.2506306171e-02
    8.9996677637e-01    1.4068521559e-02
    9.9981802702e-01    1.5625216067e-02
    1.0999013186e+00    1.7186151817e-02
    1.1999312639e+00    1.8747866154e-02
    1.2999420166e+00    2.0312396809e-02
    1.3998707533e+00    2.1878629923e-02
    1.4999967813e+00    2.3450745270e-02
    1.5999176502e+00    2.5021264330e-02
    1.6998231411e+00    2.6592627168e-02
    1.7998125553e+00    2.8165800497e-02
    1.8998631239e+00    2.9739856720e-02
    1.9999403954e+00    3.1314138323e-02
    2.0999372005e+00    3.2885544002e-02
    2.1998307705e+00    3.4453611821e-02
    2.2999815941e+00    3.6022987217e-02
    2.3998348713e+00    3.7586800754e-02
    2.4998700619e+00    3.9152003825e-02
    2.5998649597e+00    4.0715046227e-02
    2.6998441219e+00    4.2276181281e-02
    2.7999923229e+00    4.3839059770e-02
    2.8998992443e+00    4.5395705849e-02
    2.9998807907e+00    4.6950727701e-02
    3.0998446941e+00    4.8502806574e-02
    3.1998353004e+00    5.0052858889e-02
    3.2999982834e+00    5.1605533808e-02
    3.3999238014e+00    5.3154561669e-02
    3.4999976158e+00    5.4706748575e-02
    3.5999677181e+00    5.6257352233e-02
    3.6998908520e+00    5.7808008045e-02
    3.7998950481e+00    5.9359703213e-02
    3.8999593258e+00    6.0911949724e-02
    3.9998872280e+00    6.2460351735e-02
    4.0999002457e+00    6.4008340240e-02
    4.1999154091e+00    6.5554432571e-02
    4.2999529839e+00    6.7097902298e-02
    4.3998851776e+00    6.8636789918e-02
    4.4998784065e+00    7.0172555745e-02
    4.5999293327e+00    7.1706973016e-02
    4.6999778748e+00    7.3239669204e-02
    4.7999606133e+00    7.4770815670e-02
    4.8998966217e+00    7.6299317181e-02
    4.9999694824e+00    7.7827863395e-02
    5.0999503136e+00    7.9351902008e-02
    5.1998300552e+00    8.0870769918e-02
    5.2998480797e+00    8.2388922572e-02
    5.3998847008e+00    8.3904974163e-02
    5.4998626709e+00    8.5418336093e-02
    5.5999817848e+00    8.6932040751e-02
    5.6998472214e+00    8.8440164924e-02
    5.7998046875e+00    8.9946538210e-02
    5.8998994827e+00    9.1451674700e-02
    5.9999914169e+00    9.2953562737e-02
    6.0998306274e+00    9.4448499382e-02
    6.1999139786e+00    9.5943540335e-02
    6.2998967171e+00    9.7432583570e-02
    6.3998079300e+00    9.8915040493e-02
    6.4998803139e+00    1.0039526224e-01
    6.5999507904e+00    1.0186883062e-01
    6.6999664307e+00    1.0333821923e-01
    6.7998299599e+00    1.0480111092e-01
    6.8998317719e+00    1.0626302660e-01
    6.9998917580e+00    1.0772439837e-01
    7.0998682976e+00    1.0918232799e-01
    7.1999130249e+00    1.1063760519e-01
    7.2999601364e+00    1.1208950728e-01
    7.3999619484e+00    1.1353927106e-01
    7.4998159409e+00    1.1498345435e-01
    7.5999779701e+00    1.1642920971e-01
    7.6999573708e+00    1.1787050217e-01
    7.7999353409e+00    1.1930925399e-01
    7.8999133110e+00    1.2074594945e-01
    7.9999518394e+00    1.2218105048e-01
    8.0999116898e+00    1.2361287326e-01
    8.1999921799e+00    1.2504284084e-01
    8.2998600006e+00    1.2646844983e-01
    8.3999414444e+00    1.2789219618e-01
    8.4999418259e+00    1.2931233644e-01
    8.5998668671e+00    1.3072566688e-01
    8.6999950409e+00    1.3213750720e-01
    8.7998943329e+00    1.3354296982e-01
    8.8998794556e+00    1.3494583964e-01
    8.9998931885e+00    1.3634620607e-01
    9.0998735428e+00    1.3774394989e-01
    9.1998090744e+00    1.3913916051e-01
    9.2998924255e+00    1.4053224027e-01
    9.3998374939e+00    1.4192193747e-01
    9.4999208450e+00    1.4330874383e-01
    9.5998888016e+00    1.4469186962e-01
    9.6999607086e+00    1.4607290924e-01
    9.7999601364e+00    1.4745067060e-01
    9.8999509811e+00    1.4882367849e-01
    9.9999437332e+00    1.5019273758e-01
    1.0099899292e+01    1.5404427052e-01
    1.0199932098e+01    1.5789686143e-01
    1.0299875259e+01    1.6174189746e-01
    1.0399922371e+01    1.6558711231e-01
    1.0499888420e+01    1.6942584515e-01
    1.0599976540e+01    1.7326584458e-01
    1.0699834824e+01    1.7709405720e-01
    1.0799839020e+01    1.8092177808e-01
    1.0899987221e+01    1.8474480510e-01
    1.0999872208e+01    1.8855232000e-01
    1.1099974632e+01    1.9236594439e-01
    1.1199816704e+01    1.9616977870e-01
    1.1299883842e+01    1.9998346269e-01
    1.1399881363e+01    2.0379573107e-01
    1.1499829292e+01    2.0760828257e-01
    1.1599976540e+01    2.1142694354e-01
    1.1699942589e+01    2.1523712575e-01
    1.1799819946e+01    2.1904030442e-01
    1.1899915695e+01    2.2284799814e-01
    1.1999942780e+01    2.2664959729e-01
    1.2099864960e+01    2.3043859005e-01
    1.2199995041e+01    2.3422700167e-01
    1.2300000191e+01    2.3800159991e-01
    1.2399901390e+01    2.4176558852e-01
    1.2499962807e+01    2.4552860856e-01
    1.2599871635e+01    2.4927861989e-01
    1.2699990273e+01    2.5302830338e-01
    1.2799981117e+01    2.5676637888e-01
    1.2899868011e+01    2.6049008965e-01
    1.2999883652e+01    2.6420918107e-01
    1.3099851608e+01    2.6791679859e-01
    1.3199937820e+01    2.7162018418e-01
    1.3299961090e+01    2.7531570196e-01
    1.3399948120e+01    2.7900490165e-01
    1.3499955177e+01    2.8269091249e-01
    1.3599972725e+01    2.8637209535e-01
    1.3699863434e+01    2.9004409909e-01
    1.3799963951e+01    2.9372060299e-01
    1.3899989128e+01    2.9738700390e-01
    1.3999843597e+01    3.0104029179e-01
    1.4099994659e+01    3.0469489098e-01
    1.4199995995e+01    3.0833548307e-01
    1.4299977303e+01    3.1196558475e-01
    1.4399853706e+01    3.1557989120e-01
    1.4499971390e+01    3.1919169426e-01
    1.4599962234e+01    3.2278990746e-01
    1.4699860573e+01    3.2637709379e-01
    1.4799954414e+01    3.2996550202e-01
    1.4899956703e+01    3.3354151249e-01
    1.4999971390e+01    3.3711010218e-01
    1.5099837303e+01    3.4066399932e-01
    1.5200016975e+01    3.4421768785e-01
    1.5299937248e+01    3.4775239229e-01
    1.5399894714e+01    3.5128059983e-01
    1.5499953270e+01    3.5480418801e-01
    1.5599922180e+01    3.5831668973e-01
    1.5699946404e+01    3.6182212830e-01
    1.5799880981e+01    3.6531549692e-01
    1.5899893761e+01    3.6880052090e-01
    1.6000009537e+01    3.7228029966e-01
    1.6100021362e+01    3.7574648857e-01
    1.6199943542e+01    3.7919771671e-01
    1.6299993515e+01    3.8264110684e-01
    1.6399923325e+01    3.8606479764e-01
    1.6499935150e+01    3.8947761059e-01
    1.6600019455e+01    3.9287811518e-01
    1.6699966431e+01    3.9626118541e-01
    1.6799919128e+01    3.9963281155e-01
    1.6899942398e+01    4.0299820900e-01
    1.6999977112e+01    4.0635612607e-01
    1.7099969864e+01    4.0970268846e-01
    1.7200016022e+01    4.1304069757e-01
    1.7299913406e+01    4.1636398435e-01
    1.7399948120e+01    4.1968420148e-01
    1.7499986649e+01    4.2299529910e-01
    1.7599855423e+01    4.2629209161e-01
    1.7699888229e+01    4.2958521843e-01
    1.7799867630e+01    4.3286699057e-01
    1.7900030136e+01    4.3614628911e-01
    1.8000001907e+01    4.3941080570e-01
    1.8100002289e+01    4.4266709685e-01
    1.8199903488e+01    4.4591212273e-01
    1.8299930573e+01    4.4915080070e-01
    1.8399866104e+01    4.5237618685e-01
    1.8499961853e+01    4.5559424162e-01
    1.8600009918e+01    4.5879718661e-01
    1.8699945450e+01    4.6198549867e-01
    1.8799982071e+01    4.6516501904e-01
    1.8899885178e+01    4.6832898259e-01
    1.8999877930e+01    4.7148647904e-01
    1.9099937439e+01    4.7463721037e-01
    1.9199964523e+01    4.7777619958e-01
    1.9299915314e+01    4.8090341687e-01
    1.9399930954e+01    4.8402291536e-01
    1.9499971390e+01    4.8713243008e-01
    1.9599996567e+01    4.9023163319e-01
    1.9699876785e+01    4.9331480265e-01
    1.9799945831e+01    4.9639263749e-01
    1.9899951935e+01    4.9945643544e-01
    1.9999975204e+01    5.0250780582e-01
    2.0099910736e+01    5.0823408365e-01
    2.0200038910e+01    5.1395928860e-01
    2.0299928665e+01    5.1965820789e-01
    2.0399969101e+01    5.2535510063e-01
    2.0499897003e+01    5.3103309870e-01
    2.0599882126e+01    5.3670209646e-01
    2.0699890137e+01    5.4236018658e-01
    2.0800008774e+01    5.4800838232e-01
    2.0900033951e+01    5.5363225937e-01
    2.0999982834e+01    5.5923861265e-01
    2.1099977493e+01    5.6483709812e-01
    2.1199924469e+01    5.7042419910e-01
    2.1299985886e+01    5.7601219416e-01
    2.1399898529e+01    5.8158588409e-01
    2.1500028610e+01    5.8716571331e-01
    2.1599893570e+01    5.9272205830e-01
    2.1700010300e+01    5.9828215837e-01
    2.1799985886e+01    6.0382378101e-01
    2.1899875641e+01    6.0934865475e-01
    2.1999879837e+01    6.1486488581e-01
    2.2100011826e+01    6.2036961317e-01
    2.2199956894e+01    6.2584680319e-01
    2.2300016403e+01    6.3131129742e-01
    2.2400018692e+01    6.3675737381e-01
    2.2499933243e+01    6.4218175411e-01
    2.2600017548e+01    6.4759856462e-01
    2.2699880600e+01    6.5298497677e-01
    2.2799909592e+01    6.5836405754e-01
    2.2900049210e+01    6.6372901201e-01
    2.2999948502e+01    6.6906082630e-01
    2.3099882126e+01    6.7437589169e-01
    2.3199964523e+01    6.7967963219e-01
    2.3299911499e+01    6.8496149778e-01
    2.3400043488e+01    6.9023901224e-01
    2.3499912262e+01    6.9548898935e-01
    2.3599950790e+01    7.0073395967e-01
    2.3699897766e+01    7.0596301556e-01
    2.3799978256e+01    7.1118301153e-01
    2.3899904251e+01    7.1638101339e-01
    2.4000043869e+01    7.2157299519e-01
    2.4100038528e+01    7.2673702240e-01
    2.4200052261e+01    7.3188495636e-01
    2.4300033569e+01    7.3701000214e-01
    2.4399972916e+01    7.4211102724e-01
    2.4500045776e+01    7.4719798565e-01
    2.4599969864e+01    7.5226002932e-01
    2.4699985504e+01    7.5730895996e-01
    2.4800001144e+01    7.6234203577e-01
    2.4899925232e+01    7.6735395193e-01
    2.4999992371e+01    7.7235496044e-01
    2.5100019455e+01    7.7733498812e-01
    2.5199989319e+01    7.8229296207e-01
    2.5299991608e+01    7.8723400831e-01
    2.5399894714e+01    7.9215198755e-01
    2.5499933243e+01    7.9706001282e-01
    2.5600042343e+01    8.0195498466e-01
    2.5699977875e+01    8.0682301521e-01
    2.5799924850e+01    8.1167304516e-01
    2.5899940491e+01    8.1650799513e-01
    2.5999990463e+01    8.2132500410e-01
    2.6100011826e+01    8.2612097263e-01
    2.6199951172e+01    8.3089202642e-01
    2.6299898148e+01    8.3563899994e-01
    2.6399993896e+01    8.4036999941e-01
    2.6500017166e+01    8.4507000446e-01
    2.6599876404e+01    8.4973597527e-01
    2.6700063705e+01    8.5440099239e-01
    2.6800020218e+01    8.5903006792e-01
    2.6900028229e+01    8.6363899708e-01
    2.6999944687e+01    8.6823296547e-01
    2.7100065231e+01    8.7281298637e-01
    2.7199987411e+01    8.7736594677e-01
    2.7299985886e+01    8.8190996647e-01
    2.7399879456e+01    8.8641804457e-01
    2.7500011444e+01    8.9093202353e-01
    2.7599903107e+01    8.9540398121e-01
    2.7700067520e+01    8.9987897873e-01
    2.7800014496e+01    9.0432000160e-01
    2.7899932861e+01    9.0874403715e-01
    2.7999940872e+01    9.1314804554e-01
    2.8099967957e+01    9.1754305363e-01
    2.8200038910e+01    9.2190802097e-01
    2.8299932480e+01    9.2625796795e-01
    2.8400028229e+01    9.3059194088e-01
    2.8500000000e+01    9.3489605188e-01
    2.8600059509e+01    9.3918406963e-01
    2.8700017929e+01    9.4344198704e-01
    2.8800045013e+01    9.4768702984e-01
    2.8900045395e+01    9.5190197229e-01
    2.8999914169e+01    9.5609992743e-01
    2.9100065231e+01    9.6028304100e-01
    2.9199949265e+01    9.6444106102e-01
    2.9299966812e+01    9.6857702732e-01
    2.9400009155e+01    9.7270298004e-01
    2.9499992371e+01    9.7679996490e-01
    2.9599905014e+01    9.8087704182e-01
    2.9699943542e+01    9.8493003845e-01
    2.9800020218e+01    9.8896902800e-01
    2.9900011063e+01    9.9298602343e-01
    3.0000030518e+01    9.9697101116e-01
    3.0099977493e+01    1.0069140196e+00
    3.0200006485e+01    1.0168520212e+00
    3.0299949646e+01    1.0267490149e+00
    3.0400007248e+01    1.0366319418e+00
    3.0499969482e+01    1.0464919806e+00
    3.0599927902e+01    1.0563209057e+00
    3.0699987411e+01    1.0661369562e+00
    3.0800060272e+01    1.0759329796e+00
    3.0900039673e+01    1.0856859684e+00
    3.0999963760e+01    1.0953910351e+00
    3.1100059509e+01    1.1051030159e+00
    3.1200065613e+01    1.1147919893e+00
    3.1300043106e+01    1.1244720221e+00
    3.1400012970e+01    1.1341309547e+00
    3.1500053406e+01    1.1437989473e+00
    3.1599956512e+01    1.1534259319e+00
    3.1700004578e+01    1.1630510092e+00
    3.1799985886e+01    1.1726559401e+00
    3.1900049210e+01    1.1822459698e+00
    3.2000019073e+01    1.1917929649e+00
    3.2100021362e+01    1.2013169527e+00
    3.2200027466e+01    1.2108089924e+00
    3.2299896240e+01    1.2202498913e+00
    3.2399921417e+01    1.2296789885e+00
    3.2500053406e+01    1.2390829325e+00
    3.2599964142e+01    1.2484450340e+00
    3.2699958801e+01    1.2577819824e+00
    3.2799972534e+01    1.2670890093e+00
    3.2899932861e+01    1.2763528824e+00
    3.2999946594e+01    1.2855880260e+00
    3.3099956512e+01    1.2947869301e+00
    3.3200050354e+01    1.3039599657e+00
    3.3299980164e+01    1.3130919933e+00
    3.3399986267e+01    1.3222069740e+00
    3.3500026703e+01    1.3312979937e+00
    3.3599929810e+01    1.3403609991e+00
    3.3699920654e+01    1.3493999243e+00
    3.3799945831e+01    1.3584219217e+00
    3.3899971008e+01    1.3674190044e+00
    3.4000022888e+01    1.3763920069e+00
    3.4099967957e+01    1.3853158951e+00
    3.4200031281e+01    1.3942209482e+00
    3.4299991608e+01    1.4030740261e+00
    3.4399997711e+01    1.4118959904e+00
    3.4499969482e+01    1.4206699133e+00
    3.4599987030e+01    1.4294189215e+00
    3.4700038910e+01    1.4381449223e+00
    3.4799896240e+01    1.4468219280e+00
    3.4899944305e+01    1.4554799795e+00
    3.5000022888e+01    1.4641159773e+00
    3.5099899292e+01    1.4726940393e+00
    3.5200019836e+01    1.4812549353e+00
    3.5299957275e+01    1.4897679090e+00
    3.5400020599e+01    1.4982619286e+00
    3.5499973297e+01    1.5067089796e+00
    3.5599994659e+01    1.5151339769e+00
    3.5699958801e+01    1.5235190392e+00
    3.5799915314e+01    1.5318789482e+00
    3.5899986267e+01    1.5401979685e+00
    3.6000007629e+01    1.5484828949e+00
    3.6099834442e+01    1.5567209721e+00
    3.6199829102e+01    1.5649299622e+00
    3.6299858093e+01    1.5730950832e+00
    3.6399887085e+01    1.5812129974e+00
    3.6499965668e+01    1.5892910957e+00
    3.6599861145e+01    1.5972999334e+00
    3.6699977875e+01    1.6052970886e+00
    3.6799884796e+01    1.6132249832e+00
    3.6899868011e+01    1.6211349964e+00
    3.7000000000e+01    1.6290159225e+00
    3.7099826813e+01    1.6368460655e+00
    3.7199993134e+01    1.6446619034e+00
    3.7299999237e+01    1.6524300575e+00
    3.7399833679e+01    1.6601438522e+00
    3.7499885559e+01    1.6678520441e+00
    3.7599887848e+01    1.6755189896e+00
    3.7699905396e+01    1.6831490993e+00
    3.7799926758e+01    1.6907448769e+00
    3.7899852753e+01    1.6983020306e+00
    3.7999881744e+01    1.7058309317e+00
    3.8099922180e+01    1.7133250237e+00
    3.8199855804e+01    1.7207789421e+00
    3.8299934387e+01    1.7282110453e+00
    3.8399871826e+01    1.7355909348e+00
    3.8499889374e+01    1.7429361343e+00
    3.8599884033e+01    1.7502269745e+00
    3.8699882507e+01    1.7574880123e+00
    3.8799812317e+01    1.7647008896e+00
    3.8899814606e+01    1.7718830109e+00
    3.8999797821e+01    1.7790198326e+00
    3.9099895477e+01    1.7861471176e+00
    3.9199844360e+01    1.7932169437e+00
    3.9299861908e+01    1.8002580404e+00
    3.9399944305e+01    1.8072699308e+00
    3.9499946594e+01    1.8142280579e+00
    3.9599903107e+01    1.8211619854e+00
    3.9699886322e+01    1.8280460835e+00
    3.9799957275e+01    1.8349049091e+00
    3.9899921417e+01    1.8417090178e+00
    3.9999809265e+01    1.8484759331e+00
    4.0099941254e+01    1.8629891872e+00
    4.0199787140e+01    1.8774471283e+00
    4.0299869537e+01    1.8918910027e+00
    4.0399929047e+01    1.9062960148e+00
    4.0499782562e+01    1.9206240177e+00
    4.0599948883e+01    1.9349620342e+00
    4.0699897766e+01    1.9492359161e+00
    4.0799831390e+01    1.9634491205e+00
    4.0899837494e+01    1.9776201248e+00
    4.0999752045e+01    1.9917290211e+00
    4.1099769592e+01    2.0058188438e+00
    4.1199775696e+01    2.0198688507e+00
    4.1299812317e+01    2.0339150429e+00
    4.1399841309e+01    2.0479297638e+00
    4.1499851227e+01    2.0619220734e+00
    4.1599895477e+01    2.0758831501e+00
    4.1699802399e+01    2.0897998810e+00
    4.1799865723e+01    2.1036989689e+00
    4.1899848938e+01    2.1175420284e+00
    4.1999832153e+01    2.1313400269e+00
    4.2099906921e+01    2.1450979710e+00
    4.2199810028e+01    2.1587820053e+00
    4.2299758911e+01    2.1724150181e+00
    4.2399814606e+01    2.1860029697e+00
    4.2499809265e+01    2.1995449066e+00
    4.2599796295e+01    2.2130250931e+00
    4.2699745178e+01    2.2264549732e+00
    4.2799892426e+01    2.2398500443e+00
    4.2899875641e+01    2.2531757355e+00
    4.2999862671e+01    2.2664301395e+00
    4.3099845886e+01    2.2796258926e+00
    4.3199832916e+01    2.2927660942e+00
    4.3299884796e+01    2.3058750629e+00
    4.3399837494e+01    2.3189268112e+00
    4.3499855042e+01    2.3319418430e+00
    4.3599899292e+01    2.3449130058e+00
    4.3699829102e+01    2.3578341007e+00
    4.3799827576e+01    2.3707261086e+00
    4.3899833679e+01    2.3835699558e+00
    4.3999832153e+01    2.3963508606e+00
    4.4099826813e+01    2.4090847969e+00
    4.4199737549e+01    2.4217391014e+00
    4.4299892426e+01    2.4343709946e+00
    4.4399868011e+01    2.4469151497e+00
    4.4499702454e+01    2.4593758583e+00
    4.4599742889e+01    2.4718151093e+00
    4.4699775696e+01    2.4841928482e+00
    4.4799800873e+01    2.4965229034e+00
    4.4899864197e+01    2.5088100433e+00
    4.4999713898e+01    2.5210199356e+00
    4.5099708557e+01    2.5331799984e+00
    4.5199810028e+01    2.5453000069e+00
    4.5299716949e+01    2.5573301315e+00
    4.5399738312e+01    2.5693199635e+00
    4.5499870300e+01    2.5812799931e+00
    4.5599754333e+01    2.5931599140e+00
    4.5699707031e+01    2.6049900055e+00
    4.5799831390e+01    2.6167800426e+00
    4.5899711609e+01    2.6284899712e+00
    4.5999748230e+01    2.6401500702e+00
    4.6099834442e+01    2.6517701149e+00
    4.6199802399e+01    2.6633000374e+00
    4.6299800873e+01    2.6747698784e+00
    4.6399692535e+01    2.6861600876e+00
    4.6499713898e+01    2.6974802017e+00
    4.6599819183e+01    2.7087399960e+00
    4.6699840546e+01    2.7199301720e+00
    4.6799701691e+01    2.7310400009e+00
    4.6899787903e+01    2.7421097755e+00
    4.6999794006e+01    2.7531299591e+00
    4.7099784851e+01    2.7640800476e+00
    4.7199695587e+01    2.7749700546e+00
    4.7299804688e+01    2.7858300209e+00
    4.7399776459e+01    2.7966103554e+00
    4.7499843597e+01    2.8073599339e+00
    4.7599708557e+01    2.8180201054e+00
    4.7699691772e+01    2.8286399841e+00
    4.7799755096e+01    2.8392200470e+00
    4.7899799347e+01    2.8497297764e+00
    4.7999759674e+01    2.8601899147e+00
    4.8099727631e+01    2.8706002235e+00
    4.8199680328e+01    2.8809499741e+00
    4.8299709320e+01    2.8912401199e+00
    4.8399784088e+01    2.9014897346e+00
    4.8499725342e+01    2.9116501808e+00
    4.8599765778e+01    2.9217598438e+00
    4.8699726105e+01    2.9317998886e+00
    4.8799701691e+01    2.9417700768e+00
    4.8899768829e+01    2.9516899586e+00
    4.8999675751e+01    2.9615402222e+00
    4.9099800110e+01    2.9713697433e+00
    4.9199691772e+01    2.9811000824e+00
    4.9299644470e+01    2.9907999039e+00
    4.9399677277e+01    3.0004401207e+00
    4.9499786377e+01    3.0100297928e+00
    4.9599704742e+01    3.0195498466e+00
    4.9699722290e+01    3.0290002823e+00
    4.9799629211e+01    3.0383899212e+00
    4.9899761200e+01    3.0477499962e+00
    4.9999683380e+01    3.0569996834e+00
    5.0099693298e+01    3.0757801533e+00
    5.0199775696e+01    3.0945401192e+00
    5.0299724579e+01    3.1132099628e+00
    5.0399742126e+01    3.1318297386e+00
    5.0499668121e+01    3.1503701210e+00
    5.0599678040e+01    3.1688599586e+00
    5.0699630737e+01    3.1872799397e+00
    5.0799720764e+01    3.2056398392e+00
    5.0899765015e+01    3.2239198685e+00
    5.0999656677e+01    3.2421002388e+00
    5.1099712372e+01    3.2602400780e+00
    5.1199718475e+01    3.2783398628e+00
    5.1299747467e+01    3.2963898182e+00
    5.1399620056e+01    3.3143801689e+00
    5.1499671936e+01    3.3323500156e+00
    5.1599685669e+01    3.3502798080e+00
    5.1699718475e+01    3.3681497574e+00
    5.1799606323e+01    3.3859400749e+00
    5.1899761200e+01    3.4037101269e+00
    5.1999633789e+01    3.4213600159e+00
    5.2099731445e+01    3.4389598370e+00
    5.2199714661e+01    3.4564797878e+00
    5.2299598694e+01    3.4738900661e+00
    5.2399673462e+01    3.4912500381e+00
    5.2499603271e+01    3.5085198879e+00
    5.2599750519e+01    3.5257396698e+00
    5.2699607849e+01    3.5428400040e+00
    5.2799686432e+01    3.5599000454e+00
    5.2899692535e+01    3.5768599510e+00
    5.2999664307e+01    3.5937199593e+00
    5.3099590302e+01    3.6104903221e+00
    5.3199596405e+01    3.6272001266e+00
    5.3299671173e+01    3.6438498497e+00
    5.3399654388e+01    3.6604099274e+00
    5.3499603271e+01    3.6769001484e+00
    5.3599712372e+01    3.6933500767e+00
    5.3699672699e+01    3.7097201347e+00
    5.3799583435e+01    3.7260098457e+00
    5.3899574280e+01    3.7422502041e+00
    5.3999687195e+01    3.7584402561e+00
    5.4099624634e+01    3.7745001316e+00
    5.4199634552e+01    3.7904899120e+00
    5.4299663544e+01    3.8064098358e+00
    5.4399547577e+01    3.8222100735e+00
    5.4499645233e+01    3.8379399776e+00
    5.4599685669e+01    3.8536000252e+00
    5.4699588776e+01    3.8691599369e+00
    5.4799594879e+01    3.8846602440e+00
    5.4899650574e+01    3.9000902176e+00
    5.4999568939e+01    3.9154200554e+00
    5.5099613190e+01    3.9306898117e+00
    5.5199722290e+01    3.9458897114e+00
    5.5299694061e+01    3.9609901905e+00
    5.5399608612e+01    3.9759900570e+00
    5.5499637604e+01    3.9909398556e+00
    5.5599674225e+01    4.0058197975e+00
    5.5699668884e+01    4.0206098557e+00
    5.5799541473e+01    4.0353097916e+00
    5.5899627686e+01    4.0499496460e+00
    5.5999656677e+01    4.0645198822e+00
    5.6099613190e+01    4.0789804459e+00
    5.6199653625e+01    4.0933599472e+00
    5.6299560547e+01    4.1076297760e+00
    5.6399532318e+01    4.1217999458e+00
    5.6499553680e+01    4.1358804703e+00
    5.6599662781e+01    4.1498699188e+00
    5.6699607849e+01    4.1637496948e+00
    5.6799545288e+01    4.1775398254e+00
    5.6899665833e+01    4.1912798882e+00
    5.6999614716e+01    4.2049102783e+00
    5.7099521637e+01    4.2184600830e+00
    5.7199523926e+01    4.2319402695e+00
    5.7299674988e+01    4.2453598976e+00
    5.7399566650e+01    4.2586698532e+00
    5.7499595642e+01    4.2719202042e+00
    5.7599620819e+01    4.2850899696e+00
    5.7699558258e+01    4.2981700897e+00
    5.7799518585e+01    4.3111701012e+00
    5.7899627686e+01    4.3241100311e+00
    5.7999576569e+01    4.3369598389e+00
    5.8099639893e+01    4.3497500420e+00
    5.8199581146e+01    4.3624496460e+00
    5.8299652100e+01    4.3750700951e+00
    5.8399593353e+01    4.3875999451e+00
    5.8499515533e+01    4.4000301361e+00
    5.8599624634e+01    4.4123897552e+00
    5.8699584961e+01    4.4246501923e+00
    5.8799510956e+01    4.4368100166e+00
    5.8899551392e+01    4.4489097595e+00
    5.8999591827e+01    4.4609198570e+00
    5.9099605560e+01    4.4728598595e+00
    5.9199497223e+01    4.4846901894e+00
    5.9299488068e+01    4.4964699745e+00
    5.9399654388e+01    4.5081796646e+00
    5.9499633789e+01    4.5197896957e+00
    5.9599586487e+01    4.5313200951e+00
    5.9699630737e+01    4.5427703857e+00
    5.9799552917e+01    4.5541100502e+00
    5.9899524689e+01    4.5653800964e+00
    5.9999519348e+01    4.5765504837e+00
    6.0099643707e+01    4.5988502502e+00
    6.0199581146e+01    4.6210498810e+00
    6.0299583435e+01    4.6431999207e+00
    6.0399501801e+01    4.6652297974e+00
    6.0499507904e+01    4.6872000694e+00
    6.0599502563e+01    4.7090702057e+00
    6.0699542999e+01    4.7308597565e+00
    6.0799564362e+01    4.7525501251e+00
    6.0899490356e+01    4.7741003036e+00
    6.0999588013e+01    4.7955999374e+00
    6.1099559784e+01    4.8169898987e+00
    6.1199512482e+01    4.8382997513e+00
    6.1299606323e+01    4.8595900536e+00
    6.1399570465e+01    4.8807907104e+00
    6.1499546051e+01    4.9019298553e+00
    6.1599517822e+01    4.9229898453e+00
    6.1699516296e+01    4.9440002441e+00
    6.1799499512e+01    4.9649095535e+00
    6.1899562836e+01    4.9857501984e+00
    6.1999618530e+01    5.0064997673e+00
    6.2099491119e+01    5.0270996094e+00
    6.2199600220e+01    5.0476403236e+00
    6.2299610138e+01    5.0680599213e+00
    6.2399501801e+01    5.0883493423e+00
    6.2499546051e+01    5.1085605621e+00
    6.2599575043e+01    5.1286697388e+00
    6.2699577332e+01    5.1486802101e+00
    6.2799491882e+01    5.1685595512e+00
    6.2899452209e+01    5.1883401871e+00
    6.2999519348e+01    5.2080202103e+00
    6.3099445343e+01    5.2275595665e+00
    6.3199558258e+01    5.2470302582e+00
    6.3299438477e+01    5.2663502693e+00
    6.3399513245e+01    5.2856402397e+00
    6.3499568939e+01    5.3048295975e+00
    6.3599418640e+01    5.3238897324e+00
    6.3699485779e+01    5.3429098129e+00
    6.3799503326e+01    5.3618302345e+00
    6.3899452209e+01    5.3806400299e+00
    6.3999488831e+01    5.3993597031e+00
    6.4099487305e+01    5.4179801941e+00
    6.4199447632e+01    5.4364700317e+00
    6.4299552917e+01    5.4548697472e+00
    6.4399536133e+01    5.4731397629e+00
    6.4499488831e+01    5.4912805557e+00
    6.4599418640e+01    5.5093202591e+00
    6.4699417114e+01    5.5272598267e+00
    6.4799423218e+01    5.5451197624e+00
    6.4899421692e+01    5.5628705025e+00
    6.4999542236e+01    5.5805397034e+00
    6.5099555969e+01    5.5980901718e+00
    6.5199523926e+01    5.6155300140e+00
    6.5299377441e+01    5.6328296661e+00
    6.5399513245e+01    5.6500797272e+00
    6.5499412537e+01    5.6671795845e+00
    6.5599411011e+01    5.6842103004e+00
    6.5699424744e+01    5.7011399269e+00
    6.5799400330e+01    5.7179698944e+00
    6.5899452209e+01    5.7347097397e+00
    6.5999427795e+01    5.7512903214e+00
    6.6099388123e+01    5.7677502632e+00
    6.6199417114e+01    5.7841801643e+00
    6.6299415588e+01    5.8004002571e+00
    6.6399398804e+01    5.8165898323e+00
    6.6499412537e+01    5.8325400352e+00
    6.6599380493e+01    5.8484697342e+00
    6.6699378967e+01    5.8641796112e+00
    6.6799461365e+01    5.8798494339e+00
    6.6899375916e+01    5.8953604698e+00
    6.6999488831e+01    5.9108304977e+00
    6.7099540710e+01    5.9261002541e+00
    6.7199363708e+01    5.9413199425e+00
    6.7299507141e+01    5.9564499855e+00
    6.7399497986e+01    5.9715199471e+00
    6.7499420166e+01    5.9864196777e+00
    6.7599533081e+01    6.0012497902e+00
    6.7699516296e+01    6.0159201622e+00
    6.7799362183e+01    6.0305299759e+00
    6.7899444580e+01    6.0450601578e+00
    6.7999511719e+01    6.0594100952e+00
    6.8099472046e+01    6.0737800598e+00
    6.8199531555e+01    6.0879297256e+00
    6.8299430847e+01    6.1020097733e+00
    6.8399414062e+01    6.1160593033e+00
    6.8499496460e+01    6.1298704147e+00
    6.8599418640e+01    6.1437001228e+00
    6.8699386597e+01    6.1572999954e+00
    6.8799392700e+01    6.1707897186e+00
    6.8899421692e+01    6.1842498779e+00
    6.8999366760e+01    6.1975398064e+00
    6.9099372864e+01    6.2108097076e+00
    6.9199440002e+01    6.2238702774e+00
    6.9299400330e+01    6.2369503975e+00
    6.9399444580e+01    6.2498102188e+00
    6.9499412537e+01    6.2625799179e+00
    6.9599327087e+01    6.2753601074e+00
    6.9699478149e+01    6.2879700661e+00
    6.9799331665e+01    6.3003497124e+00
    6.9899452209e+01    6.3127393723e+00
    6.9999389648e+01    6.3250703812e+00
    7.0099426270e+01    6.3482599258e+00
    7.0199493408e+01    6.3713197708e+00
    7.0299446106e+01    6.3944106102e+00
    7.0399475098e+01    6.4172701836e+00
    7.0499389648e+01    6.4400396347e+00
    7.0599334717e+01    6.4626903534e+00
    7.0699302673e+01    6.4853301048e+00
    7.0799377441e+01    6.5077996254e+00
    7.0899337769e+01    6.5300803185e+00
    7.0999313354e+01    6.5522298813e+00
    7.1099380493e+01    6.5743498802e+00
    7.1199310303e+01    6.5963206291e+00
    7.1299301147e+01    6.6181902885e+00
    7.1399375916e+01    6.6400599480e+00
    7.1499404907e+01    6.6618595123e+00
    7.1599403381e+01    6.6834802628e+00
    7.1699432373e+01    6.7050900459e+00
    7.1799438477e+01    6.7264995575e+00
    7.1899360657e+01    6.7479305267e+00
    7.1999351501e+01    6.7691297531e+00
    7.2099395752e+01    6.7902698517e+00
    7.2199386597e+01    6.8112001419e+00
    7.2299392700e+01    6.8320899010e+00
    7.2399284363e+01    6.8526997566e+00
    7.2499351501e+01    6.8733301163e+00
    7.2599441528e+01    6.8938202858e+00
    7.2699371338e+01    6.9141497612e+00
    7.2799301147e+01    6.9343404770e+00
    7.2899337769e+01    6.9544601440e+00
    7.2999397278e+01    6.9744400978e+00
    7.3099411011e+01    6.9942002296e+00
    7.3199302673e+01    7.0138702393e+00
    7.3299270630e+01    7.0334997177e+00
    7.3399269104e+01    7.0529103279e+00
    7.3499389648e+01    7.0722703934e+00
    7.3599426270e+01    7.0915398598e+00
    7.3699432373e+01    7.1106295586e+00
    7.3799377441e+01    7.1296200752e+00
    7.3899391174e+01    7.1485800743e+00
    7.3999351501e+01    7.1673197746e+00
    7.4099319458e+01    7.1859402657e+00
    7.4199348450e+01    7.2045001984e+00
    7.4299362183e+01    7.2229299545e+00
    7.4399276733e+01    7.2411503792e+00
    7.4499359131e+01    7.2592802048e+00
    7.4599411011e+01    7.2771997452e+00
    7.4699378967e+01    7.2951197624e+00
    7.4799385071e+01    7.3128199577e+00
    7.4899284363e+01    7.3304295540e+00
    7.4999252319e+01    7.3479003906e+00
    7.5099349976e+01    7.3653001785e+00
    7.5199287415e+01    7.3825297356e+00
    7.5299339294e+01    7.3996906281e+00
    7.5399238586e+01    7.4166803360e+00
    7.5499366760e+01    7.4335799217e+00
    7.5599395752e+01    7.4503898621e+00
    7.5699287415e+01    7.4670400620e+00
    7.5799400330e+01    7.4835700989e+00
    7.5899253845e+01    7.4998903275e+00
    7.5999336243e+01    7.5161900520e+00
    7.6099342346e+01    7.5323901176e+00
    7.6199371338e+01    7.5483498573e+00
    7.6299293518e+01    7.5642004013e+00
    7.6399307251e+01    7.5799798965e+00
    7.6499382019e+01    7.5955696106e+00
    7.6599235535e+01    7.6110105515e+00
    7.6699325562e+01    7.6263203621e+00
    7.6799224854e+01    7.6413698196e+00
    7.6899253845e+01    7.6564502716e+00
    7.6999343872e+01    7.6713900566e+00
    7.7099334717e+01    7.6861395836e+00
    7.7199234009e+01    7.7008004189e+00
    7.7299263000e+01    7.7154002190e+00
    7.7399253845e+01    7.7297897339e+00
    7.7499359131e+01    7.7441196442e+00
    7.7599250793e+01    7.7583203316e+00
    7.7699203491e+01    7.7723698616e+00
    7.7799331665e+01    7.7864294052e+00
    7.7899253845e+01    7.8002605438e+00
    7.7999282837e+01    7.8139295578e+00
    7.8099273682e+01    7.8275995255e+00
    7.8199310303e+01    7.8410301208e+00
    7.8299217224e+01    7.8544006348e+00
    7.8399223328e+01    7.8677005768e+00
    7.8499313354e+01    7.8808403015e+00
    7.8599311829e+01    7.8937788010e+00
    7.8699195862e+01    7.9066295624e+00
    7.8799255371e+01    7.9193897247e+00
    7.8899185181e+01    7.9319801331e+00
    7.8999282837e+01    7.9444799423e+00
    7.9099205017e+01    7.9568405151e+00
    7.9199302673e+01    7.9691104889e+00
    7.9299232483e+01    7.9812402725e+00
    7.9399223328e+01    7.9932193756e+00
    7.9499259949e+01    8.0051689148e+00
    7.9599235535e+01    8.0169200897e+00
    7.9699226379e+01    8.0286493301e+00
    7.9799232483e+01    8.0401401520e+00
    7.9899238586e+01    8.0515995026e+00
    7.9999221802e+01    8.0628509521e+00
    8.0099304199e+01    8.0857295990e+00
    8.0199310303e+01    8.1085090637e+00
    8.0299293518e+01    8.1311702728e+00
    8.0399322510e+01    8.1536903381e+00
    8.0499328613e+01    8.1760997772e+00
    8.0599273682e+01    8.1983003616e+00
    8.0699256897e+01    8.2204589844e+00
    8.0799240112e+01    8.2424802780e+00
    8.0899208069e+01    8.2643604279e+00
    8.0999267578e+01    8.2860698700e+00
    8.1099227905e+01    8.3077011108e+00
    8.1199195862e+01    8.3292303085e+00
    8.1299148560e+01    8.3506793976e+00
    8.1399139404e+01    8.3719100952e+00
    8.1499137878e+01    8.3931493759e+00
    8.1599281311e+01    8.4143304825e+00
    8.1699157715e+01    8.4353199005e+00
    8.1799186707e+01    8.4563207626e+00
    8.1899269104e+01    8.4770708084e+00
    8.1999237061e+01    8.4977493286e+00
    8.2099151611e+01    8.5182104111e+00
    8.2199302673e+01    8.5386209488e+00
    8.2299301147e+01    8.5588598251e+00
    8.2399291992e+01    8.5789594650e+00
    8.2499130249e+01    8.5988998413e+00
    8.2599143982e+01    8.6186990738e+00
    8.2699134827e+01    8.6384010315e+00
    8.2799156189e+01    8.6579999924e+00
    8.2899230957e+01    8.6774005890e+00
    8.2999198914e+01    8.6966009140e+00
    8.3099220276e+01    8.7157993317e+00
    8.3199157715e+01    8.7346992493e+00
    8.3299232483e+01    8.7536001205e+00
    8.3399177551e+01    8.7723007202e+00
    8.3499122620e+01    8.7909002304e+00
    8.3599105835e+01    8.8093996048e+00
    8.3699195862e+01    8.8278007507e+00
    8.3799148560e+01    8.8460998535e+00
    8.3899253845e+01    8.8642005920e+00
    8.3999259949e+01    8.8822002411e+00
    8.4099105835e+01    8.9001007080e+00
    8.4199127197e+01    8.9177999496e+00
    8.4299171448e+01    8.9352989197e+00
    8.4399276733e+01    8.9527997971e+00
    8.4499244690e+01    8.9700002670e+00
    8.4599136353e+01    8.9871997833e+00
    8.4699180603e+01    9.0041990280e+00
    8.4799186707e+01    9.0211000443e+00
    8.4899238586e+01    9.0378999710e+00
    8.4999252319e+01    9.0544996262e+00
    8.5099166870e+01    9.0710010529e+00
    8.5199203491e+01    9.0874004364e+00
    8.5299133301e+01    9.1036005020e+00
    8.5399215698e+01    9.1197004318e+00
    8.5499084473e+01    9.1356992722e+00
    8.5599105835e+01    9.1515007019e+00
    8.5699226379e+01    9.1672992706e+00
    8.5799163818e+01    9.1830005646e+00
    8.5899246216e+01    9.1984004974e+00
    8.5999076843e+01    9.2137002945e+00
    8.6099128723e+01    9.2288999557e+00
    8.6199073792e+01    9.2439994812e+00
    8.6299217224e+01    9.2589998245e+00
    8.6399215698e+01    9.2736988068e+00
    8.6499237061e+01    9.2883005142e+00
    8.6599082947e+01    9.3027009964e+00
    8.6699096680e+01    9.3170003891e+00
    8.6799194336e+01    9.3313007355e+00
    8.6899200439e+01    9.3453006744e+00
    8.6999214172e+01    9.3591995239e+00
    8.7099174500e+01    9.3729000092e+00
    8.7199073792e+01    9.3865995407e+00
    8.7299118042e+01    9.4002008438e+00
    8.7399047852e+01    9.4134988785e+00
    8.7499076843e+01    9.4268999100e+00
    8.7599090576e+01    9.4400987625e+00
    8.7699226379e+01    9.4530992508e+00
    8.7799179077e+01    9.4659996033e+00
    8.7899223328e+01    9.4786996841e+00
    8.7999160767e+01    9.4915008545e+00
    8.8099220276e+01    9.5039997101e+00
    8.8199180603e+01    9.5163993835e+00
    8.8299087524e+01    9.5287990570e+00
    8.8399131775e+01    9.5410003662e+00
    8.8499206543e+01    9.5529994965e+00
    8.8599098206e+01    9.5648994446e+00
    8.8699096680e+01    9.5765991211e+00
    8.8799209595e+01    9.5882997513e+00
    8.8899154663e+01    9.5998992920e+00
    8.8999183655e+01    9.6112012863e+00
    8.9099166870e+01    9.6225004196e+00
    8.9199157715e+01    9.6336994171e+00
    8.9299041748e+01    9.6447000504e+00
    8.9399047852e+01    9.6555995941e+00
    8.9499176025e+01    9.6665000916e+00
    8.9599075317e+01    9.6771001816e+00
    8.9699188232e+01    9.6877012253e+00
    8.9799171448e+01    9.6981000900e+00
    8.9899032593e+01    9.7084007263e+00
    8.9999038696e+01    9.7186002731e+00
    9.0099159241e+01    9.7430992126e+00
    9.0199005127e+01    9.7673988342e+00
    9.0299125671e+01    9.7917995453e+00
    9.0399063110e+01    9.8159999847e+00
    9.0499130249e+01    9.8400001526e+00
    9.0599159241e+01    9.8638992310e+00
    9.0699081421e+01    9.8877010345e+00
    9.0799171448e+01    9.9114007950e+00
    9.0899009705e+01    9.9349002838e+00
    9.0999168396e+01    9.9583005905e+00
    9.1099151611e+01    9.9815988541e+00
    9.1199073792e+01    1.0004799843e+01
    9.1299057007e+01    1.0027799606e+01
    9.1398994446e+01    1.0050800323e+01
    9.1499046326e+01    1.0073700905e+01
    9.1599113464e+01    1.0096600533e+01
    9.1699127197e+01    1.0119199753e+01
    9.1799171448e+01    1.0141799927e+01
    9.1899078369e+01    1.0164199829e+01
    9.1999114990e+01    1.0186600685e+01
    9.2099098206e+01    1.0208699226e+01
    9.2199127197e+01    1.0230799675e+01
    9.2299110413e+01    1.0252700806e+01
    9.2399101257e+01    1.0274399757e+01
    9.2499023438e+01    1.0296100616e+01
    9.2599098206e+01    1.0317601204e+01
    9.2699005127e+01    1.0338899612e+01
    9.2799041748e+01    1.0360098839e+01
    9.2899116516e+01    1.0381099701e+01
    9.2999008179e+01    1.0402100563e+01
    9.3099113464e+01    1.0422801018e+01
    9.3199012756e+01    1.0443400383e+01
    9.3299034119e+01    1.0463900566e+01
    9.3399032593e+01    1.0484199524e+01
    9.3499137878e+01    1.0504500389e+01
    9.3599136353e+01    1.0524700165e+01
    9.3699119568e+01    1.0544699669e+01
    9.3798965454e+01    1.0564599037e+01
    9.3899009705e+01    1.0584399223e+01
    9.3998992920e+01    1.0604000092e+01
    9.4099067688e+01    1.0623500824e+01
    9.4199058533e+01    1.0642900467e+01
    9.4298950195e+01    1.0662101746e+01
    9.4398979187e+01    1.0681100845e+01
    9.4499099731e+01    1.0700099945e+01
    9.4599098206e+01    1.0718900681e+01
    9.4699066162e+01    1.0737499237e+01
    9.4798995972e+01    1.0756099701e+01
    9.4898948669e+01    1.0774499893e+01
    9.4998939514e+01    1.0792699814e+01
    9.5099014282e+01    1.0810901642e+01
    9.5198974609e+01    1.0828800201e+01
    9.5298995972e+01    1.0846799850e+01
    9.5399063110e+01    1.0864398956e+01
    9.5499069214e+01    1.0882099152e+01
    9.5598960876e+01    1.0899499893e+01
    9.5698982239e+01    1.0916898727e+01
    9.5799026489e+01    1.0934200287e+01
    9.5899078369e+01    1.0951200485e+01
    9.5998947144e+01    1.0968200684e+01
    9.6098976135e+01    1.0985000610e+01
    9.6198974609e+01    1.1001798630e+01
    9.6299003601e+01    1.1018199921e+01
    9.6399070740e+01    1.1034601212e+01
    9.6498947144e+01    1.1050800323e+01
    9.6598953247e+01    1.1066900253e+01
    9.6698928833e+01    1.1082698822e+01
    9.6799049377e+01    1.1098499298e+01
    9.6898971558e+01    1.1114101410e+01
    9.6999076843e+01    1.1129598618e+01
    9.7098937988e+01    1.1144998550e+01
    9.7198974609e+01    1.1160299301e+01
    9.7298912048e+01    1.1175399780e+01
    9.7399055481e+01    1.1190401077e+01
    9.7499008179e+01    1.1205200195e+01
    9.7598922729e+01    1.1220001221e+01
    9.7698928833e+01    1.1234600067e+01
    9.7799018860e+01    1.1249099731e+01
    9.7899002075e+01    1.1263599396e+01
    9.7998908997e+01    1.1277799606e+01
    9.8098945618e+01    1.1291999817e+01
    9.8198989868e+01    1.1306100845e+01
    9.8298927307e+01    1.1319999695e+01
    9.8399032593e+01    1.1333799362e+01
    9.8498947144e+01    1.1347299576e+01
    9.8599029541e+01    1.1360900879e+01
    9.8698898315e+01    1.1374300003e+01
    9.8798881531e+01    1.1387500763e+01
    9.8899024963e+01    1.1400600433e+01
    9.8998886108e+01    1.1413599014e+01
    9.9098922729e+01    1.1426500320e+01
    9.9199020386e+01    1.1439300537e+01
    9.9299049377e+01    1.1452001572e+01
    9.9398948669e+01    1.1464500427e+01
    9.9498939514e+01    1.1476900101e+01
    9.9598899841e+01    1.1489200592e+01
    9.9698875427e+01    1.1501399994e+01
    9.9798973083e+01    1.1513399124e+01
    9.9898933411e+01    1.1525300980e+01
    9.9998931885e+01    1.1537099838e+01
    1.0009902954e+02    1.1566299438e+01
    1.0019895935e+02    1.1595300674e+01
    1.0029888916e+02    1.1624300003e+01
    1.0039891815e+02    1.1653299332e+01
    1.0049889374e+02    1.1681900024e+01
    1.0059890747e+02    1.1710599899e+01
    1.0069886017e+02    1.1739099503e+01
    1.0079886627e+02    1.1767398834e+01
    1.0089900970e+02    1.1795698166e+01
    1.0099894714e+02    1.1823701859e+01
    1.0109899139e+02    1.1851699829e+01
    1.0119901276e+02    1.1879501343e+01
    1.0129894257e+02    1.1907299042e+01
    1.0139893341e+02    1.1935001373e+01
    1.0149890137e+02    1.1962598801e+01
    1.0159886932e+02    1.1990201950e+01
    1.0169893646e+02    1.2017599106e+01
    1.0179895020e+02    1.2044900894e+01
    1.0189888000e+02    1.2072198868e+01
    1.0199893188e+02    1.2099300385e+01
    1.0209889221e+02    1.2126100540e+01
    1.0219882965e+02    1.2152902603e+01
    1.0229891968e+02    1.2179498672e+01
    1.0239894867e+02    1.2206100464e+01
    1.0249891663e+02    1.2232398987e+01
    1.0259889984e+02    1.2258600235e+01
    1.0269891357e+02    1.2284698486e+01
    1.0279884338e+02    1.2310600281e+01
    1.0289882660e+02    1.2336399078e+01
    1.0299896240e+02    1.2361999512e+01
    1.0309884644e+02    1.2387498856e+01
    1.0319883728e+02    1.2412799835e+01
    1.0329885864e+02    1.2437997818e+01
    1.0339890289e+02    1.2463100433e+01
    1.0349893188e+02    1.2487998962e+01
    1.0359889221e+02    1.2512899399e+01
    1.0369889832e+02    1.2537700653e+01
    1.0379881287e+02    1.2562200546e+01
    1.0389884186e+02    1.2586801529e+01
    1.0399883270e+02    1.2611200333e+01
    1.0409895325e+02    1.2635400772e+01
    1.0419892883e+02    1.2659399033e+01
    1.0429884338e+02    1.2683401108e+01
    1.0439891815e+02    1.2707199097e+01
    1.0449884796e+02    1.2730701447e+01
    1.0459883881e+02    1.2754199982e+01
    1.0469892883e+02    1.2777599335e+01
    1.0479882050e+02    1.2800798416e+01
    1.0489888000e+02    1.2824001312e+01
    1.0499884796e+02    1.2846799850e+01
    1.0509893036e+02    1.2869800568e+01
    1.0519892883e+02    1.2892402649e+01
    1.0529891205e+02    1.2915000916e+01
    1.0539888000e+02    1.2937398911e+01
    1.0549889374e+02    1.2959699631e+01
    1.0559893799e+02    1.2981901169e+01
    1.0569888306e+02    1.3003999710e+01
    1.0579888153e+02    1.3025901794e+01
    1.0589882660e+02    1.3047599792e+01
    1.0599890137e+02    1.3069198608e+01
    1.0609880829e+02    1.3090801239e+01
    1.0619891357e+02    1.3112100601e+01
    1.0629891968e+02    1.3133298874e+01
    1.0639891815e+02    1.3154401779e+01
    1.0649886322e+02    1.3175199509e+01
    1.0659889984e+02    1.3195901871e+01
    1.0669886780e+02    1.3216400146e+01
    1.0679878998e+02    1.3236799240e+01
    1.0689890289e+02    1.3257099152e+01
    1.0699884033e+02    1.3277202606e+01
    1.0709887695e+02    1.3297298431e+01
    1.0719886017e+02    1.3317201614e+01
    1.0729892731e+02    1.3336997986e+01
    1.0739888000e+02    1.3356599808e+01
    1.0749880981e+02    1.3376100540e+01
    1.0759884644e+02    1.3395500183e+01
    1.0769880676e+02    1.3414798737e+01
    1.0779876709e+02    1.3434001923e+01
    1.0789891052e+02    1.3452999115e+01
    1.0799880981e+02    1.3472000122e+01
    1.0809876251e+02    1.3490798950e+01
    1.0819879150e+02    1.3509401321e+01
    1.0829882812e+02    1.3527997971e+01
    1.0839884949e+02    1.3546400070e+01
    1.0849874878e+02    1.3564699173e+01
    1.0859873199e+02    1.3582901001e+01
    1.0869891357e+02    1.3600902557e+01
    1.0879885101e+02    1.3618799210e+01
    1.0889880371e+02    1.3636501312e+01
    1.0899874878e+02    1.3654199600e+01
    1.0909882355e+02    1.3671800613e+01
    1.0919873810e+02    1.3689100266e+01
    1.0929882050e+02    1.3706401825e+01
    1.0939888763e+02    1.3723598480e+01
    1.0949877930e+02    1.3740701675e+01
    1.0959877777e+02    1.3757699966e+01
    1.0969877625e+02    1.3774600983e+01
    1.0979876709e+02    1.3791399002e+01
    1.0989875793e+02    1.3808000565e+01
    1.0999880219e+02    1.3824598312e+01
    1.1009886169e+02    1.3862199783e+01
    1.1019870758e+02    1.3899900436e+01
    1.1029881287e+02    1.3937601089e+01
    1.1039881897e+02    1.3975299835e+01
    1.1049880981e+02    1.4012802124e+01
    1.1059874725e+02    1.4050201416e+01
    1.1069873810e+02    1.4087499619e+01
    1.1079885101e+02    1.4124700546e+01
    1.1089878082e+02    1.4161800385e+01
    1.1099881744e+02    1.4198698044e+01
    1.1109870911e+02    1.4235597610e+01
    1.1119877625e+02    1.4272499084e+01
    1.1129882050e+02    1.4309198380e+01
    1.1139884186e+02    1.4346000671e+01
    1.1149875641e+02    1.4382598877e+01
    1.1159871674e+02    1.4419099808e+01
    1.1169876862e+02    1.4455600739e+01
    1.1179882050e+02    1.4491998672e+01
    1.1189884186e+02    1.4528301239e+01
    1.1199886322e+02    1.4564498901e+01
    1.1209867859e+02    1.4600400925e+01
    1.1219873810e+02    1.4636402130e+01
    1.1229868317e+02    1.4672000885e+01
    1.1239874268e+02    1.4707698822e+01
    1.1249874115e+02    1.4743202209e+01
    1.1259877014e+02    1.4778600693e+01
    1.1269883728e+02    1.4813898087e+01
    1.1279879761e+02    1.4849000931e+01
    1.1289877319e+02    1.4883998871e+01
    1.1299874878e+02    1.4918699265e+01
    1.1309880829e+02    1.4953399658e+01
    1.1319882965e+02    1.4987998962e+01
    1.1329881287e+02    1.5022300720e+01
    1.1339878845e+02    1.5056600571e+01
    1.1349877930e+02    1.5090799332e+01
    1.1359870148e+02    1.5124797821e+01
    1.1369879150e+02    1.5158800125e+01
    1.1379875946e+02    1.5192699432e+01
    1.1389871216e+02    1.5226400375e+01
    1.1399874115e+02    1.5260000229e+01
    1.1409877014e+02    1.5293397903e+01
    1.1419879913e+02    1.5326799393e+01
    1.1429881287e+02    1.5359899521e+01
    1.1439880371e+02    1.5392900467e+01
    1.1449871063e+02    1.5425800323e+01
    1.1459874725e+02    1.5458599091e+01
    1.1469879913e+02    1.5491401672e+01
    1.1479876709e+02    1.5524099350e+01
    1.1489865112e+02    1.5556600571e+01
    1.1499873352e+02    1.5589200974e+01
    1.1509873962e+02    1.5621799469e+01
    1.1519866180e+02    1.5654298782e+01
    1.1529866028e+02    1.5686700821e+01
    1.1539875031e+02    1.5719200134e+01
    1.1549871063e+02    1.5751598358e+01
    1.1559868622e+02    1.5784002304e+01
    1.1569869232e+02    1.5816400528e+01
    1.1579863739e+02    1.5848798752e+01
    1.1589862823e+02    1.5881101608e+01
    1.1599868774e+02    1.5913497925e+01
    1.1609874725e+02    1.5945701599e+01
    1.1619870758e+02    1.5977901459e+01
    1.1629866028e+02    1.6009899139e+01
    1.1639874268e+02    1.6041999817e+01
    1.1649867249e+02    1.6073799133e+01
    1.1659861755e+02    1.6105499268e+01
    1.1669870758e+02    1.6137100220e+01
    1.1679865265e+02    1.6168598175e+01
    1.1689875031e+02    1.6200099945e+01
    1.1699867249e+02    1.6231300354e+01
    1.1709877014e+02    1.6262500763e+01
    1.1719859314e+02    1.6293598175e+01
    1.1729872131e+02    1.6324600220e+01
    1.1739877319e+02    1.6355400085e+01
    1.1749864197e+02    1.6386199951e+01
    1.1759870148e+02    1.6416900635e+01
    1.1769869995e+02    1.6447498322e+01
    1.1779873657e+02    1.6477901459e+01
    1.1789877319e+02    1.6508499146e+01
    1.1799870300e+02    1.6538799286e+01
    1.1809868622e+02    1.6569099426e+01
    1.1819867706e+02    1.6599399567e+01
    1.1829869080e+02    1.6629596710e+01
    1.1839862061e+02    1.6659801483e+01
    1.1849871826e+02    1.6689998627e+01
    1.1859860992e+02    1.6719997406e+01
    1.1869872284e+02    1.6750099182e+01
    1.1879862213e+02    1.6779998779e+01
    1.1889861298e+02    1.6809799194e+01
    1.1899871063e+02    1.6839797974e+01
    1.1909858704e+02    1.6869598389e+01
    1.1919867706e+02    1.6899501801e+01
    1.1929872131e+02    1.6929298401e+01
    1.1939861298e+02    1.6958999634e+01
    1.1949868774e+02    1.6988700867e+01
    1.1959864044e+02    1.7018398285e+01
    1.1969863129e+02    1.7048000336e+01
    1.1979869843e+02    1.7077598572e+01
    1.1989866638e+02    1.7107200623e+01
    1.1999858093e+02    1.7136699677e+01
    1.2009867859e+02    1.7189601898e+01
    1.2019856262e+02    1.7242599487e+01
    1.2029869843e+02    1.7295700073e+01
    1.2039855957e+02    1.7348598480e+01
    1.2049855804e+02    1.7401699066e+01
    1.2059868622e+02    1.7454898834e+01
    1.2069870758e+02    1.7507900238e+01
    1.2079866791e+02    1.7560897827e+01
    1.2089855194e+02    1.7613700867e+01
    1.2099855042e+02    1.7666603088e+01
    1.2109855652e+02    1.7719501495e+01
    1.2119862366e+02    1.7772296906e+01
    1.2129860687e+02    1.7825199127e+01
    1.2139871216e+02    1.7878101349e+01
    1.2149852753e+02    1.7930801392e+01
    1.2159870148e+02    1.7983699799e+01
    1.2169860077e+02    1.8036499023e+01
    1.2179860687e+02    1.8089199066e+01
    1.2189859009e+02    1.8141799927e+01
    1.2199865723e+02    1.8194400787e+01
    1.2209867859e+02    1.8246799469e+01
    1.2219856262e+02    1.8299098969e+01
    1.2229859161e+02    1.8351299286e+01
    1.2239865875e+02    1.8403598785e+01
    1.2249858856e+02    1.8455600739e+01
    1.2259868622e+02    1.8507698059e+01
    1.2269857788e+02    1.8559501648e+01
    1.2279862213e+02    1.8611400604e+01
    1.2289856720e+02    1.8663200378e+01
    1.2299864960e+02    1.8714900970e+01
    1.2309861755e+02    1.8766403198e+01
    1.2319857025e+02    1.8817897797e+01
    1.2329866791e+02    1.8869297028e+01
    1.2339864349e+02    1.8920700073e+01
    1.2349857330e+02    1.8972000122e+01
    1.2359851074e+02    1.9023200989e+01
    1.2369857788e+02    1.9074501038e+01
    1.2379863739e+02    1.9125701904e+01
    1.2389861298e+02    1.9176902771e+01
    1.2399857330e+02    1.9227897644e+01
    1.2409866333e+02    1.9279003143e+01
    1.2419859314e+02    1.9329898834e+01
    1.2429862976e+02    1.9380699158e+01
    1.2439855957e+02    1.9431499481e+01
    1.2449858093e+02    1.9482200623e+01
    1.2459860992e+02    1.9532798767e+01
    1.2469847870e+02    1.9583396912e+01
    1.2479860687e+02    1.9634101868e+01
    1.2489862823e+02    1.9684700012e+01
    1.2499848175e+02    1.9735099792e+01
    1.2509848785e+02    1.9785598755e+01
    1.2519853210e+02    1.9836097717e+01
    1.2529847717e+02    1.9886402130e+01
    1.2539849854e+02    1.9936698914e+01
    1.2549852753e+02    1.9986900330e+01
    1.2559858704e+02    2.0037200928e+01
    1.2569860840e+02    2.0087299347e+01
    1.2579850769e+02    2.0137298584e+01
    1.2589858246e+02    2.0187301636e+01
    1.2599852753e+02    2.0237197876e+01
    1.2609851837e+02    2.0286899567e+01
    1.2619860077e+02    2.0336700439e+01
    1.2629859924e+02    2.0386398315e+01
    1.2639849854e+02    2.0435802460e+01
    1.2649848175e+02    2.0485202789e+01
    1.2659853363e+02    2.0534500122e+01
    1.2669847870e+02    2.0583599091e+01
    1.2679846954e+02    2.0632698059e+01
    1.2689852905e+02    2.0681697845e+01
    1.2699861908e+02    2.0730701447e+01
    1.2709854126e+02    2.0779399872e+01
    1.2719860840e+02    2.0828098297e+01
    1.2729846954e+02    2.0876701355e+01
    1.2739855194e+02    2.0925201416e+01
    1.2749859619e+02    2.0973598480e+01
    1.2759858704e+02    2.1021900177e+01
    1.2769860077e+02    2.1070098877e+01
    1.2779853821e+02    2.1118103027e+01
    1.2789846802e+02    2.1166099548e+01
    1.2799845123e+02    2.1214000702e+01
    1.2809846497e+02    2.1261798859e+01
    1.2819851685e+02    2.1309497833e+01
    1.2829855347e+02    2.1357299805e+01
    1.2839849854e+02    2.1404895782e+01
    1.2849847412e+02    2.1452301025e+01
    1.2859855652e+02    2.1499797821e+01
    1.2869859314e+02    2.1547100067e+01
    1.2879861450e+02    2.1594398499e+01
    1.2889855957e+02    2.1641502380e+01
    1.2899859619e+02    2.1688697815e+01
    1.2909864807e+02    2.1735702515e+01
    1.2919850159e+02    2.1782699585e+01
    1.2929866028e+02    2.1829601288e+01
    1.2939849854e+02    2.1876300812e+01
    1.2949856567e+02    2.1923095703e+01
    1.2959854126e+02    2.1969802856e+01
    1.2969856262e+02    2.2016296387e+01
    1.2979859924e+02    2.2062702179e+01
    1.2989860535e+02    2.2109096527e+01
    1.2999867249e+02    2.2155200958e+01
    1.3009855652e+02    2.2226600647e+01
    1.3019866943e+02    2.2298198700e+01
    1.3029856873e+02    2.2369697571e+01
    1.3039860535e+02    2.2441101074e+01
    1.3049873352e+02    2.2512496948e+01
    1.3059861755e+02    2.2583599091e+01
    1.3069860840e+02    2.2654602051e+01
    1.3079870605e+02    2.2725502014e+01
    1.3089869690e+02    2.2796199799e+01
    1.3099877930e+02    2.2866901398e+01
    1.3109866333e+02    2.2937301636e+01
    1.3119879150e+02    2.3007701874e+01
    1.3129873657e+02    2.3078002930e+01
    1.3139869690e+02    2.3148197174e+01
    1.3149873352e+02    2.3218402863e+01
    1.3159877014e+02    2.3288394928e+01
    1.3169868469e+02    2.3358299255e+01
    1.3179873657e+02    2.3428199768e+01
    1.3189866638e+02    2.3497798920e+01
    1.3199873352e+02    2.3567398071e+01
    1.3209867859e+02    2.3636699677e+01
    1.3219885254e+02    2.3705997467e+01
    1.3229873657e+02    2.3775001526e+01
    1.3239875793e+02    2.3843902588e+01
    1.3249885559e+02    2.3912700653e+01
    1.3259869385e+02    2.3981101990e+01
    1.3269874573e+02    2.4049503326e+01
    1.3279879761e+02    2.4117702484e+01
    1.3289883423e+02    2.4185703278e+01
    1.3299884033e+02    2.4253402710e+01
    1.3309878540e+02    2.4321002960e+01
    1.3319885254e+02    2.4388301849e+01
    1.3329884338e+02    2.4455295563e+01
    1.3339892578e+02    2.4522296906e+01
    1.3349884033e+02    2.4588996887e+01
    1.3359878540e+02    2.4655399323e+01
    1.3369877625e+02    2.4721801758e+01
    1.3379888916e+02    2.4787899017e+01
    1.3389889526e+02    2.4853797913e+01
    1.3399887085e+02    2.4919498444e+01
    1.3409890747e+02    2.4985000610e+01
    1.3419897461e+02    2.5050300598e+01
    1.3429887390e+02    2.5115303040e+01
    1.3439880371e+02    2.5180004120e+01
    1.3449896240e+02    2.5244701385e+01
    1.3459886169e+02    2.5308998108e+01
    1.3469900513e+02    2.5373302460e+01
    1.3479890442e+02    2.5437297821e+01
    1.3489892578e+02    2.5501296997e+01
    1.3499890137e+02    2.5564899445e+01
    1.3509890747e+02    2.5628299713e+01
    1.3519891357e+02    2.5691699982e+01
    1.3529893494e+02    2.5754699707e+01
    1.3539889526e+02    2.5817501068e+01
    1.3549890137e+02    2.5880199432e+01
    1.3559887695e+02    2.5942501068e+01
    1.3569897461e+02    2.6004802704e+01
    1.3579901123e+02    2.6066799164e+01
    1.3589898682e+02    2.6128601074e+01
    1.3599890137e+02    2.6190002441e+01
    1.3609898376e+02    2.6251304626e+01
    1.3619894409e+02    2.6312297821e+01
    1.3629898071e+02    2.6373096466e+01
    1.3639910889e+02    2.6433601379e+01
    1.3649894714e+02    2.6493797302e+01
    1.3659907532e+02    2.6553794861e+01
    1.3669912720e+02    2.6613494873e+01
    1.3679899597e+02    2.6672798157e+01
    1.3689895630e+02    2.6731899261e+01
    1.3699903870e+02    2.6791000366e+01
    1.3709899902e+02    2.6849601746e+01
    1.3719905090e+02    2.6908100128e+01
    1.3729899597e+02    2.6966201782e+01
    1.3739915466e+02    2.7024200439e+01
    1.3749913025e+02    2.7081802368e+01
    1.3759915161e+02    2.7139102936e+01
    1.3769909668e+02    2.7196002960e+01
    1.3779910278e+02    2.7252704620e+01
    1.3789910889e+02    2.7309303284e+01
    1.3799906921e+02    2.7365398407e+01
    1.3809921265e+02    2.7421302795e+01
    1.3819921875e+02    2.7476902008e+01
    1.3829916382e+02    2.7532096863e+01
    1.3839907837e+02    2.7587097168e+01
    1.3849917603e+02    2.7641696930e+01
    1.3859916687e+02    2.7696098328e+01
    1.3869920349e+02    2.7750198364e+01
    1.3879908752e+02    2.7803901672e+01
    1.3889912415e+02    2.7857402802e+01
    1.3899908447e+02    2.7910503387e+01
    1.3909922791e+02    2.7963600159e+01
    1.3919911194e+02    2.8016204834e+01
    1.3929922485e+02    2.8068702698e+01
    1.3939927673e+02    2.8120800018e+01
    1.3949929810e+02    2.8172702789e+01
    1.3959913635e+02    2.8224197388e+01
    1.3969929504e+02    2.8275604248e+01
    1.3979917908e+02    2.8326496124e+01
    1.3989920044e+02    2.8377098083e+01
    1.3999916077e+02    2.8427597046e+01
    1.4009925842e+02    2.8502403259e+01
    1.4019923401e+02    2.8577198029e+01
    1.4029917908e+02    2.8651500702e+01
    1.4039918518e+02    2.8725696564e+01
    1.4049929810e+02    2.8799499512e+01
    1.4059925842e+02    2.8873100281e+01
    1.4069934082e+02    2.8946403503e+01
    1.4079927063e+02    2.9019100189e+01
    1.4089927673e+02    2.9091701508e+01
    1.4099934387e+02    2.9163803101e+01
    1.4109927368e+02    2.9235599518e+01
    1.4119932556e+02    2.9307201385e+01
    1.4129925537e+02    2.9378398895e+01
    1.4139933777e+02    2.9449398041e+01
    1.4149928284e+02    2.9520004272e+01
    1.4159936523e+02    2.9590396881e+01
    1.4169929504e+02    2.9660400391e+01
    1.4179933167e+02    2.9730102539e+01
    1.4189935303e+02    2.9799396515e+01
    1.4199931335e+02    2.9868400574e+01
    1.4209941101e+02    2.9937103271e+01
    1.4219935608e+02    3.0005199432e+01
    1.4229931641e+02    3.0073101044e+01
    1.4239945984e+02    3.0140602112e+01
    1.4249943542e+02    3.0207698822e+01
    1.4259944153e+02    3.0274299622e+01
    1.4269938660e+02    3.0340599060e+01
    1.4279943848e+02    3.0406700134e+01
    1.4289932251e+02    3.0472103119e+01
    1.4299949646e+02    3.0537303925e+01
    1.4309941101e+02    3.0601898193e+01
    1.4319949341e+02    3.0666103363e+01
    1.4329942322e+02    3.0729995728e+01
    1.4339950562e+02    3.0793399811e+01
    1.4349949646e+02    3.0856502533e+01
    1.4359938049e+02    3.0919097900e+01
    1.4369952393e+02    3.0981399536e+01
    1.4379948425e+02    3.1043205261e+01
    1.4389949036e+02    3.1104698181e+01
    1.4399946594e+02    3.1165702820e+01
    1.4409941101e+02    3.1226299286e+01
    1.4419946289e+02    3.1286399841e+01
    1.4429953003e+02    3.1346103668e+01
    1.4439956665e+02    3.1405494690e+01
    1.4449946594e+02    3.1464199066e+01
    1.4459945679e+02    3.1522594452e+01
    1.4469944763e+02    3.1580799103e+01
    1.4479957581e+02    3.1638500214e+01
    1.4489962769e+02    3.1695903778e+01
    1.4499945068e+02    3.1752799988e+01
    1.4509954834e+02    3.1809402466e+01
    1.4519961548e+02    3.1865703583e+01
    1.4529960632e+02    3.1921398163e+01
    1.4539959717e+02    3.1976799011e+01
    1.4549951172e+02    3.2031799316e+01
    1.4559948730e+02    3.2086399078e+01
    1.4569955444e+02    3.2140800476e+01
    1.4579965210e+02    3.2194702148e+01
    1.4589964294e+02    3.2248100281e+01
    1.4599964905e+02    3.2301101685e+01
    1.4609959412e+02    3.2353698730e+01
    1.4619966125e+02    3.2405998230e+01
    1.4629966736e+02    3.2457702637e+01
    1.4639953613e+02    3.2508899689e+01
    1.4649963379e+02    3.2559600830e+01
    1.4659959412e+02    3.2609897614e+01
    1.4669969177e+02    3.2659797668e+01
    1.4679971313e+02    3.2709201813e+01
    1.4689965820e+02    3.2758197784e+01
    1.4699966431e+02    3.2806701660e+01
    1.4709962463e+02    3.2854804993e+01
    1.4719961548e+02    3.2902397156e+01
    1.4729971313e+02    3.2949600220e+01
    1.4739970398e+02    3.2996299744e+01
    1.4749960327e+02    3.3042495728e+01
    1.4759959412e+02    3.3088302612e+01
    1.4769967651e+02    3.3133705139e+01
    1.4779972839e+02    3.3178596497e+01
    1.4789979553e+02    3.3223098755e+01
    1.4799966431e+02    3.3267097473e+01
    1.4809965515e+02    3.3310600281e+01
    1.4819970703e+02    3.3353698730e+01
    1.4829981995e+02    3.3396606445e+01
    1.4839965820e+02    3.3438796997e+01
    1.4849980164e+02    3.3480697632e+01
    1.4859980774e+02    3.3521995544e+01
    1.4869973755e+02    3.3562995911e+01
    1.4879968262e+02    3.3603797913e+01
    1.4889970398e+02    3.3643005371e+01
    1.4899977112e+02    3.3682693481e+01
    1.4909977722e+02    3.3722099304e+01
    1.4919973755e+02    3.3761100769e+01
    1.4929983521e+02    3.3799499512e+01
    1.4939976501e+02    3.3837799072e+01
    1.4949981689e+02    3.3875404358e+01
    1.4959986877e+02    3.3912597656e+01
    1.4969989014e+02    3.3948501587e+01
    1.4979981995e+02    3.3985000610e+01
    1.4989985657e+02    3.4020904541e+01
    1.4999977112e+02    3.4056602478e+01
    1.5009980774e+02    3.4114700317e+01
    1.5019978333e+02    3.4173500061e+01
    1.5029983521e+02    3.4231697083e+01
    1.5039993286e+02    3.4289398193e+01
    1.5049981689e+02    3.4347099304e+01
    1.5059982300e+02    3.4403198242e+01
    1.5069981384e+02    3.4459800720e+01
    1.5079986572e+02    3.4515899658e+01
    1.5089996338e+02    3.4571495056e+01
    1.5099995422e+02    3.4626800537e+01
    1.5109996033e+02    3.4680603027e+01
    1.5119987488e+02    3.4735198975e+01
    1.5129997253e+02    3.4789199829e+01
    1.5139984131e+02    3.4843101501e+01
    1.5149986267e+02    3.4895301819e+01
    1.5159991455e+02    3.4948097229e+01
    1.5169996643e+02    3.5000503540e+01
    1.5179989624e+02    3.5052597046e+01
    1.5189994812e+02    3.5104003906e+01
    1.5199995422e+02    3.5154098511e+01
    1.5209996033e+02    3.5204704285e+01
    1.5219998169e+02    3.5254798889e+01
    1.5229997253e+02    3.5304496765e+01
    1.5239997864e+02    3.5353706360e+01
    1.5249992371e+02    3.5401496887e+01
    1.5260000610e+02    3.5449600220e+01
    1.5269993591e+02    3.5497497559e+01
    1.5280009460e+02    3.5544601440e+01
    1.5289999390e+02    3.5590499878e+01
    1.5299998474e+02    3.5636901855e+01
    1.5309999084e+02    3.5682701111e+01
    1.5319996643e+02    3.5728103638e+01
    1.5330006409e+02    3.5772895813e+01
    1.5339997864e+02    3.5816497803e+01
    1.5350001526e+02    3.5860397339e+01
    1.5360005188e+02    3.5903900146e+01
    1.5370013428e+02    3.5946907043e+01
    1.5380017090e+02    3.5989601135e+01
    1.5390007019e+02    3.6031005859e+01
    1.5400004578e+02    3.6072799683e+01
    1.5410003662e+02    3.6114204407e+01
    1.5420008850e+02    3.6154998779e+01
    1.5430006409e+02    3.6194404602e+01
    1.5440019226e+02    3.6234199524e+01
    1.5450003052e+02    3.6274002075e+01
    1.5460011292e+02    3.6312995911e+01
    1.5470007324e+02    3.6350799561e+01
    1.5480012512e+02    3.6388999939e+01
    1.5490022278e+02    3.6426704407e+01
    1.5500024414e+02    3.6464195251e+01
    1.5510014343e+02    3.6501502991e+01
    1.5520019531e+02    3.6538002014e+01
    1.5530018616e+02    3.6573303223e+01
    1.5540008545e+02    3.6609306335e+01
    1.5550024414e+02    3.6644500732e+01
    1.5560023499e+02    3.6679504395e+01
    1.5570021057e+02    3.6713096619e+01
    1.5580010986e+02    3.6747505188e+01
    1.5590017700e+02    3.6781196594e+01
    1.5600024414e+02    3.6814399719e+01
    1.5610029602e+02    3.6847198486e+01
    1.5620025635e+02    3.6878799438e+01
    1.5630024719e+02    3.6910797119e+01
    1.5640020752e+02    3.6942398071e+01
    1.5650024414e+02    3.6973503113e+01
    1.5660021973e+02    3.7003196716e+01
    1.5670025635e+02    3.7033302307e+01
    1.5680030823e+02    3.7062995911e+01
    1.5690031433e+02    3.7092399597e+01
    1.5700024414e+02    3.7121498108e+01
    1.5710021973e+02    3.7149101257e+01
    1.5720030212e+02    3.7177101135e+01
    1.5730026245e+02    3.7204803467e+01
    1.5740025330e+02    3.7232093811e+01
    1.5750027466e+02    3.7258003235e+01
    1.5760028076e+02    3.7284393311e+01
    1.5770037842e+02    3.7310302734e+01
    1.5780035400e+02    3.7335899353e+01
    1.5790037537e+02    3.7361099243e+01
    1.5800024414e+02    3.7385200500e+01
    1.5810035706e+02    3.7409500122e+01
    1.5820031738e+02    3.7433601379e+01
    1.5830044556e+02    3.7457099915e+01
    1.5840039062e+02    3.7480400085e+01
    1.5850033569e+02    3.7502395630e+01
    1.5860043335e+02    3.7524703979e+01
    1.5870045471e+02    3.7546897888e+01
    1.5880041504e+02    3.7568702698e+01
    1.5890046692e+02    3.7589996338e+01
    1.5900047302e+02    3.7610099792e+01
    1.5910043335e+02    3.7630897522e+01
    1.5920048523e+02    3.7651199341e+01
    1.5930041504e+02    3.7671401978e+01
    1.5940039062e+02    3.7690101624e+01
    1.5950047302e+02    3.7709304810e+01
    1.5960043335e+02    3.7728401184e+01
    1.5970042419e+02    3.7747100830e+01
    1.5980044556e+02    3.7765396118e+01
    1.5990049744e+02    3.7782302856e+01
    1.6000050354e+02    3.7799896240e+01
    1.6010040283e+02    3.7839294434e+01
    1.6020037842e+02    3.7877296448e+01
    1.6030039978e+02    3.7915802002e+01
    1.6040049744e+02    3.7953903198e+01
    1.6050053406e+02    3.7991699219e+01
    1.6060058594e+02    3.8029197693e+01
    1.6070048523e+02    3.8065597534e+01
    1.6080049133e+02    3.8102401733e+01
    1.6090060425e+02    3.8138694763e+01
    1.6100056458e+02    3.8173896790e+01
    1.6110046387e+02    3.8209899902e+01
    1.6120057678e+02    3.8245201111e+01
    1.6130053711e+02    3.8279502869e+01
    1.6140049744e+02    3.8314498901e+01
    1.6150047302e+02    3.8348197937e+01
    1.6160058594e+02    3.8382209778e+01
    1.6170053101e+02    3.8416297913e+01
    1.6180052185e+02    3.8450004578e+01
    1.6190049744e+02    3.8482505798e+01
    1.6200065613e+02    3.8515098572e+01
    1.6210052490e+02    3.8548103333e+01
    1.6220053101e+02    3.8579498291e+01
    1.6230056763e+02    3.8611396790e+01
    1.6240063477e+02    3.8642997742e+01
    1.6250053406e+02    3.8673599243e+01
    1.6260067749e+02    3.8704307556e+01
    1.6270054626e+02    3.8735298157e+01
    1.6280070496e+02    3.8765403748e+01
    1.6290061951e+02    3.8794601440e+01
    1.6300067139e+02    3.8824195862e+01
    1.6310061646e+02    3.8853599548e+01
    1.6320060730e+02    3.8881500244e+01
    1.6330059814e+02    3.8910209656e+01
    1.6340063477e+02    3.8938400269e+01
    1.6350068665e+02    3.8965301514e+01
    1.6360063171e+02    3.8993103027e+01
    1.6370066833e+02    3.9020294189e+01
    1.6380072021e+02    3.9047302246e+01
    1.6390072632e+02    3.9073005676e+01
    1.6400071716e+02    3.9099395752e+01
    1.6410064697e+02    3.9124694824e+01
    1.6420063782e+02    3.9150596619e+01
    1.6430072021e+02    3.9175903320e+01
    1.6440071106e+02    3.9201194763e+01
    1.6450065613e+02    3.9225296021e+01
    1.6460070801e+02    3.9249801636e+01
    1.6470083618e+02    3.9273994446e+01
    1.6480068970e+02    3.9297492981e+01
    1.6490072632e+02    3.9321403503e+01
    1.6500082397e+02    3.9344795227e+01
    1.6510078430e+02    3.9367309570e+01
    1.6520083618e+02    3.9390296936e+01
    1.6530081177e+02    3.9413208008e+01
    1.6540074158e+02    3.9434806824e+01
    1.6550079346e+02    3.9456893921e+01
    1.6560081482e+02    3.9478805542e+01
    1.6570071411e+02    3.9499801636e+01
    1.6580085754e+02    3.9520790100e+01
    1.6590084839e+02    3.9541999817e+01
    1.6600079346e+02    3.9563003540e+01
    1.6610087585e+02    3.9582405090e+01
    1.6620080566e+02    3.9602897644e+01
    1.6630082703e+02    3.9622802734e+01
    1.6640077209e+02    3.9641700745e+01
    1.6650077820e+02    3.9660995483e+01
    1.6660089111e+02    3.9680000305e+01
    1.6670089722e+02    3.9698989868e+01
    1.6680081177e+02    3.9717010498e+01
    1.6690092468e+02    3.9735000610e+01
    1.6700082397e+02    3.9752998352e+01
    1.6710096741e+02    3.9770004272e+01
    1.6720083618e+02    3.9787994385e+01
    1.6730088806e+02    3.9805999756e+01
    1.6740093994e+02    3.9822006226e+01
    1.6750094604e+02    3.9838996887e+01
    1.6760084534e+02    3.9855003357e+01
    1.6770088196e+02    3.9871002197e+01
    1.6780085754e+02    3.9887008667e+01
    1.6790100098e+02    3.9902000427e+01
    1.6800091553e+02    3.9916999817e+01
    1.6810095215e+02    3.9933006287e+01
    1.6820097351e+02    3.9947998047e+01
    1.6830091858e+02    3.9961997986e+01
    1.6840100098e+02    3.9975997925e+01
    1.6850091553e+02    3.9990989685e+01
    1.6860095215e+02    4.0004997253e+01
    1.6870094299e+02    4.0017997742e+01
    1.6880099487e+02    4.0032005310e+01
    1.6890107727e+02    4.0044998169e+01
    1.6900109863e+02    4.0059005737e+01
    1.6910104370e+02    4.0070999146e+01
    1.6920100403e+02    4.0083992004e+01
    1.6930096436e+02    4.0095993042e+01
    1.6940095520e+02    4.0109001160e+01
    1.6950094604e+02    4.0121009827e+01
    1.6960098267e+02    4.0133003235e+01
    1.6970108032e+02    4.0144996643e+01
    1.6980099487e+02    4.0157005310e+01
    1.6990109253e+02    4.0167999268e+01
    1.7000100708e+02    4.0178993225e+01
    1.7010107422e+02    4.0210998535e+01
    1.7020101929e+02    4.0241004944e+01
    1.7030110168e+02    4.0273002625e+01
    1.7040118408e+02    4.0303001404e+01
    1.7050117493e+02    4.0333992004e+01
    1.7060102844e+02    4.0364006042e+01
    1.7070103455e+02    4.0394004822e+01
    1.7080108643e+02    4.0423995972e+01
    1.7090107727e+02    4.0453994751e+01
    1.7100103760e+02    4.0483001709e+01
    1.7110122681e+02    4.0512001038e+01
    1.7120114136e+02    4.0540992737e+01
    1.7130107117e+02    4.0571006775e+01
    1.7140122986e+02    4.0598999023e+01
    1.7150117493e+02    4.0627998352e+01
    1.7160116577e+02    4.0655990601e+01
    1.7170111084e+02    4.0685005188e+01
    1.7180110168e+02    4.0712997437e+01
    1.7190113831e+02    4.0740997314e+01
    1.7200114441e+02    4.0769004822e+01
    1.7210112000e+02    4.0796005249e+01
    1.7220124817e+02    4.0822998047e+01
    1.7230122375e+02    4.0850990295e+01
    1.7240118408e+02    4.0878005981e+01
    1.7250115967e+02    4.0904998779e+01
    1.7260125732e+02    4.0931999207e+01
    1.7270121765e+02    4.0957008362e+01
    1.7280128479e+02    4.0983993530e+01
    1.7290121460e+02    4.1010002136e+01
    1.7300120544e+02    4.1036003113e+01
    1.7310127258e+02    4.1060997009e+01
    1.7320126343e+02    4.1087005615e+01
    1.7330123901e+02    4.1111000061e+01
    1.7340136719e+02    4.1135993958e+01
    1.7350125122e+02    4.1160995483e+01
    1.7360122681e+02    4.1185005188e+01
    1.7370132446e+02    4.1208999634e+01
    1.7380130005e+02    4.1232994080e+01
    1.7390130615e+02    4.1257003784e+01
    1.7400138855e+02    4.1279998779e+01
    1.7410134888e+02    4.1303993225e+01
    1.7420135498e+02    4.1326995850e+01
    1.7430131531e+02    4.1350006104e+01
    1.7440138245e+02    4.1373001099e+01
    1.7450137329e+02    4.1395996094e+01
    1.7460137939e+02    4.1418006897e+01
    1.7470144653e+02    4.1441993713e+01
    1.7480131531e+02    4.1462997437e+01
    1.7490141296e+02    4.1485008240e+01
    1.7500131226e+02    4.1507003784e+01
    1.7510133362e+02    4.1528999329e+01
    1.7520135498e+02    4.1549995422e+01
    1.7530143738e+02    4.1571998596e+01
    1.7540148926e+02    4.1592994690e+01
    1.7550134277e+02    4.1612998962e+01
    1.7560150146e+02    4.1635002136e+01
    1.7570135498e+02    4.1654991150e+01
    1.7580134583e+02    4.1676002502e+01
    1.7590138245e+02    4.1695999146e+01
    1.7600149536e+02    4.1715995789e+01
    1.7610136414e+02    4.1735992432e+01
    1.7620141602e+02    4.1755004883e+01
    1.7630137634e+02    4.1775001526e+01
    1.7640150452e+02    4.1793991089e+01
    1.7650152588e+02    4.1813003540e+01
    1.7660145569e+02    4.1832000732e+01
    1.7670149231e+02    4.1849998474e+01
    1.7680145264e+02    4.1869010925e+01
    1.7690144348e+02    4.1887001038e+01
    1.7700144958e+02    4.1904998779e+01
    1.7710153198e+02    4.1922996521e+01
    1.7720158386e+02    4.1940002441e+01
    1.7730151367e+02    4.1958000183e+01
    1.7740153503e+02    4.1974998474e+01
    1.7750146484e+02    4.1992004395e+01
    1.7760145569e+02    4.2009002686e+01
    1.7770161438e+02    4.2026008606e+01
    1.7780151367e+02    4.2041992188e+01
    1.7790161133e+02    4.2058998108e+01
    1.7800149536e+02    4.2073997498e+01
    1.7810151672e+02    4.2089996338e+01
    1.7820158386e+02    4.2107002258e+01
    1.7830154419e+02    4.2121994019e+01
    1.7840161133e+02    4.2137008667e+01
    1.7850158691e+02    4.2152999878e+01
    1.7860151672e+02    4.2167999268e+01
    1.7870167542e+02    4.2182006836e+01
    1.7880162048e+02    4.2197006226e+01
    1.7890161133e+02    4.2212005615e+01
    1.7900164795e+02    4.2225997925e+01
    1.7910169983e+02    4.2240005493e+01
    1.7920173645e+02    4.2253997803e+01
    1.7930171204e+02    4.2267990112e+01
    1.7940173340e+02    4.2282012939e+01
    1.7950172424e+02    4.2294998169e+01
    1.7960163879e+02    4.2309005737e+01
    1.7970161438e+02    4.2321990967e+01
    1.7980163574e+02    4.2335006714e+01
    1.7990171814e+02    4.2347000122e+01
    1.8000169373e+02    4.2361007690e+01
    1.8010169983e+02    4.2389999390e+01
    1.8020170593e+02    4.2419998169e+01
    1.8030168152e+02    4.2449005127e+01
    1.8040162659e+02    4.2477996826e+01
    1.8050178528e+02    4.2507003784e+01
    1.8060171509e+02    4.2535995483e+01
    1.8070164490e+02    4.2565002441e+01
    1.8080169678e+02    4.2593002319e+01
    1.8090168762e+02    4.2622009277e+01
    1.8100175476e+02    4.2649993896e+01
    1.8110174561e+02    4.2678009033e+01
    1.8120179749e+02    4.2705001831e+01
    1.8130183411e+02    4.2733001709e+01
    1.8140180969e+02    4.2760009766e+01
    1.8150175476e+02    4.2787002563e+01
    1.8160176086e+02    4.2815002441e+01
    1.8170187378e+02    4.2841995239e+01
    1.8180172729e+02    4.2868988037e+01
    1.8190174866e+02    4.2895004272e+01
    1.8200172424e+02    4.2922012329e+01
    1.8210182190e+02    4.2947006226e+01
    1.8220178223e+02    4.2973999023e+01
    1.8230181885e+02    4.2998992920e+01
    1.8240179443e+02    4.3024993896e+01
    1.8250190735e+02    4.3049011230e+01
    1.8260176086e+02    4.3074005127e+01
    1.8270184326e+02    4.3098999023e+01
    1.8280178833e+02    4.3122985840e+01
    1.8290185547e+02    4.3147994995e+01
    1.8300178528e+02    4.3171997070e+01
    1.8310194397e+02    4.3195999146e+01
    1.8320190430e+02    4.3220001221e+01
    1.8330183411e+02    4.3242996216e+01
    1.8340191650e+02    4.3264999390e+01
    1.8350190735e+02    4.3289001465e+01
    1.8360188293e+02    4.3311004639e+01
    1.8370193481e+02    4.3333999634e+01
    1.8380186462e+02    4.3356002808e+01
    1.8390191650e+02    4.3378005981e+01
    1.8400201416e+02    4.3398986816e+01
    1.8410185242e+02    4.3419998169e+01
    1.8420190430e+02    4.3442001343e+01
    1.8430201721e+02    4.3462997437e+01
    1.8440197754e+02    4.3483993530e+01
    1.8450190735e+02    4.3504013062e+01
    1.8460202026e+02    4.3524993896e+01
    1.8470191956e+02    4.3544006348e+01
    1.8480191040e+02    4.3565002441e+01
    1.8490203857e+02    4.3583999634e+01
    1.8500205994e+02    4.3604003906e+01
    1.8510206604e+02    4.3622009277e+01
    1.8520199585e+02    4.3641998291e+01
    1.8530194092e+02    4.3660003662e+01
    1.8540205383e+02    4.3679000854e+01
    1.8550207520e+02    4.3696990967e+01
    1.8560209656e+02    4.3714996338e+01
    1.8570213318e+02    4.3732009888e+01
    1.8580212402e+02    4.3750000000e+01
    1.8590200806e+02    4.3766998291e+01
    1.8600199890e+02    4.3783996582e+01
    1.8610209656e+02    4.3800994873e+01
    1.8620199585e+02    4.3817001343e+01
    1.8630201721e+02    4.3833999634e+01
    1.8640213013e+02    4.3848999023e+01
    1.8650204468e+02    4.3865005493e+01
    1.8660205078e+02    4.3879989624e+01
    1.8670202637e+02    4.3895004272e+01
    1.8680203247e+02    4.3910003662e+01
    1.8690208435e+02    4.3925003052e+01
    1.8700204468e+02    4.3938995361e+01
    1.8710205078e+02    4.3952987671e+01
    1.8720210266e+02    4.3966995239e+01
    1.8730221558e+02    4.3979995728e+01
    1.8740209961e+02    4.3993011475e+01
    1.8750212097e+02    4.4005996704e+01
    1.8760206604e+02    4.4018997192e+01
    1.8770219421e+02    4.4030990601e+01
    1.8780215454e+02    4.4042999268e+01
    1.8790219116e+02    4.4054000854e+01
    1.8800216675e+02    4.4066009521e+01
    1.8810223389e+02    4.4076995850e+01
    1.8820225525e+02    4.4087997437e+01
    1.8830218506e+02    4.4098999023e+01
    1.8840226746e+02    4.4110000610e+01
    1.8850219727e+02    4.4120010376e+01
    1.8860217285e+02    4.4128997803e+01
    1.8870216370e+02    4.4138992310e+01
    1.8880218506e+02    4.4147994995e+01
    1.8890214539e+02    4.4157989502e+01
    1.8900215149e+02    4.4166000366e+01
    1.8910215759e+02    4.4175003052e+01
    1.8920225525e+02    4.4182998657e+01
    1.8930218506e+02    4.4190994263e+01
    1.8940223694e+02    4.4197998047e+01
    1.8950221252e+02    4.4205993652e+01
    1.8960218811e+02    4.4212997437e+01
    1.8970223999e+02    4.4218994141e+01
    1.8980230713e+02    4.4225997925e+01
    1.8990228271e+02    4.4232009888e+01
    1.9000233459e+02    4.4237991333e+01
    1.9010226440e+02    4.4259002686e+01
    1.9020223999e+02    4.4278991699e+01
    1.9030227661e+02    4.4298995972e+01
    1.9040235901e+02    4.4318008423e+01
    1.9050224304e+02    4.4336990356e+01
    1.9060235596e+02    4.4356002808e+01
    1.9070237732e+02    4.4373992920e+01
    1.9080236816e+02    4.4393005371e+01
    1.9090226746e+02    4.4410003662e+01
    1.9100228882e+02    4.4429000854e+01
    1.9110241699e+02    4.4445999146e+01
    1.9120243835e+02    4.4462005615e+01
    1.9130244446e+02    4.4478988647e+01
    1.9140238953e+02    4.4495010376e+01
    1.9150233459e+02    4.4511001587e+01
    1.9160244751e+02    4.4527999878e+01
    1.9170233154e+02    4.4543014526e+01
    1.9180238342e+02    4.4557998657e+01
    1.9190237427e+02    4.4572998047e+01
    1.9200245667e+02    4.4587005615e+01
    1.9210235596e+02    4.4601989746e+01
    1.9220248413e+02    4.4615997314e+01
    1.9230247498e+02    4.4628997803e+01
    1.9240240479e+02    4.4642990112e+01
    1.9250245667e+02    4.4654998779e+01
    1.9260237122e+02    4.4667999268e+01
    1.9270245361e+02    4.4679992676e+01
    1.9280247498e+02    4.4690994263e+01
    1.9290240479e+02    4.4702987671e+01
    1.9300241089e+02    4.4714004517e+01
    1.9310252380e+02    4.4725006104e+01
    1.9320243835e+02    4.4735000610e+01
    1.9330244446e+02    4.4745010376e+01
    1.9340243530e+02    4.4753997803e+01
    1.9350259399e+02    4.4763992310e+01
    1.9360255432e+02    4.4773010254e+01
    1.9370251465e+02    4.4781005859e+01
    1.9380259705e+02    4.4789001465e+01
    1.9390254211e+02    4.4796997070e+01
    1.9400248718e+02    4.4804000854e+01
    1.9410249329e+02    4.4811004639e+01
    1.9420245361e+02    4.4817993164e+01
    1.9430261230e+02    4.4824005127e+01
    1.9440264893e+02    4.4830001831e+01
[...]
    2.5130595398e+02    1.6019989014e+01
    2.5140606689e+02    1.5941009521e+01
    2.5150596619e+02    1.5859985352e+01
    2.5160598755e+02    1.5779998779e+01
    2.5170597839e+02    1.5699005127e+01
    2.5180607605e+02    1.5618011475e+01
    2.5190611267e+02    1.5536987305e+01
    2.5200613403e+02    1.5455993652e+01
    2.5210612488e+02    1.5375000000e+01
    2.5220610046e+02    1.5292999268e+01
    2.5230607605e+02    1.5212005615e+01
    2.5240609741e+02    1.5130981445e+01
    2.5250605774e+02    1.5049011230e+01
    2.5260615540e+02    1.4967010498e+01
    2.5270603943e+02    1.4884979248e+01
    2.5280610657e+02    1.4802001953e+01
    2.5290620422e+02    1.4721008301e+01
    2.5300619507e+02    1.4636993408e+01
    2.5310609436e+02    1.4554992676e+01
    2.5320610046e+02    1.4471984863e+01
    2.5330616760e+02    1.4389007568e+01
    2.5340623474e+02    1.4305999756e+01
    2.5350616455e+02    1.4221984863e+01
    2.5360612488e+02    1.4138977051e+01
    2.5370620728e+02    1.4054992676e+01
    2.5380616760e+02    1.3971984863e+01
    2.5390620422e+02    1.3888000488e+01
    2.5400616455e+02    1.3804992676e+01
    2.5410627747e+02    1.3720001221e+01
    2.5420620728e+02    1.3635986328e+01
    2.5430621338e+02    1.3550994873e+01
    2.5440629578e+02    1.3466979980e+01
    2.5450621033e+02    1.3381988525e+01
    2.5460627747e+02    1.3298004150e+01
    2.5470625305e+02    1.3212982178e+01
    2.5480618286e+02    1.3127014160e+01
    2.5490620422e+02    1.3041992188e+01
    2.5500628662e+02    1.2957000732e+01
    2.5510633850e+02    1.2870971680e+01
    2.5520620728e+02    1.2785980225e+01
    2.5530636597e+02    1.2699981689e+01
    2.5540626526e+02    1.2614013672e+01
    2.5550633240e+02    1.2528015137e+01
    2.5560621643e+02    1.2443023682e+01
    2.5570634460e+02    1.2356018066e+01
    2.5580627441e+02    1.2269989014e+01
    2.5590638733e+02    1.2182983398e+01
    2.5600625610e+02    1.2097015381e+01
    2.5610635376e+02    1.2010009766e+01
    2.5620623779e+02    1.1924011230e+01
    2.5630630493e+02    1.1837005615e+01
    2.5640640259e+02    1.1749023438e+01
    2.5650637817e+02    1.1662017822e+01
    2.5660641479e+02    1.1575012207e+01
    2.5670635986e+02    1.1486999512e+01
    2.5680627441e+02    1.1399993896e+01
    2.5690640259e+02    1.1312011719e+01
    2.5700634766e+02    1.1225006104e+01
    2.5710638428e+02    1.1138000488e+01
    2.5720635986e+02    1.1050018311e+01
    2.5730630493e+02    1.0960998535e+01
    2.5740634155e+02    1.0873016357e+01
    2.5750640869e+02    1.0785003662e+01
    2.5760638428e+02    1.0697021484e+01
    2.5770632935e+02    1.0609008789e+01
    2.5780648804e+02    1.0520019531e+01
    2.5790649414e+02    1.0432006836e+01
    2.5800650024e+02    1.0343017578e+01
    2.5810647583e+02    1.0253997803e+01
    2.5820651245e+02    1.0165008545e+01
    2.5830654907e+02    1.0076019287e+01
    2.5840640259e+02    9.9880065918e+00
    2.5850650024e+02    9.8990173340e+00
    2.5860641479e+02    9.8089904785e+00
    2.5870645142e+02    9.7200012207e+00
    2.5880648804e+02    9.6310119629e+00
    2.5890655518e+02    9.5419921875e+00
    2.5900646973e+02    9.4530029297e+00
    2.5910650635e+02    9.3640136719e+00
    2.5920654297e+02    9.2740173340e+00
    2.5930651855e+02    9.1849975586e+00
    2.5940652466e+02    9.0939941406e+00
    2.5950643921e+02    9.0050048828e+00
    2.5960650635e+02    8.9150085449e+00
    2.5970648193e+02    8.8259887695e+00
    2.5980651855e+02    8.7359924316e+00
    2.5990649414e+02    8.6449890137e+00
    2.6000656128e+02    8.5549926758e+00
    2.6010650635e+02    8.4670104980e+00
    2.6020654297e+02    8.3770141602e+00
    2.6030661011e+02    8.2880249023e+00
    2.6040649414e+02    8.1980285645e+00
    2.6050668335e+02    8.1090087891e+00
    2.6060650635e+02    8.0199890137e+00
    2.6070657349e+02    7.9299926758e+00
    2.6080657959e+02    7.8399963379e+00
    2.6090652466e+02    7.7510070801e+00
    2.6100653076e+02    7.6609802246e+00
    2.6110650635e+02    7.5709838867e+00
    2.6120672607e+02    7.4819946289e+00
    2.6130654907e+02    7.3909912109e+00
    2.6140658569e+02    7.3009948730e+00
    2.6150656128e+02    7.2120056152e+00
    2.6160659790e+02    7.1210021973e+00
    2.6170663452e+02    7.0319824219e+00
    2.6180664062e+02    6.9409790039e+00
    2.6190667725e+02    6.8509826660e+00
    2.6200668335e+02    6.7619934082e+00
    2.6210662842e+02    6.6710205078e+00
    2.6220663452e+02    6.5800170898e+00
    2.6230664062e+02    6.4900207520e+00
    2.6240667725e+02    6.3999938965e+00
    2.6250662231e+02    6.3099975586e+00
    2.6260671997e+02    6.2189941406e+00
    2.6270663452e+02    6.1289978027e+00
    2.6280673218e+02    6.0379943848e+00
    2.6290664673e+02    5.9479980469e+00
    2.6300683594e+02    5.8580017090e+00
    2.6310665894e+02    5.7680053711e+00
    2.6320678711e+02    5.6770019531e+00
    2.6330679321e+02    5.5859985352e+00
    2.6340682983e+02    5.4960021973e+00
    2.6350677490e+02    5.4049987793e+00
    2.6360687256e+02    5.3139953613e+00
    2.6370684814e+02    5.2229919434e+00
    2.6380685425e+02    5.1329956055e+00
    2.6390673828e+02    5.0419921875e+00
    2.6400677490e+02    4.9519958496e+00
    2.6410671997e+02    4.8609924316e+00
    2.6420687866e+02    4.7700195312e+00
    2.6430682373e+02    4.6790161133e+00
    2.6440676880e+02    4.5889892578e+00
    2.6450686646e+02    4.4979858398e+00
    2.6460687256e+02    4.4070129395e+00
    2.6470687866e+02    4.3170166016e+00
    2.6480685425e+02    4.2260131836e+00
    2.6490686035e+02    4.1359863281e+00
    2.6500689697e+02    4.0449829102e+00
    2.6510687256e+02    3.9540100098e+00
    2.6520681763e+02    3.8630065918e+00
    2.6530691528e+02    3.7720031738e+00
    2.6540682983e+02    3.6820068359e+00
    2.6550686646e+02    3.5910034180e+00
    2.6560699463e+02    3.5000000000e+00
    2.6570693970e+02    3.4100036621e+00
    2.6580685425e+02    3.3200073242e+00
    2.6590698242e+02    3.2290039062e+00
    2.6600698853e+02    3.1380004883e+00
    2.6610690308e+02    3.0480041504e+00
    2.6620697021e+02    2.9570007324e+00
    2.6630700684e+02    2.8670043945e+00
    2.6640689087e+02    2.7760009766e+00
    2.6650695801e+02    2.6860046387e+00
    2.6660702515e+02    2.5950012207e+00
    2.6670687866e+02    2.5050048828e+00
    2.6680700684e+02    2.4149780273e+00
    2.6690692139e+02    2.3239746094e+00
    2.6700698853e+02    2.2340087891e+00
    2.6710699463e+02    2.1430053711e+00
    2.6720693970e+02    2.0540161133e+00
    2.6730691528e+02    1.9630126953e+00
    2.6740704346e+02    1.8730163574e+00
    2.6750692749e+02    1.7830200195e+00
    2.6760702515e+02    1.6929931641e+00
    2.6770706177e+02    1.6029968262e+00
    2.6780703735e+02    1.5119934082e+00
    2.6790695190e+02    1.4219970703e+00
    2.6800711060e+02    1.3320007324e+00
    2.6810705566e+02    1.2429809570e+00
    2.6820709229e+02    1.1539916992e+00
    2.6830703735e+02    1.0639953613e+00
    2.6840704346e+02    9.7299194336e-01
    2.6850704956e+02    8.8400268555e-01
    2.6860699463e+02    7.9400634766e-01
    2.6870715332e+02    7.0401000977e-01
    2.6880706787e+02    6.1599731445e-01
    2.6890704346e+02    5.2600097656e-01
    2.6900701904e+02    4.3698120117e-01
    2.6910717773e+02    3.4799194336e-01
    2.6920703125e+02    2.5799560547e-01
    2.6930712891e+02    1.6900634766e-01
    2.6940713501e+02    8.0017089844e-02
    2.6950717163e+02   -9.0026855469e-03
    2.6960714722e+02   -9.8999023438e-02
    2.6970715332e+02   -1.8701171875e-01
    2.6980706787e+02   -2.7600097656e-01
    2.6990716553e+02   -3.6499023438e-01
    2.7000717163e+02   -4.5498657227e-01
    2.7010708618e+02   -5.4400634766e-01
    2.7020715332e+02   -6.3500976562e-01
    2.7030725098e+02   -7.2601318359e-01
    2.7040713501e+02   -8.1497192383e-01
    2.7050726318e+02   -9.0600585938e-01
    2.7060717773e+02   -9.9499511719e-01
    2.7070715332e+02   -1.0849914551e+00
    2.7080731201e+02   -1.1760253906e+00
    2.7090728760e+02   -1.2649841309e+00
    2.7100726318e+02   -1.3549804688e+00
    2.7110723877e+02   -1.4440002441e+00
    2.7120721436e+02   -1.5350036621e+00
    2.7130715942e+02   -1.6239929199e+00
    2.7140716553e+02   -1.7129821777e+00
    2.7150723267e+02   -1.8030090332e+00
    2.7160726929e+02   -1.8919982910e+00
    2.7170730591e+02   -1.9810180664e+00
    2.7180734253e+02   -2.0699768066e+00
    2.7190734863e+02   -2.1589965820e+00
    2.7200726318e+02   -2.2480163574e+00
    2.7210733032e+02   -2.3370056152e+00
    2.7220724487e+02   -2.4259948730e+00
    2.7230737305e+02   -2.5149841309e+00
    2.7240734863e+02   -2.6029968262e+00
    2.7250735474e+02   -2.6920166016e+00
    2.7260733032e+02   -2.7799987793e+00
    2.7270727539e+02   -2.8689880371e+00
    2.7280743408e+02   -2.9570007324e+00
    2.7290740967e+02   -3.0450134277e+00
    2.7300726318e+02   -3.1320190430e+00
    2.7310729980e+02   -3.2209777832e+00
    2.7320730591e+02   -3.3079833984e+00
    2.7330728149e+02   -3.3970031738e+00
    2.7340744019e+02   -3.4840087891e+00
    2.7350732422e+02   -3.5719909668e+00
    2.7360736084e+02   -3.6589965820e+00
    2.7370733643e+02   -3.7460021973e+00
    2.7380737305e+02   -3.8340148926e+00
    2.7390734863e+02   -3.9209899902e+00
    2.7400744629e+02   -4.0079956055e+00
    2.7410745239e+02   -4.0950012207e+00
    2.7420742798e+02   -4.1809997559e+00
    2.7430743408e+02   -4.2680053711e+00
    2.7440750122e+02   -4.3549804688e+00
    2.7450741577e+02   -4.4409790039e+00
    2.7460754395e+02   -4.5270080566e+00
    2.7470755005e+02   -4.6130065918e+00
    2.7480752563e+02   -4.6990051270e+00
    2.7490750122e+02   -4.7849731445e+00
    2.7500738525e+02   -4.8710021973e+00
    2.7510754395e+02   -4.9570007324e+00
    2.7520739746e+02   -5.0420227051e+00
    2.7530749512e+02   -5.1279907227e+00
    2.7540753174e+02   -5.2129821777e+00
    2.7550747681e+02   -5.2980041504e+00
    2.7560745239e+02   -5.3829956055e+00
    2.7570751953e+02   -5.4679870605e+00
    2.7580758667e+02   -5.5529785156e+00
    2.7590750122e+02   -5.6369934082e+00
    2.7600759888e+02   -5.7220153809e+00
    2.7610748291e+02   -5.8069763184e+00
    2.7620758057e+02   -5.8909912109e+00
    2.7630749512e+02   -5.9750061035e+00
    2.7640759277e+02   -6.0590209961e+00
    2.7650750732e+02   -6.1430053711e+00
    2.7660757446e+02   -6.2259826660e+00
    2.7670764160e+02   -6.3099975586e+00
    2.7680764771e+02   -6.3940124512e+00
    2.7690750122e+02   -6.4760131836e+00
    2.7700765991e+02   -6.5600280762e+00
    2.7710763550e+02   -6.6429748535e+00
    2.7720761108e+02   -6.7250061035e+00
    2.7730755615e+02   -6.8090209961e+00
    2.7740759277e+02   -6.8919982910e+00
    2.7750759888e+02   -6.9739990234e+00
    2.7760757446e+02   -7.0559997559e+00
    2.7770761108e+02   -7.1380004883e+00
    2.7780755615e+02   -7.2200012207e+00
    2.7790768433e+02   -7.3019714355e+00
    2.7800772095e+02   -7.3840026855e+00
    2.7810757446e+02   -7.4649963379e+00
    2.7820761108e+02   -7.5469970703e+00
    2.7830770874e+02   -7.6280212402e+00
    2.7840765381e+02   -7.7099914551e+00
    2.7850775146e+02   -7.7900085449e+00
    2.7860775757e+02   -7.8710021973e+00
    2.7870761108e+02   -7.9520263672e+00
    2.7880776978e+02   -8.0329895020e+00
    2.7890774536e+02   -8.1130065918e+00
    2.7900778198e+02   -8.1940002441e+00
    2.7910778809e+02   -8.2740173340e+00
    2.7920767212e+02   -8.3530273438e+00
    2.7930770874e+02   -8.4329833984e+00
    2.7940774536e+02   -8.5130004883e+00
    2.7950775146e+02   -8.5920104980e+00
    2.7960775757e+02   -8.6710205078e+00
    2.7970770264e+02   -8.7510070801e+00
    2.7980780029e+02   -8.8289794922e+00
    2.7990771484e+02   -8.9089965820e+00
    2.8000775146e+02   -8.9880065918e+00
    2.8010769653e+02   -9.0699768066e+00
    2.8020770264e+02   -9.1519775391e+00
    2.8030786133e+02   -9.2339782715e+00
    2.8040780640e+02   -9.3159790039e+00
    2.8050772095e+02   -9.3970031738e+00
    2.8060772705e+02   -9.4779968262e+00
    2.8070779419e+02   -9.5589904785e+00
    2.8080783081e+02   -9.6399841309e+00
    2.8090774536e+02   -9.7210083008e+00
    2.8100775146e+02   -9.8020019531e+00
    2.8110781860e+02   -9.8829956055e+00
    2.8120785522e+02   -9.9620056152e+00
    2.8130795288e+02   -1.0042999268e+01
    2.8140792847e+02   -1.0122009277e+01
    2.8150793457e+02   -1.0203002930e+01
    2.8160787964e+02   -1.0282012939e+01
    2.8170779419e+02   -1.0361999512e+01
    2.8180786133e+02   -1.0441009521e+01
    2.8190789795e+02   -1.0519989014e+01
    2.8200784302e+02   -1.0598999023e+01
    2.8210781860e+02   -1.0678009033e+01
    2.8220782471e+02   -1.0755981445e+01
    2.8230786133e+02   -1.0834991455e+01
    2.8240798950e+02   -1.0912994385e+01
    2.8250793457e+02   -1.0990997314e+01
    2.8260784912e+02   -1.1069000244e+01
    2.8270785522e+02   -1.1147003174e+01
    2.8280792236e+02   -1.1223999023e+01
    2.8290798950e+02   -1.1302001953e+01
    2.8300796509e+02   -1.1377990723e+01
    2.8310787964e+02   -1.1455017090e+01
    2.8320797729e+02   -1.1532012939e+01
    2.8330792236e+02   -1.1608978271e+01
    2.8340792847e+02   -1.1685028076e+01
    2.8350796509e+02   -1.1760986328e+01
    2.8360797119e+02   -1.1837982178e+01
    2.8370797729e+02   -1.1912994385e+01
    2.8380795288e+02   -1.1989013672e+01
    2.8390792847e+02   -1.2063995361e+01
    2.8400802612e+02   -1.2139007568e+01
    2.8410809326e+02   -1.2215026855e+01
    2.8420812988e+02   -1.2289001465e+01
    2.8430807495e+02   -1.2363983154e+01
    2.8440808105e+02   -1.2439025879e+01
    2.8450802612e+02   -1.2513031006e+01
    2.8460812378e+02   -1.2587005615e+01
    2.8470797729e+02   -1.2661010742e+01
    2.8480807495e+02   -1.2735015869e+01
    2.8490814209e+02   -1.2808013916e+01
    2.8500811768e+02   -1.2882019043e+01
    2.8510803223e+02   -1.2955017090e+01
    2.8520809937e+02   -1.3027984619e+01
    2.8530807495e+02   -1.3100006104e+01
    2.8540817261e+02   -1.3172973633e+01
    2.8550814819e+02   -1.3244995117e+01
    2.8560815430e+02   -1.3316986084e+01
    2.8570816040e+02   -1.3388977051e+01
    2.8580804443e+02   -1.3461029053e+01
    2.8590805054e+02   -1.3533020020e+01
    2.8600820923e+02   -1.3604003906e+01
    2.8610821533e+02   -1.3674987793e+01
    2.8620812988e+02   -1.3745025635e+01
    2.8630807495e+02   -1.3815979004e+01
    2.8640817261e+02   -1.3888031006e+01
    2.8650823975e+02   -1.3957000732e+01
    2.8660809326e+02   -1.4027038574e+01
    2.8670825195e+02   -1.4097961426e+01
    2.8680813599e+02   -1.4167999268e+01
    2.8690820312e+02   -1.4236968994e+01
    2.8700814819e+02   -1.4305969238e+01
    2.8710818481e+02   -1.4376007080e+01
    2.8720816040e+02   -1.4444030762e+01
    2.8730822754e+02   -1.4513000488e+01
    2.8740814209e+02   -1.4581970215e+01
    2.8750814819e+02   -1.4650024414e+01
    2.8760815430e+02   -1.4718017578e+01
    2.8770819092e+02   -1.4785949707e+01
    2.8780831909e+02   -1.4854003906e+01
    2.8790829468e+02   -1.4921020508e+01
    2.8800833130e+02   -1.4988037109e+01
    2.8810821533e+02   -1.5056030273e+01
    2.8820828247e+02   -1.5122009277e+01
    2.8830828857e+02   -1.5188964844e+01
    2.8840823364e+02   -1.5256042480e+01
    2.8850830078e+02   -1.5322021484e+01
    2.8860833740e+02   -1.5388000488e+01
    2.8870831299e+02   -1.5453002930e+01
    2.8880828857e+02   -1.5519042969e+01
    2.8890832520e+02   -1.5585021973e+01
    2.8900823975e+02   -1.5649963379e+01
    2.8910842896e+02   -1.5714965820e+01
    2.8920828247e+02   -1.5780029297e+01
    2.8930841064e+02   -1.5843994141e+01
    2.8940838623e+02   -1.5908996582e+01
    2.8950836182e+02   -1.5973022461e+01
    2.8960836792e+02   -1.6036987305e+01
    2.8970837402e+02   -1.6100952148e+01
    2.8980834961e+02   -1.6164001465e+01
    2.8990835571e+02   -1.6227966309e+01
    2.9000830078e+02   -1.6291015625e+01
    2.9010833740e+02   -1.6359008789e+01
    2.9020834351e+02   -1.6426025391e+01
    2.9030844116e+02   -1.6494995117e+01
    2.9040835571e+02   -1.6562011719e+01
    2.9050836182e+02   -1.6628051758e+01
    2.9060848999e+02   -1.6695007324e+01
    2.9070849609e+02   -1.6762023926e+01
    2.9080844116e+02   -1.6828002930e+01
    2.9090841675e+02   -1.6895019531e+01
    2.9100845337e+02   -1.6960021973e+01
    2.9110848999e+02   -1.7026000977e+01
    2.9120840454e+02   -1.7091979980e+01
    2.9130838013e+02   -1.7158020020e+01
    2.9140841675e+02   -1.7222045898e+01
    2.9150842285e+02   -1.7286987305e+01
    2.9160855103e+02   -1.7351989746e+01
    2.9170855713e+02   -1.7416992188e+01
    2.9180844116e+02   -1.7481018066e+01
    2.9190844727e+02   -1.7545043945e+01
    2.9200848389e+02   -1.7609008789e+01
    2.9210845947e+02   -1.7672973633e+01
    2.9220843506e+02   -1.7734985352e+01
    2.9230850220e+02   -1.7799011230e+01
    2.9240856934e+02   -1.7861999512e+01
    2.9250854492e+02   -1.7924987793e+01
    2.9260852051e+02   -1.7987976074e+01
    2.9270846558e+02   -1.8050048828e+01
    2.9280856323e+02   -1.8111999512e+01
    2.9290847778e+02   -1.8174011230e+01
    2.9300854492e+02   -1.8234985352e+01
    2.9310848999e+02   -1.8296997070e+01
    2.9320849609e+02   -1.8358032227e+01
    2.9330865479e+02   -1.8419006348e+01
    2.9340850830e+02   -1.8479980469e+01
    2.9350851440e+02   -1.8540954590e+01
    2.9360867310e+02   -1.8600952148e+01
    2.9370855713e+02   -1.8661010742e+01
    2.9380853271e+02   -1.8721008301e+01
    2.9390866089e+02   -1.8781005859e+01
    2.9400869751e+02   -1.8841003418e+01
    2.9410858154e+02   -1.8900024414e+01
    2.9420858765e+02   -1.8958007812e+01
    2.9430859375e+02   -1.9018005371e+01
    2.9440856934e+02   -1.9076965332e+01
    2.9450872803e+02   -1.9135009766e+01
    2.9460858154e+02   -1.9192993164e+01
    2.9470861816e+02   -1.9252014160e+01
    2.9480868530e+02   -1.9309020996e+01
    2.9490875244e+02   -1.9367004395e+01
    2.9500863647e+02   -1.9424011230e+01
    2.9510867310e+02   -1.9481018066e+01
    2.9520861816e+02   -1.9538024902e+01
    2.9530877686e+02   -1.9595031738e+01
    2.9540875244e+02   -1.9651000977e+01
    2.9550872803e+02   -1.9708007812e+01
    2.9560879517e+02   -1.9764038086e+01
    2.9570864868e+02   -1.9819030762e+01
    2.9580865479e+02   -1.9875000000e+01
    2.9590872192e+02   -1.9931030273e+01
    2.9600878906e+02   -1.9986022949e+01
    2.9610867310e+02   -2.0041992188e+01
    2.9620874023e+02   -2.0096008301e+01
    2.9630877686e+02   -2.0151977539e+01
    2.9640872192e+02   -2.0207031250e+01
    2.9650878906e+02   -2.0261047363e+01
    2.9660879517e+02   -2.0315979004e+01
    2.9670870972e+02   -2.0370971680e+01
    2.9680874634e+02   -2.0424987793e+01
    2.9690878296e+02   -2.0480041504e+01
    2.9700878906e+02   -2.0534973145e+01
    2.9710888672e+02   -2.0588989258e+01
    2.9720877075e+02   -2.0643005371e+01
    2.9730874634e+02   -2.0697021484e+01
    2.9740878296e+02   -2.0751037598e+01
    2.9750891113e+02   -2.0804992676e+01
    2.9760876465e+02   -2.0858947754e+01
    2.9770892334e+02   -2.0911987305e+01
    2.9780889893e+02   -2.0966003418e+01
    2.9790884399e+02   -2.1018981934e+01
    2.9800881958e+02   -2.1070983887e+01
    2.9810891724e+02   -2.1125000000e+01
    2.9820889282e+02   -2.1177001953e+01
    2.9830880737e+02   -2.1229003906e+01
    2.9840890503e+02   -2.1281982422e+01
    2.9850888062e+02   -2.1333984375e+01
    2.9860882568e+02   -2.1385986328e+01
    2.9870895386e+02   -2.1439025879e+01
    2.9880886841e+02   -2.1490966797e+01
    2.9890884399e+02   -2.1541992188e+01
    2.9900900269e+02   -2.1593017578e+01
    2.9910888672e+02   -2.1644958496e+01
    2.9920901489e+02   -2.1697021484e+01
    2.9930889893e+02   -2.1749023438e+01
    2.9940902710e+02   -2.1799987793e+01
    2.9950903320e+02   -2.1851989746e+01
    2.9960903931e+02   -2.1901977539e+01
    2.9970892334e+02   -2.1953002930e+01
    2.9980895996e+02   -2.2005004883e+01
    2.9990899658e+02   -2.2054992676e+01
endcurve
