Curveplot
LS-DYNA keyword deck by LS-PrePost
Abscissa
Ordinate
XY data
CHOP_EAMZ_mo-1 #pts=3000
* Minval=    -1.8471599579e+01 at time=       190.3022766113
* Maxval=     3.9862699509e+00 at time=       299.9089965820
    0.0000000000e+00    0.0000000000e+00
    9.9978484213e-02    2.4357099860e-14
    1.9994476438e-01    2.5395300440e-07
    2.9985594749e-01    3.9382300088e-07
    3.9993065596e-01    5.6044200392e-07
    4.9983286858e-01    7.1375200150e-07
    5.9996074438e-01    6.3782101734e-07
    6.9996917248e-01    4.9180499673e-07
    7.9987239838e-01    1.8066999701e-06
    8.9996677637e-01    4.4611501835e-06
    9.9981802702e-01    7.2322500273e-06
    1.0999013186e+00    9.2110403784e-06
    1.1999312639e+00    9.5090299510e-06
    1.2999420166e+00    9.2273003247e-06
    1.3998707533e+00    7.7743197835e-06
    1.4999967813e+00    5.4816800912e-06
    1.5999176502e+00    2.8646700230e-06
    1.6998231411e+00    2.1735000644e-07
    1.7998125553e+00   -2.6223499390e-06
    1.8998631239e+00   -5.2577897804e-06
    1.9999403954e+00   -8.7048201749e-06
    2.0999372005e+00   -1.3056300304e-05
    2.1998307705e+00   -1.7796999600e-05
    2.2999815941e+00   -2.1836800443e-05
    2.3998348713e+00   -2.5460600227e-05
    2.4998700619e+00   -3.0867500755e-05
    2.5998649597e+00   -3.7834499381e-05
    2.6998441219e+00   -4.6666500566e-05
    2.7999923229e+00   -5.7529701735e-05
    2.8998992443e+00   -6.9230802183e-05
    2.9998807907e+00   -8.1356098235e-05
    3.0998446941e+00   -9.4426803116e-05
    3.1998353004e+00   -1.0910999845e-04
    3.2999982834e+00   -1.2439300190e-04
    3.3999238014e+00   -1.4165700122e-04
    3.4999976158e+00   -1.6141899687e-04
    3.5999677181e+00   -1.8366500444e-04
    3.6998908520e+00   -2.0652900275e-04
    3.7998950481e+00   -2.3100599356e-04
    3.8999593258e+00   -2.5617700885e-04
    3.9998872280e+00   -2.8292500065e-04
    4.0999002457e+00   -3.1263500568e-04
    4.1999154091e+00   -3.4549899283e-04
    4.2999529839e+00   -3.8067300920e-04
    4.3998851776e+00   -4.1762200999e-04
    4.4998784065e+00   -4.5706098899e-04
    4.5999293327e+00   -4.9898197176e-04
    4.6999778748e+00   -5.4348097183e-04
    4.7999606133e+00   -5.9058400802e-04
    4.8998966217e+00   -6.4059800934e-04
    4.9999694824e+00   -6.9283100311e-04
    5.0999503136e+00   -7.4810098158e-04
    5.1998300552e+00   -8.0610398436e-04
    5.2998480797e+00   -8.6615700275e-04
    5.3998847008e+00   -9.2860497534e-04
    5.4998626709e+00   -9.9332095124e-04
    5.5999817848e+00   -1.0616499931e-03
    5.6998472214e+00   -1.1325200321e-03
    5.7998046875e+00   -1.2067799689e-03
    5.8998994827e+00   -1.2843300356e-03
    5.9999914169e+00   -1.3651299523e-03
    6.0998306274e+00   -1.4496999793e-03
    6.1999139786e+00   -1.5384600265e-03
    6.2998967171e+00   -1.6299700364e-03
    6.3998079300e+00   -1.7235300038e-03
    6.4998803139e+00   -1.8194699660e-03
    6.5999507904e+00   -1.9189199666e-03
    6.6999664307e+00   -2.0209900104e-03
    6.7998299599e+00   -2.1257000044e-03
    6.8998317719e+00   -2.2334500682e-03
    6.9998917580e+00   -2.3443601094e-03
    7.0998682976e+00   -2.4582899641e-03
    7.1999130249e+00   -2.5751900394e-03
    7.2999601364e+00   -2.6951499749e-03
    7.3999619484e+00   -2.8175099287e-03
    7.4998159409e+00   -2.9433800373e-03
    7.5999779701e+00   -3.0734599568e-03
    7.6999573708e+00   -3.2069298904e-03
    7.7999353409e+00   -3.3420999534e-03
    7.8999133110e+00   -3.4797699191e-03
    7.9999518394e+00   -3.6202999763e-03
    8.0999116898e+00   -3.7637900095e-03
    8.1999921799e+00   -3.9106598124e-03
    8.2998600006e+00   -4.0600099601e-03
    8.3999414444e+00   -4.2126900516e-03
    8.4999418259e+00   -4.3671699241e-03
    8.5998668671e+00   -4.5237201266e-03
    8.6999950409e+00   -4.6820398420e-03
    8.7998943329e+00   -4.8416601494e-03
    8.8998794556e+00   -5.0038797781e-03
    8.9998931885e+00   -5.1697399467e-03
    9.0998735428e+00   -5.3390399553e-03
    9.1998090744e+00   -5.5111600086e-03
    9.2998924255e+00   -5.6866598316e-03
    9.3998374939e+00   -5.8636800386e-03
    9.4999208450e+00   -6.0431901366e-03
    9.5998888016e+00   -6.2247398309e-03
    9.6999607086e+00   -6.4087701030e-03
    9.7999601364e+00   -6.5952199511e-03
    9.8999509811e+00   -6.7839398980e-03
    9.9999437332e+00   -6.9748200476e-03
    1.0099899292e+01   -7.1673500352e-03
    1.0199932098e+01   -7.3619498871e-03
    1.0299875259e+01   -7.5587099418e-03
    1.0399922371e+01   -7.7582499944e-03
    1.0499888420e+01   -7.9597802833e-03
    1.0599976540e+01   -8.1642903388e-03
    1.0699834824e+01   -8.3711901680e-03
    1.0799839020e+01   -8.5786897689e-03
    1.0899987221e+01   -8.7869800627e-03
    1.0999872208e+01   -8.9971199632e-03
    1.1099974632e+01   -9.2111499980e-03
    1.1199816704e+01   -9.4298096374e-03
    1.1299883842e+01   -9.6525503322e-03
    1.1399881363e+01   -9.8788402975e-03
    1.1499829292e+01   -1.0108999908e-02
    1.1599976540e+01   -1.0342700407e-02
    1.1699942589e+01   -1.0578099638e-02
    1.1799819946e+01   -1.0815500282e-02
    1.1899915695e+01   -1.1055699550e-02
    1.1999942780e+01   -1.1298799887e-02
    1.2099864960e+01   -1.1545499787e-02
    1.2199995041e+01   -1.1794899590e-02
    1.2300000191e+01   -1.2045799755e-02
    1.2399901390e+01   -1.2299399823e-02
    1.2499962807e+01   -1.2558699585e-02
    1.2599871635e+01   -1.2822699733e-02
    1.2699990273e+01   -1.3092200272e-02
    1.2799981117e+01   -1.3365999795e-02
    1.2899868011e+01   -1.3643199578e-02
    1.2999883652e+01   -1.3924700208e-02
    1.3099851608e+01   -1.4208899811e-02
    1.3199937820e+01   -1.4497700147e-02
    1.3299961090e+01   -1.4790100046e-02
    1.3399948120e+01   -1.5086900443e-02
    1.3499955177e+01   -1.5389099717e-02
    1.3599972725e+01   -1.5696600080e-02
    1.3699863434e+01   -1.6006799415e-02
    1.3799963951e+01   -1.6321999952e-02
    1.3899989128e+01   -1.6641600057e-02
    1.3999843597e+01   -1.6965499148e-02
    1.4099994659e+01   -1.7296899110e-02
    1.4199995995e+01   -1.7633400857e-02
    1.4299977303e+01   -1.7974499613e-02
    1.4399853706e+01   -1.8319999799e-02
    1.4499971390e+01   -1.8670199439e-02
    1.4599962234e+01   -1.9025599584e-02
    1.4699860573e+01   -1.9386300817e-02
    1.4799954414e+01   -1.9753400236e-02
    1.4899956703e+01   -2.0125500858e-02
    1.4999971390e+01   -2.0502699539e-02
    1.5099837303e+01   -2.0883899182e-02
    1.5200016975e+01   -2.1271500736e-02
    1.5299937248e+01   -2.1662799641e-02
    1.5399894714e+01   -2.2058399394e-02
    1.5499953270e+01   -2.2459700704e-02
    1.5599922180e+01   -2.2866500542e-02
    1.5699946404e+01   -2.3278700188e-02
    1.5799880981e+01   -2.3695699871e-02
    1.5899893761e+01   -2.4118300527e-02
    1.6000009537e+01   -2.4547100067e-02
    1.6100021362e+01   -2.4982199073e-02
    1.6199943542e+01   -2.5423599407e-02
    1.6299993515e+01   -2.5869600475e-02
    1.6399923325e+01   -2.6318499818e-02
    1.6499935150e+01   -2.6770699769e-02
    1.6600019455e+01   -2.7228200808e-02
    1.6699966431e+01   -2.7689000592e-02
    1.6799919128e+01   -2.8154000640e-02
    1.6899942398e+01   -2.8623500839e-02
    1.6999977112e+01   -2.9098499566e-02
    1.7099969864e+01   -2.9578400776e-02
    1.7200016022e+01   -3.0062399805e-02
    1.7299913406e+01   -3.0549900606e-02
    1.7399948120e+01   -3.1041400507e-02
    1.7499986649e+01   -3.1537998468e-02
    1.7599855423e+01   -3.2038100064e-02
    1.7699888229e+01   -3.2542999834e-02
    1.7799867630e+01   -3.3050000668e-02
    1.7900030136e+01   -3.3561401069e-02
    1.8000001907e+01   -3.4075301141e-02
    1.8100002289e+01   -3.4593198448e-02
    1.8199903488e+01   -3.5114098340e-02
    1.8299930573e+01   -3.5639099777e-02
    1.8399866104e+01   -3.6167498678e-02
    1.8499961853e+01   -3.6698799580e-02
    1.8600009918e+01   -3.7231899798e-02
    1.8699945450e+01   -3.7765998393e-02
    1.8799982071e+01   -3.8302600384e-02
    1.8899885178e+01   -3.8841698319e-02
    1.8999877930e+01   -3.9385199547e-02
    1.9099937439e+01   -3.9931900799e-02
    1.9199964523e+01   -4.0481701493e-02
    1.9299915314e+01   -4.1034799069e-02
    1.9399930954e+01   -4.1590001434e-02
    1.9499971390e+01   -4.2147900909e-02
    1.9599996567e+01   -4.2707398534e-02
    1.9699876785e+01   -4.3268200010e-02
    1.9799945831e+01   -4.3832100928e-02
    1.9899951935e+01   -4.4397801161e-02
    1.9999975204e+01   -4.4964801520e-02
    2.0099910736e+01   -4.5532800257e-02
    2.0200038910e+01   -4.6103898436e-02
    2.0299928665e+01   -4.6677000821e-02
    2.0399969101e+01   -4.7253299505e-02
    2.0499897003e+01   -4.7830801457e-02
    2.0599882126e+01   -4.8411000520e-02
    2.0699890137e+01   -4.8993401229e-02
    2.0800008774e+01   -4.9575701356e-02
    2.0900033951e+01   -5.0157498568e-02
    2.0999982834e+01   -5.0740800798e-02
    2.1099977493e+01   -5.1327701658e-02
    2.1199924469e+01   -5.1919601858e-02
    2.1299985886e+01   -5.2514798939e-02
    2.1399898529e+01   -5.3112398833e-02
    2.1500028610e+01   -5.3714800626e-02
    2.1599893570e+01   -5.4318301380e-02
    2.1700010300e+01   -5.4925199598e-02
    2.1799985886e+01   -5.5532701313e-02
    2.1899875641e+01   -5.6141100824e-02
    2.1999879837e+01   -5.6751899421e-02
    2.2100011826e+01   -5.7367198169e-02
    2.2199956894e+01   -5.7982601225e-02
    2.2300016403e+01   -5.8599501848e-02
    2.2400018692e+01   -5.9217799455e-02
    2.2499933243e+01   -5.9840701520e-02
    2.2600017548e+01   -6.0469198972e-02
    2.2699880600e+01   -6.1100300401e-02
    2.2799909592e+01   -6.1736099422e-02
    2.2900049210e+01   -6.2375400215e-02
    2.2999948502e+01   -6.3015900552e-02
    2.3099882126e+01   -6.3658602536e-02
    2.3199964523e+01   -6.4304903150e-02
    2.3299911499e+01   -6.4953900874e-02
    2.3400043488e+01   -6.5607100725e-02
    2.3499912262e+01   -6.6262699664e-02
    2.3599950790e+01   -6.6923797131e-02
    2.3699897766e+01   -6.7585498095e-02
    2.3799978256e+01   -6.8251103163e-02
    2.3899904251e+01   -6.8919196725e-02
    2.4000043869e+01   -6.9591701031e-02
    2.4100038528e+01   -7.0267997682e-02
    2.4200052261e+01   -7.0948600769e-02
    2.4300033569e+01   -7.1631796658e-02
    2.4399972916e+01   -7.2317399085e-02
    2.4500045776e+01   -7.3006600142e-02
    2.4599969864e+01   -7.3699302971e-02
    2.4699985504e+01   -7.4396796525e-02
    2.4800001144e+01   -7.5097903609e-02
    2.4899925232e+01   -7.5801700354e-02
    2.4999992371e+01   -7.6509296894e-02
    2.5100019455e+01   -7.7219597995e-02
    2.5199989319e+01   -7.7933296561e-02
    2.5299991608e+01   -7.8649699688e-02
    2.5399894714e+01   -7.9367697239e-02
    2.5499933243e+01   -8.0088697374e-02
    2.5600042343e+01   -8.0813802779e-02
    2.5699977875e+01   -8.1540502608e-02
    2.5799924850e+01   -8.2270503044e-02
    2.5899940491e+01   -8.3004198968e-02
    2.5999990463e+01   -8.3742402494e-02
    2.6100011826e+01   -8.4485702217e-02
    2.6199951172e+01   -8.5232198238e-02
    2.6299898148e+01   -8.5980698466e-02
    2.6399993896e+01   -8.6730897427e-02
    2.6500017166e+01   -8.7480902672e-02
    2.6599876404e+01   -8.8232599199e-02
    2.6700063705e+01   -8.8988997042e-02
    2.6800020218e+01   -8.9745000005e-02
    2.6900028229e+01   -9.0503498912e-02
    2.6999944687e+01   -9.1264799237e-02
    2.7100065231e+01   -9.2030003667e-02
    2.7199987411e+01   -9.2795997858e-02
    2.7299985886e+01   -9.3563303351e-02
    2.7399879456e+01   -9.4331398606e-02
    2.7500011444e+01   -9.5103800297e-02
    2.7599903107e+01   -9.5876902342e-02
    2.7700067520e+01   -9.6653603017e-02
    2.7800014496e+01   -9.7428902984e-02
    2.7899932861e+01   -9.8204903305e-02
    2.7999940872e+01   -9.8982699215e-02
    2.8099967957e+01   -9.9762797356e-02
    2.8200038910e+01   -1.0054499656e-01
    2.8299932480e+01   -1.0132700205e-01
    2.8400028229e+01   -1.0211200267e-01
    2.8500000000e+01   -1.0289599746e-01
    2.8600059509e+01   -1.0367999971e-01
    2.8700017929e+01   -1.0446199775e-01
    2.8800045013e+01   -1.0524500161e-01
    2.8900045395e+01   -1.0602799803e-01
    2.8999914169e+01   -1.0681299865e-01
    2.9100065231e+01   -1.0760100186e-01
    2.9199949265e+01   -1.0838899761e-01
    2.9299966812e+01   -1.0917899758e-01
    2.9400009155e+01   -1.0996899754e-01
    2.9499992371e+01   -1.1075899750e-01
    2.9599905014e+01   -1.1155000329e-01
    2.9699943542e+01   -1.1234100163e-01
    2.9800020218e+01   -1.1313199997e-01
    2.9900011063e+01   -1.1392299831e-01
    3.0000030518e+01   -1.1471199989e-01
    3.0099977493e+01   -1.1550100148e-01
    3.0200006485e+01   -1.1629100144e-01
    3.0299949646e+01   -1.1708299816e-01
    3.0400007248e+01   -1.1787500232e-01
    3.0499969482e+01   -1.1866699904e-01
    3.0599927902e+01   -1.1946000159e-01
    3.0699987411e+01   -1.2025400251e-01
    3.0800060272e+01   -1.2104299664e-01
    3.0900039673e+01   -1.2182799727e-01
    3.0999963760e+01   -1.2261199951e-01
    3.1100059509e+01   -1.2340000272e-01
    3.1200065613e+01   -1.2419500202e-01
    3.1300043106e+01   -1.2499199808e-01
    3.1400012970e+01   -1.2579399347e-01
    3.1500053406e+01   -1.2659999728e-01
    3.1599956512e+01   -1.2740799785e-01
    3.1700004578e+01   -1.2821699679e-01
    3.1799985886e+01   -1.2902499735e-01
    3.1900049210e+01   -1.2983299792e-01
    3.2000019073e+01   -1.3064299524e-01
    3.2100021362e+01   -1.3145700097e-01
    3.2200027466e+01   -1.3227100670e-01
    3.2299896240e+01   -1.3308300078e-01
    3.2399921417e+01   -1.3389599323e-01
    3.2500053406e+01   -1.3471700251e-01
    3.2599964142e+01   -1.3554500043e-01
    3.2699958801e+01   -1.3638000190e-01
    3.2799972534e+01   -1.3721999526e-01
    3.2899932861e+01   -1.3806499541e-01
    3.2999946594e+01   -1.3891300559e-01
    3.3099956512e+01   -1.3976399601e-01
    3.3200050354e+01   -1.4061999321e-01
    3.3299980164e+01   -1.4147900045e-01
    3.3399986267e+01   -1.4234499633e-01
    3.3500026703e+01   -1.4322000742e-01
    3.3599929810e+01   -1.4410200715e-01
    3.3699920654e+01   -1.4498700202e-01
    3.3799945831e+01   -1.4587600529e-01
    3.3899971008e+01   -1.4677000046e-01
    3.4000022888e+01   -1.4767099917e-01
    3.4099967957e+01   -1.4858099818e-01
    3.4200031281e+01   -1.4950099587e-01
    3.4299991608e+01   -1.5042699873e-01
    3.4399997711e+01   -1.5136000514e-01
    3.4499969482e+01   -1.5229800344e-01
    3.4599987030e+01   -1.5324699879e-01
    3.4700038910e+01   -1.5420599282e-01
    3.4799896240e+01   -1.5517100692e-01
    3.4899944305e+01   -1.5614800155e-01
    3.5000022888e+01   -1.5713299811e-01
    3.5099899292e+01   -1.5812499821e-01
    3.5200019836e+01   -1.5912799537e-01
    3.5299957275e+01   -1.6013500094e-01
    3.5400020599e+01   -1.6114999354e-01
    3.5499973297e+01   -1.6217200458e-01
    3.5599994659e+01   -1.6320599616e-01
    3.5699958801e+01   -1.6424900293e-01
    3.5799915314e+01   -1.6530099511e-01
    3.5899986267e+01   -1.6636399925e-01
    3.6000007629e+01   -1.6743800044e-01
    3.6099834442e+01   -1.6852399707e-01
    3.6199829102e+01   -1.6962400079e-01
    3.6299858093e+01   -1.7073400319e-01
    3.6399887085e+01   -1.7184999585e-01
    3.6499965668e+01   -1.7297199368e-01
    3.6599861145e+01   -1.7410199344e-01
    3.6699977875e+01   -1.7524400353e-01
    3.6799884796e+01   -1.7639000714e-01
    3.6899868011e+01   -1.7754699290e-01
    3.7000000000e+01   -1.7871700227e-01
    3.7099826813e+01   -1.7989300191e-01
    3.7199993134e+01   -1.8108199537e-01
    3.7299999237e+01   -1.8227800727e-01
    3.7399833679e+01   -1.8347999454e-01
    3.7499885559e+01   -1.8469500542e-01
    3.7599887848e+01   -1.8592000008e-01
    3.7699905396e+01   -1.8715399504e-01
    3.7799926758e+01   -1.8839399517e-01
    3.7899852753e+01   -1.8964099884e-01
    3.7999881744e+01   -1.9089700282e-01
    3.8099922180e+01   -1.9216400385e-01
    3.8199855804e+01   -1.9343900681e-01
    3.8299934387e+01   -1.9472299516e-01
    3.8399871826e+01   -1.9601599872e-01
    3.8499889374e+01   -1.9731399417e-01
    3.8599884033e+01   -1.9861699641e-01
    3.8699882507e+01   -1.9992400706e-01
    3.8799812317e+01   -2.0123599470e-01
    3.8899814606e+01   -2.0255799592e-01
    3.8999797821e+01   -2.0388999581e-01
    3.9099895477e+01   -2.0523199439e-01
    3.9199844360e+01   -2.0658199489e-01
    3.9299861908e+01   -2.0794099569e-01
    3.9399944305e+01   -2.0930799842e-01
    3.9499946594e+01   -2.1068200469e-01
    3.9599903107e+01   -2.1206000447e-01
    3.9699886322e+01   -2.1344499290e-01
    3.9799957275e+01   -2.1483999491e-01
    3.9899921417e+01   -2.1623900533e-01
    3.9999809265e+01   -2.1764099598e-01
    4.0099941254e+01   -2.1905100346e-01
    4.0199787140e+01   -2.2046500444e-01
    4.0299869537e+01   -2.2189100087e-01
    4.0399929047e+01   -2.2332599759e-01
    4.0499782562e+01   -2.2476400435e-01
    4.0599948883e+01   -2.2621500492e-01
    4.0699897766e+01   -2.2766900063e-01
    4.0799831390e+01   -2.2912199795e-01
    4.0899837494e+01   -2.3057599366e-01
    4.0999752045e+01   -2.3203599453e-01
    4.1099769592e+01   -2.3350700736e-01
    4.1199775696e+01   -2.3499399424e-01
    4.1299812317e+01   -2.3649300635e-01
    4.1399841309e+01   -2.3800399899e-01
    4.1499851227e+01   -2.3952700198e-01
    4.1599895477e+01   -2.4106000364e-01
    4.1699802399e+01   -2.4259799719e-01
    4.1799865723e+01   -2.4414700270e-01
    4.1899848938e+01   -2.4570100009e-01
    4.1999832153e+01   -2.4726499617e-01
    4.2099906921e+01   -2.4884200096e-01
    4.2199810028e+01   -2.5042301416e-01
    4.2299758911e+01   -2.5200998783e-01
    4.2399814606e+01   -2.5360700488e-01
    4.2499809265e+01   -2.5521901250e-01
    4.2599796295e+01   -2.5684699416e-01
    4.2699745178e+01   -2.5848999619e-01
    4.2799892426e+01   -2.6015099883e-01
    4.2899875641e+01   -2.6182198524e-01
    4.2999862671e+01   -2.6350399852e-01
    4.3099845886e+01   -2.6519501209e-01
    4.3199832916e+01   -2.6690000296e-01
    4.3299884796e+01   -2.6862001419e-01
    4.3399837494e+01   -2.7035400271e-01
    4.3499855042e+01   -2.7210700512e-01
    4.3599899292e+01   -2.7388098836e-01
    4.3699829102e+01   -2.7566099167e-01
    4.3799827576e+01   -2.7745500207e-01
    4.3899833679e+01   -2.7926400304e-01
    4.3999832153e+01   -2.8108701110e-01
    4.4099826813e+01   -2.8292798996e-01
    4.4199737549e+01   -2.8478500247e-01
    4.4299892426e+01   -2.8666099906e-01
    4.4399868011e+01   -2.8854700923e-01
    4.4499702454e+01   -2.9044398665e-01
    4.4599742889e+01   -2.9236298800e-01
    4.4699775696e+01   -2.9430100322e-01
    4.4799800873e+01   -2.9625600576e-01
    4.4899864197e+01   -2.9823100567e-01
    4.4999713898e+01   -3.0021700263e-01
    4.5099708557e+01   -3.0222100019e-01
    4.5199810028e+01   -3.0424401164e-01
    4.5299716949e+01   -3.0627799034e-01
    4.5399738312e+01   -3.0832800269e-01
    4.5499870300e+01   -3.1039500237e-01
    4.5599754333e+01   -3.1247499585e-01
    4.5699707031e+01   -3.1457400322e-01
    4.5799831390e+01   -3.1669101119e-01
    4.5899711609e+01   -3.1882101297e-01
    4.5999748230e+01   -3.2097399235e-01
    4.6099834442e+01   -3.2315000892e-01
    4.6199802399e+01   -3.2534098625e-01
    4.6299800873e+01   -3.2754901052e-01
    4.6399692535e+01   -3.2976400852e-01
    4.6499713898e+01   -3.3199301362e-01
    4.6599819183e+01   -3.3423998952e-01
    4.6699840546e+01   -3.3649900556e-01
    4.6799701691e+01   -3.3876699209e-01
    4.6899787903e+01   -3.4105399251e-01
    4.6999794006e+01   -3.4335699677e-01
    4.7099784851e+01   -3.4567600489e-01
    4.7199695587e+01   -3.4800499678e-01
    4.7299804688e+01   -3.5035198927e-01
    4.7399776459e+01   -3.5270699859e-01
    4.7499843597e+01   -3.5507899523e-01
    4.7599708557e+01   -3.5745999217e-01
    4.7699691772e+01   -3.5985600948e-01
    4.7799755096e+01   -3.6226201057e-01
    4.7899799347e+01   -3.6467701197e-01
    4.7999759674e+01   -3.6710399389e-01
    4.8099727631e+01   -3.6954399943e-01
    4.8199680328e+01   -3.7199500203e-01
    4.8299709320e+01   -3.7445899844e-01
    4.8399784088e+01   -3.7693598866e-01
    4.8499725342e+01   -3.7941700220e-01
    4.8599765778e+01   -3.8190400600e-01
    4.8699726105e+01   -3.8439598680e-01
    4.8799701691e+01   -3.8689398766e-01
    4.8899768829e+01   -3.8940599561e-01
    4.8999675751e+01   -3.9192599058e-01
    4.9099800110e+01   -3.9446300268e-01
    4.9199691772e+01   -3.9700400829e-01
    4.9299644470e+01   -3.9955800772e-01
    4.9399677277e+01   -4.0211999416e-01
    4.9499786377e+01   -4.0469300747e-01
    4.9599704742e+01   -4.0726900101e-01
    4.9699722290e+01   -4.0985301137e-01
    4.9799629211e+01   -4.1244399548e-01
    4.9899761200e+01   -4.1504600644e-01
    4.9999683380e+01   -4.1764599085e-01
    5.0099693298e+01   -4.2025399208e-01
    5.0199775696e+01   -4.2287299037e-01
    5.0299724579e+01   -4.2549800873e-01
    5.0399742126e+01   -4.2813500762e-01
    5.0499668121e+01   -4.3077498674e-01
    5.0599678040e+01   -4.3342599273e-01
    5.0699630737e+01   -4.3608298898e-01
    5.0799720764e+01   -4.3873798847e-01
    5.0899765015e+01   -4.4139000773e-01
    5.0999656677e+01   -4.4404301047e-01
    5.1099712372e+01   -4.4671198726e-01
    5.1199718475e+01   -4.4939601421e-01
    5.1299747467e+01   -4.5209199190e-01
    5.1399620056e+01   -4.5479598641e-01
    5.1499671936e+01   -4.5751899481e-01
    5.1599685669e+01   -4.6025198698e-01
    5.1699718475e+01   -4.6299201250e-01
    5.1799606323e+01   -4.6573600173e-01
    5.1899761200e+01   -4.6849301457e-01
    5.1999633789e+01   -4.7125300765e-01
    5.2099731445e+01   -4.7403100133e-01
    5.2199714661e+01   -4.7681298852e-01
    5.2299598694e+01   -4.7959500551e-01
    5.2399673462e+01   -4.8238900304e-01
    5.2499603271e+01   -4.8519501090e-01
    5.2599750519e+01   -4.8802599311e-01
    5.2699607849e+01   -4.9086201191e-01
    5.2799686432e+01   -4.9371901155e-01
    5.2899692535e+01   -4.9658399820e-01
    5.2999664307e+01   -4.9946001172e-01
    5.3099590302e+01   -5.0234198570e-01
    5.3199596405e+01   -5.0523900986e-01
    5.3299671173e+01   -5.0815302134e-01
    5.3399654388e+01   -5.1108002663e-01
    5.3499603271e+01   -5.1402801275e-01
    5.3599712372e+01   -5.1700097322e-01
    5.3699672699e+01   -5.1997798681e-01
    5.3799583435e+01   -5.2296501398e-01
    5.3899574280e+01   -5.2596998215e-01
    5.3999687195e+01   -5.2898997068e-01
    5.4099624634e+01   -5.3202098608e-01
    5.4199634552e+01   -5.3506898880e-01
    5.4299663544e+01   -5.3812998533e-01
    5.4399547577e+01   -5.4119497538e-01
    5.4499645233e+01   -5.4427802563e-01
    5.4599685669e+01   -5.4737699032e-01
    5.4699588776e+01   -5.5048799515e-01
    5.4799594879e+01   -5.5362099409e-01
    5.4899650574e+01   -5.5677098036e-01
    5.4999568939e+01   -5.5993199348e-01
    5.5099613190e+01   -5.6311202049e-01
    5.5199722290e+01   -5.6630998850e-01
    5.5299694061e+01   -5.6951600313e-01
    5.5399608612e+01   -5.7273101807e-01
    5.5499637604e+01   -5.7596302032e-01
    5.5599674225e+01   -5.7920998335e-01
    5.5699668884e+01   -5.8246898651e-01
    5.5799541473e+01   -5.8573597670e-01
    5.5899627686e+01   -5.8902400732e-01
    5.5999656677e+01   -5.9232699871e-01
    5.6099613190e+01   -5.9565001726e-01
    5.6199653625e+01   -5.9899401665e-01
    5.6299560547e+01   -6.0234600306e-01
    5.6399532318e+01   -6.0570698977e-01
    5.6499553680e+01   -6.0907602310e-01
    5.6599662781e+01   -6.1246299744e-01
    5.6699607849e+01   -6.1585497856e-01
    5.6799545288e+01   -6.1925798655e-01
    5.6899665833e+01   -6.2268000841e-01
    5.6999614716e+01   -6.2611299753e-01
    5.7099521637e+01   -6.2955498695e-01
    5.7199523926e+01   -6.3301199675e-01
    5.7299674988e+01   -6.3647997379e-01
    5.7399566650e+01   -6.3994598389e-01
    5.7499595642e+01   -6.4342701435e-01
    5.7599620819e+01   -6.4692097902e-01
    5.7699558258e+01   -6.5042001009e-01
    5.7799518585e+01   -6.5392500162e-01
    5.7899627686e+01   -6.5744298697e-01
    5.7999576569e+01   -6.6096502542e-01
    5.8099639893e+01   -6.6450202465e-01
    5.8199581146e+01   -6.6804397106e-01
    5.8299652100e+01   -6.7159998417e-01
    5.8399593353e+01   -6.7515999079e-01
    5.8499515533e+01   -6.7872101068e-01
    5.8599624634e+01   -6.8228900433e-01
    5.8699584961e+01   -6.8585199118e-01
    5.8799510956e+01   -6.8941599131e-01
    5.8899551392e+01   -6.9299101830e-01
    5.8999591827e+01   -6.9657498598e-01
    5.9099605560e+01   -7.0016402006e-01
    5.9199497223e+01   -7.0375698805e-01
    5.9299488068e+01   -7.0736300945e-01
    5.9399654388e+01   -7.1097999811e-01
    5.9499633789e+01   -7.1459501982e-01
    5.9599586487e+01   -7.1821302176e-01
    5.9699630737e+01   -7.2183799744e-01
    5.9799552917e+01   -7.2546398640e-01
    5.9899524689e+01   -7.2909402847e-01
    5.9999519348e+01   -7.3272401094e-01
    6.0099643707e+01   -7.3636001348e-01
    6.0199581146e+01   -7.3999601603e-01
    6.0299583435e+01   -7.4364298582e-01
    6.0399501801e+01   -7.4729198217e-01
    6.0499507904e+01   -7.5094497204e-01
    6.0599502563e+01   -7.5460100174e-01
    6.0699542999e+01   -7.5826299191e-01
    6.0799564362e+01   -7.6191401482e-01
    6.0899490356e+01   -7.6555401087e-01
    6.0999588013e+01   -7.6920098066e-01
    6.1099559784e+01   -7.7285200357e-01
    6.1199512482e+01   -7.7651697397e-01
    6.1299606323e+01   -7.8019797802e-01
    6.1399570465e+01   -7.8388601542e-01
    6.1499546051e+01   -7.8758502007e-01
    6.1599517822e+01   -7.9129302502e-01
    6.1699516296e+01   -7.9500699043e-01
    6.1799499512e+01   -7.9872602224e-01
    6.1899562836e+01   -8.0245101452e-01
    6.1999618530e+01   -8.0618298054e-01
    6.2099491119e+01   -8.0991798639e-01
    6.2199600220e+01   -8.1366497278e-01
    6.2299610138e+01   -8.1740701199e-01
    6.2399501801e+01   -8.2115197182e-01
    6.2499546051e+01   -8.2491797209e-01
    6.2599575043e+01   -8.2869899273e-01
    6.2699577332e+01   -8.3249300718e-01
    6.2799491882e+01   -8.3629798889e-01
    6.2899452209e+01   -8.4011399746e-01
    6.2999519348e+01   -8.4394198656e-01
    6.3099445343e+01   -8.4777301550e-01
    6.3199558258e+01   -8.5162097216e-01
    6.3299438477e+01   -8.5547399521e-01
    6.3399513245e+01   -8.5935002565e-01
    6.3499568939e+01   -8.6324799061e-01
    6.3599418640e+01   -8.6715799570e-01
    6.3699485779e+01   -8.7108397484e-01
    6.3799503326e+01   -8.7502300739e-01
    6.3899452209e+01   -8.7897497416e-01
    6.3999488831e+01   -8.8294398785e-01
    6.4099487305e+01   -8.8692700863e-01
    6.4199447632e+01   -8.9092397690e-01
    6.4299552917e+01   -8.9493697882e-01
    6.4399536133e+01   -8.9895397425e-01
    6.4499488831e+01   -9.0298098326e-01
    6.4599418640e+01   -9.0702301264e-01
    6.4699417114e+01   -9.1108399630e-01
    6.4799423218e+01   -9.1516500711e-01
    6.4899421692e+01   -9.1926199198e-01
    6.4999542236e+01   -9.2337799072e-01
    6.5099555969e+01   -9.2750602961e-01
    6.5199523926e+01   -9.3164801598e-01
    6.5299377441e+01   -9.3579798937e-01
    6.5399513245e+01   -9.3997400999e-01
    6.5499412537e+01   -9.4415700436e-01
    6.5599411011e+01   -9.4836300611e-01
    6.5699424744e+01   -9.5258700848e-01
    6.5799400330e+01   -9.5682501793e-01
    6.5899452209e+01   -9.6108299494e-01
    6.5999427795e+01   -9.6535801888e-01
    6.6099388123e+01   -9.6965897083e-01
    6.6199417114e+01   -9.7398298979e-01
    6.6299415588e+01   -9.7832000256e-01
    6.6399398804e+01   -9.8266202211e-01
    6.6499412537e+01   -9.8701399565e-01
    6.6599380493e+01   -9.9137699604e-01
    6.6699378967e+01   -9.9575299025e-01
    6.6799461365e+01   -1.0001399517e+00
    6.6899375916e+01   -1.0045399666e+00
    6.6999488831e+01   -1.0089700222e+00
    6.7099540710e+01   -1.0134199858e+00
    6.7199363708e+01   -1.0178699493e+00
    6.7299507141e+01   -1.0223499537e+00
    6.7399497986e+01   -1.0268299580e+00
    6.7499420166e+01   -1.0313199759e+00
    6.7599533081e+01   -1.0358300209e+00
    6.7699516296e+01   -1.0403499603e+00
    6.7799362183e+01   -1.0448800325e+00
    6.7899444580e+01   -1.0494199991e+00
    6.7999511719e+01   -1.0539799929e+00
    6.8099472046e+01   -1.0585399866e+00
    6.8199531555e+01   -1.0631200075e+00
    6.8299430847e+01   -1.0677100420e+00
    6.8399414062e+01   -1.0722999573e+00
    6.8499496460e+01   -1.0769100189e+00
    6.8599418640e+01   -1.0815099478e+00
    6.8699386597e+01   -1.0861200094e+00
    6.8799392700e+01   -1.0907299519e+00
    6.8899421692e+01   -1.0953600407e+00
    6.8999366760e+01   -1.1000000238e+00
    6.9099372864e+01   -1.1046500206e+00
    6.9199440002e+01   -1.1093100309e+00
    6.9299400330e+01   -1.1139899492e+00
    6.9399444580e+01   -1.1186800003e+00
    6.9499412537e+01   -1.1233700514e+00
    6.9599327087e+01   -1.1280699968e+00
    6.9699478149e+01   -1.1327899694e+00
    6.9799331665e+01   -1.1375000477e+00
    6.9899452209e+01   -1.1422300339e+00
    6.9999389648e+01   -1.1469500065e+00
    7.0099426270e+01   -1.1516799927e+00
    7.0199493408e+01   -1.1564199924e+00
    7.0299446106e+01   -1.1611700058e+00
    7.0399475098e+01   -1.1659400463e+00
    7.0499389648e+01   -1.1706999540e+00
    7.0599334717e+01   -1.1754800081e+00
    7.0699302673e+01   -1.1802599430e+00
    7.0799377441e+01   -1.1850500107e+00
    7.0899337769e+01   -1.1898200512e+00
    7.0999313354e+01   -1.1945999861e+00
    7.1099380493e+01   -1.1993999481e+00
    7.1199310303e+01   -1.2042100430e+00
    7.1299301147e+01   -1.2090300322e+00
    7.1399375916e+01   -1.2138799429e+00
    7.1499404907e+01   -1.2187399864e+00
    7.1599403381e+01   -1.2236100435e+00
    7.1699432373e+01   -1.2284899950e+00
    7.1799438477e+01   -1.2333799601e+00
    7.1899360657e+01   -1.2382700443e+00
    7.1999351501e+01   -1.2431800365e+00
    7.2099395752e+01   -1.2481000423e+00
    7.2199386597e+01   -1.2530299425e+00
    7.2299392700e+01   -1.2579699755e+00
    7.2399284363e+01   -1.2629100084e+00
    7.2499351501e+01   -1.2678799629e+00
    7.2599441528e+01   -1.2728799582e+00
    7.2699371338e+01   -1.2778799534e+00
    7.2799301147e+01   -1.2828999758e+00
    7.2899337769e+01   -1.2879400253e+00
    7.2999397278e+01   -1.2929999828e+00
    7.3099411011e+01   -1.2980600595e+00
    7.3199302673e+01   -1.3031300306e+00
    7.3299270630e+01   -1.3082200289e+00
    7.3399269104e+01   -1.3133399487e+00
    7.3499389648e+01   -1.3184900284e+00
    7.3599426270e+01   -1.3236500025e+00
    7.3699432373e+01   -1.3288400173e+00
    7.3799377441e+01   -1.3340300322e+00
    7.3899391174e+01   -1.3392599821e+00
    7.3999351501e+01   -1.3444999456e+00
    7.4099319458e+01   -1.3497600555e+00
    7.4199348450e+01   -1.3550399542e+00
    7.4299362183e+01   -1.3603399992e+00
    7.4399276733e+01   -1.3656400442e+00
    7.4499359131e+01   -1.3709599972e+00
    7.4599411011e+01   -1.3762999773e+00
    7.4699378967e+01   -1.3816599846e+00
    7.4799385071e+01   -1.3870400190e+00
    7.4899284363e+01   -1.3924299479e+00
    7.4999252319e+01   -1.3978500366e+00
    7.5099349976e+01   -1.4032900333e+00
    7.5199287415e+01   -1.4087400436e+00
    7.5299339294e+01   -1.4142199755e+00
    7.5399238586e+01   -1.4197100401e+00
    7.5499366760e+01   -1.4252300262e+00
    7.5599395752e+01   -1.4307600260e+00
    7.5699287415e+01   -1.4363100529e+00
    7.5799400330e+01   -1.4419000149e+00
    7.5899253845e+01   -1.4474899769e+00
    7.5999336243e+01   -1.4531099796e+00
    7.6099342346e+01   -1.4587600231e+00
    7.6199371338e+01   -1.4644299746e+00
    7.6299293518e+01   -1.4701100588e+00
    7.6399307251e+01   -1.4758000374e+00
    7.6499382019e+01   -1.4815100431e+00
    7.6599235535e+01   -1.4872200489e+00
    7.6699325562e+01   -1.4929599762e+00
    7.6799224854e+01   -1.4986900091e+00
    7.6899253845e+01   -1.5044599771e+00
    7.6999343872e+01   -1.5102499723e+00
    7.7099334717e+01   -1.5160599947e+00
    7.7199234009e+01   -1.5218800306e+00
    7.7299263000e+01   -1.5277299881e+00
    7.7399253845e+01   -1.5335799456e+00
    7.7499359131e+01   -1.5394599438e+00
    7.7599250793e+01   -1.5453399420e+00
    7.7699203491e+01   -1.5512399673e+00
    7.7799331665e+01   -1.5571500063e+00
    7.7899253845e+01   -1.5630600452e+00
    7.7999282837e+01   -1.5690000057e+00
    7.8099273682e+01   -1.5749499798e+00
    7.8199310303e+01   -1.5808999538e+00
    7.8299217224e+01   -1.5868699551e+00
    7.8399223328e+01   -1.5928499699e+00
    7.8499313354e+01   -1.5988399982e+00
    7.8599311829e+01   -1.6048300266e+00
    7.8699195862e+01   -1.6108100414e+00
    7.8799255371e+01   -1.6168199778e+00
    7.8899185181e+01   -1.6228300333e+00
    7.8999282837e+01   -1.6288599968e+00
    7.9099205017e+01   -1.6348999739e+00
    7.9199302673e+01   -1.6409499645e+00
    7.9299232483e+01   -1.6470199823e+00
    7.9399223328e+01   -1.6530900002e+00
    7.9499259949e+01   -1.6591800451e+00
    7.9599235535e+01   -1.6652599573e+00
    7.9699226379e+01   -1.6713600159e+00
    7.9799232483e+01   -1.6774699688e+00
    7.9899238586e+01   -1.6835800409e+00
    7.9999221802e+01   -1.6896899939e+00
    8.0099304199e+01   -1.6958099604e+00
    8.0199310303e+01   -1.7019399405e+00
    8.0299293518e+01   -1.7080800533e+00
    8.0399322510e+01   -1.7142399549e+00
    8.0499328613e+01   -1.7203999758e+00
    8.0599273682e+01   -1.7265599966e+00
    8.0699256897e+01   -1.7327400446e+00
    8.0799240112e+01   -1.7388999462e+00
    8.0899208069e+01   -1.7450599670e+00
    8.0999267578e+01   -1.7512300014e+00
    8.1099227905e+01   -1.7574000359e+00
    8.1199195862e+01   -1.7635899782e+00
    8.1299148560e+01   -1.7697900534e+00
    8.1399139404e+01   -1.7760100365e+00
    8.1499137878e+01   -1.7822500467e+00
    8.1599281311e+01   -1.7885099649e+00
    8.1699157715e+01   -1.7947599888e+00
    8.1799186707e+01   -1.8010300398e+00
    8.1899269104e+01   -1.8073199987e+00
    8.1999237061e+01   -1.8135999441e+00
    8.2099151611e+01   -1.8199000359e+00
    8.2199302673e+01   -1.8262100220e+00
    8.2299301147e+01   -1.8325200081e+00
    8.2399291992e+01   -1.8388400078e+00
    8.2499130249e+01   -1.8451700211e+00
    8.2599143982e+01   -1.8515299559e+00
    8.2699134827e+01   -1.8579100370e+00
    8.2799156189e+01   -1.8643000126e+00
    8.2899230957e+01   -1.8707100153e+00
    8.2999198914e+01   -1.8771200180e+00
    8.3099220276e+01   -1.8835400343e+00
    8.3199157715e+01   -1.8899799585e+00
    8.3299232483e+01   -1.8964400291e+00
    8.3399177551e+01   -1.9029099941e+00
    8.3499122620e+01   -1.9094099998e+00
    8.3599105835e+01   -1.9159400463e+00
    8.3699195862e+01   -1.9224799871e+00
    8.3799148560e+01   -1.9290299416e+00
    8.3899253845e+01   -1.9356199503e+00
    8.3999259949e+01   -1.9422099590e+00
    8.4099105835e+01   -1.9488099813e+00
    8.4199127197e+01   -1.9554400444e+00
    8.4299171448e+01   -1.9620900154e+00
    8.4399276733e+01   -1.9687500000e+00
    8.4499244690e+01   -1.9753999710e+00
    8.4599136353e+01   -1.9820699692e+00
    8.4699180603e+01   -1.9887800217e+00
    8.4799186707e+01   -1.9954899549e+00
    8.4899238586e+01   -2.0022399426e+00
    8.4999252319e+01   -2.0089900494e+00
    8.5099166870e+01   -2.0157599449e+00
    8.5199203491e+01   -2.0225598812e+00
    8.5299133301e+01   -2.0293600559e+00
    8.5399215698e+01   -2.0361900330e+00
    8.5499084473e+01   -2.0430200100e+00
    8.5599105835e+01   -2.0498800278e+00
    8.5699226379e+01   -2.0567800999e+00
    8.5799163818e+01   -2.0636699200e+00
    8.5899246216e+01   -2.0706000328e+00
    8.5999076843e+01   -2.0775299072e+00
    8.6099128723e+01   -2.0845000744e+00
    8.6199073792e+01   -2.0914900303e+00
    8.6299217224e+01   -2.0985100269e+00
    8.6399215698e+01   -2.1055200100e+00
    8.6499237061e+01   -2.1125400066e+00
    8.6599082947e+01   -2.1195600033e+00
    8.6699096680e+01   -2.1266200542e+00
    8.6799194336e+01   -2.1336801052e+00
    8.6899200439e+01   -2.1407599449e+00
    8.6999214172e+01   -2.1478700638e+00
    8.7099174500e+01   -2.1549899578e+00
    8.7199073792e+01   -2.1621201038e+00
    8.7299118042e+01   -2.1692800522e+00
    8.7399047852e+01   -2.1764400005e+00
    8.7499076843e+01   -2.1836199760e+00
    8.7599090576e+01   -2.1908199787e+00
    8.7699226379e+01   -2.1980400085e+00
    8.7799179077e+01   -2.2052500248e+00
    8.7899223328e+01   -2.2124800682e+00
    8.7999160767e+01   -2.2197101116e+00
    8.8099220276e+01   -2.2269699574e+00
    8.8199180603e+01   -2.2342400551e+00
    8.8299087524e+01   -2.2415099144e+00
    8.8399131775e+01   -2.2488000393e+00
    8.8499206543e+01   -2.2560999393e+00
    8.8599098206e+01   -2.2633900642e+00
    8.8699096680e+01   -2.2706899643e+00
    8.8799209595e+01   -2.2780001163e+00
    8.8899154663e+01   -2.2853100300e+00
    8.8999183655e+01   -2.2926399708e+00
    8.9099166870e+01   -2.2999899387e+00
    8.9199157715e+01   -2.3073399067e+00
    8.9299041748e+01   -2.3146998882e+00
    8.9399047852e+01   -2.3220798969e+00
    8.9499176025e+01   -2.3294799328e+00
    8.9599075317e+01   -2.3368699551e+00
    8.9699188232e+01   -2.3442900181e+00
    8.9799171448e+01   -2.3517000675e+00
    8.9899032593e+01   -2.3591101170e+00
    8.9999038696e+01   -2.3665299416e+00
    9.0099159241e+01   -2.3739600182e+00
    9.0199005127e+01   -2.3813900948e+00
    9.0299125671e+01   -2.3888499737e+00
    9.0399063110e+01   -2.3963100910e+00
    9.0499130249e+01   -2.4037799835e+00
    9.0599159241e+01   -2.4112699032e+00
    9.0699081421e+01   -2.4187400341e+00
    9.0799171448e+01   -2.4262299538e+00
    9.0899009705e+01   -2.4336800575e+00
    9.0999168396e+01   -2.4411599636e+00
    9.1099151611e+01   -2.4486401081e+00
    9.1199073792e+01   -2.4561500549e+00
    9.1299057007e+01   -2.4636700153e+00
    9.1398994446e+01   -2.4712100029e+00
    9.1499046326e+01   -2.4787800312e+00
    9.1599113464e+01   -2.4863700867e+00
    9.1699127197e+01   -2.4939599037e+00
    9.1799171448e+01   -2.5015699863e+00
    9.1899078369e+01   -2.5091700554e+00
    9.1999114990e+01   -2.5168099403e+00
    9.2099098206e+01   -2.5244500637e+00
    9.2199127197e+01   -2.5321099758e+00
    9.2299110413e+01   -2.5397601128e+00
    9.2399101257e+01   -2.5474300385e+00
    9.2499023438e+01   -2.5551199913e+00
    9.2599098206e+01   -2.5628499985e+00
    9.2699005127e+01   -2.5705800056e+00
    9.2799041748e+01   -2.5783500671e+00
    9.2899116516e+01   -2.5861499310e+00
    9.2999008179e+01   -2.5939400196e+00
    9.3099113464e+01   -2.6017599106e+00
    9.3199012756e+01   -2.6095900536e+00
    9.3299034119e+01   -2.6174499989e+00
    9.3399032593e+01   -2.6253399849e+00
    9.3499137878e+01   -2.6332700253e+00
    9.3599136353e+01   -2.6412301064e+00
    9.3699119568e+01   -2.6491999626e+00
    9.3798965454e+01   -2.6571900845e+00
    9.3899009705e+01   -2.6652200222e+00
    9.3998992920e+01   -2.6732699871e+00
    9.4099067688e+01   -2.6813600063e+00
    9.4199058533e+01   -2.6894700527e+00
    9.4298950195e+01   -2.6975901127e+00
    9.4398979187e+01   -2.7057399750e+00
    9.4499099731e+01   -2.7139101028e+00
    9.4599098206e+01   -2.7221000195e+00
    9.4699066162e+01   -2.7303199768e+00
    9.4798995972e+01   -2.7385699749e+00
    9.4898948669e+01   -2.7468500137e+00
    9.4998939514e+01   -2.7551600933e+00
    9.5099014282e+01   -2.7635099888e+00
    9.5198974609e+01   -2.7718799114e+00
    9.5298995972e+01   -2.7802801132e+00
    9.5399063110e+01   -2.7887101173e+00
    9.5499069214e+01   -2.7971599102e+00
    9.5598960876e+01   -2.8056399822e+00
    9.5698982239e+01   -2.8141698837e+00
    9.5799026489e+01   -2.8227200508e+00
    9.5899078369e+01   -2.8313100338e+00
    9.5998947144e+01   -2.8399200439e+00
    9.6098976135e+01   -2.8485798836e+00
    9.6198974609e+01   -2.8572800159e+00
    9.6299003601e+01   -2.8659999371e+00
    9.6399070740e+01   -2.8747498989e+00
    9.6498947144e+01   -2.8835000992e+00
    9.6598953247e+01   -2.8922901154e+00
    9.6698928833e+01   -2.9010999203e+00
    9.6799049377e+01   -2.9099500179e+00
    9.6898971558e+01   -2.9188199043e+00
    9.6999076843e+01   -2.9277400970e+00
    9.7098937988e+01   -2.9366700649e+00
    9.7198974609e+01   -2.9456400871e+00
    9.7298912048e+01   -2.9546298981e+00
    9.7399055481e+01   -2.9636700153e+00
    9.7499008179e+01   -2.9727199078e+00
    9.7598922729e+01   -2.9818000793e+00
    9.7698928833e+01   -2.9909100533e+00
    9.7799018860e+01   -3.0000400543e+00
    9.7899002075e+01   -3.0091900826e+00
    9.7998908997e+01   -3.0183598995e+00
    9.8098945618e+01   -3.0275700092e+00
    9.8198989868e+01   -3.0368099213e+00
    9.8298927307e+01   -3.0460600853e+00
    9.8399032593e+01   -3.0553600788e+00
    9.8498947144e+01   -3.0646500587e+00
    9.8599029541e+01   -3.0739700794e+00
    9.8698898315e+01   -3.0832901001e+00
    9.8798881531e+01   -3.0926299095e+00
    9.8899024963e+01   -3.1020100117e+00
    9.8998886108e+01   -3.1113901138e+00
    9.9098922729e+01   -3.1208200455e+00
    9.9199020386e+01   -3.1302900314e+00
    9.9299049377e+01   -3.1397700310e+00
    9.9398948669e+01   -3.1492600441e+00
    9.9498939514e+01   -3.1587800980e+00
    9.9598899841e+01   -3.1683199406e+00
    9.9698875427e+01   -3.1778800488e+00
    9.9798973083e+01   -3.1874799728e+00
    9.9898933411e+01   -3.1970899105e+00
    9.9998931885e+01   -3.2067101002e+00
    1.0009902954e+02   -3.2163500786e+00
    1.0019895935e+02   -3.2260100842e+00
    1.0029888916e+02   -3.2356998920e+00
    1.0039891815e+02   -3.2454099655e+00
    1.0049889374e+02   -3.2551500797e+00
    1.0059890747e+02   -3.2648999691e+00
    1.0069886017e+02   -3.2746798992e+00
    1.0079886627e+02   -3.2844500542e+00
    1.0089900970e+02   -3.2942399979e+00
    1.0099894714e+02   -3.3040299416e+00
    1.0109899139e+02   -3.3138499260e+00
    1.0119901276e+02   -3.3237199783e+00
    1.0129894257e+02   -3.3336000443e+00
    1.0139893341e+02   -3.3435299397e+00
    1.0149890137e+02   -3.3534998894e+00
    1.0159886932e+02   -3.3635001183e+00
    1.0169893646e+02   -3.3735399246e+00
    1.0179895020e+02   -3.3835899830e+00
    1.0189888000e+02   -3.3936600685e+00
    1.0199893188e+02   -3.4037699699e+00
    1.0209889221e+02   -3.4138998985e+00
    1.0219882965e+02   -3.4240500927e+00
    1.0229891968e+02   -3.4342300892e+00
    1.0239894867e+02   -3.4444301128e+00
    1.0249891663e+02   -3.4546699524e+00
    1.0259889984e+02   -3.4649600983e+00
    1.0269891357e+02   -3.4752900600e+00
    1.0279884338e+02   -3.4856500626e+00
    1.0289882660e+02   -3.4960498810e+00
    1.0299896240e+02   -3.5065000057e+00
    1.0309884644e+02   -3.5169498920e+00
    1.0319883728e+02   -3.5274500847e+00
    1.0329885864e+02   -3.5379900932e+00
    1.0339890289e+02   -3.5485699177e+00
    1.0349893188e+02   -3.5592200756e+00
    1.0359889221e+02   -3.5699000359e+00
    1.0369889832e+02   -3.5806300640e+00
    1.0379881287e+02   -3.5913798809e+00
    1.0389884186e+02   -3.6021900177e+00
    1.0399883270e+02   -3.6130399704e+00
    1.0409895325e+02   -3.6239500046e+00
    1.0419892883e+02   -3.6348800659e+00
    1.0429884338e+02   -3.6458499432e+00
    1.0439891815e+02   -3.6568601131e+00
    1.0449884796e+02   -3.6679000854e+00
    1.0459883881e+02   -3.6789898872e+00
    1.0469892883e+02   -3.6901299953e+00
    1.0479882050e+02   -3.7012999058e+00
    1.0489888000e+02   -3.7125298977e+00
    1.0499884796e+02   -3.7237999439e+00
    1.0509893036e+02   -3.7351300716e+00
    1.0519892883e+02   -3.7464900017e+00
    1.0529891205e+02   -3.7578899860e+00
    1.0539888000e+02   -3.7693300247e+00
    1.0549889374e+02   -3.7808101177e+00
    1.0559893799e+02   -3.7923500538e+00
    1.0569888306e+02   -3.8039300442e+00
    1.0579888153e+02   -3.8155601025e+00
    1.0589882660e+02   -3.8272399902e+00
    1.0599890137e+02   -3.8389799595e+00
    1.0609880829e+02   -3.8507599831e+00
    1.0619891357e+02   -3.8626101017e+00
    1.0629891968e+02   -3.8745000362e+00
    1.0639891815e+02   -3.8864099979e+00
    1.0649886322e+02   -3.8983399868e+00
    1.0659889984e+02   -3.9103300571e+00
    1.0669886780e+02   -3.9223399162e+00
    1.0679878998e+02   -3.9343900681e+00
    1.0689890289e+02   -3.9465000629e+00
    1.0699884033e+02   -3.9586400986e+00
    1.0709887695e+02   -3.9708499908e+00
    1.0719886017e+02   -3.9830799103e+00
    1.0729892731e+02   -3.9953598976e+00
    1.0739888000e+02   -4.0076699257e+00
    1.0749880981e+02   -4.0200200081e+00
    1.0759884644e+02   -4.0324201584e+00
    1.0769880676e+02   -4.0448398590e+00
    1.0779876709e+02   -4.0573000908e+00
    1.0789891052e+02   -4.0697999001e+00
    1.0799880981e+02   -4.0823202133e+00
    1.0809876251e+02   -4.0948801041e+00
    1.0819879150e+02   -4.1074900627e+00
    1.0829882812e+02   -4.1201300621e+00
    1.0839884949e+02   -4.1328101158e+00
    1.0849874878e+02   -4.1454901695e+00
    1.0859873199e+02   -4.1581997871e+00
    1.0869891357e+02   -4.1709499359e+00
    1.0879885101e+02   -4.1837000847e+00
    1.0889880371e+02   -4.1964797974e+00
    1.0899874878e+02   -4.2092900276e+00
    1.0909882355e+02   -4.2221598625e+00
    1.0919873810e+02   -4.2350502014e+00
    1.0929882050e+02   -4.2479901314e+00
    1.0939888763e+02   -4.2609701157e+00
    1.0949877930e+02   -4.2739400864e+00
    1.0959877777e+02   -4.2869601250e+00
    1.0969877625e+02   -4.3000102043e+00
    1.0979876709e+02   -4.3130998611e+00
    1.0989875793e+02   -4.3262000084e+00
    1.0999880219e+02   -4.3393402100e+00
    1.1009886169e+02   -4.3525099754e+00
    1.1019870758e+02   -4.3656902313e+00
    1.1029881287e+02   -4.3789401054e+00
    1.1039881897e+02   -4.3922100067e+00
    1.1049880981e+02   -4.4055199623e+00
    1.1059874725e+02   -4.4188499451e+00
    1.1069873810e+02   -4.4322299957e+00
    1.1079885101e+02   -4.4456200600e+00
    1.1089878082e+02   -4.4590101242e+00
    1.1099881744e+02   -4.4724302292e+00
    1.1109870911e+02   -4.4858798981e+00
    1.1119877625e+02   -4.4994101524e+00
    1.1129882050e+02   -4.5129799843e+00
    1.1139884186e+02   -4.5266098976e+00
    1.1149875641e+02   -4.5402698517e+00
    1.1159871674e+02   -4.5539999008e+00
    1.1169876862e+02   -4.5677700043e+00
    1.1179882050e+02   -4.5815901756e+00
    1.1189884186e+02   -4.5954499245e+00
    1.1199886322e+02   -4.6093502045e+00
    1.1209867859e+02   -4.6232800484e+00
    1.1219873810e+02   -4.6372900009e+00
    1.1229868317e+02   -4.6513099670e+00
    1.1239874268e+02   -4.6654000282e+00
    1.1249874115e+02   -4.6795601845e+00
    1.1259877014e+02   -4.6937999725e+00
    1.1269883728e+02   -4.7080998421e+00
    1.1279879761e+02   -4.7224597931e+00
    1.1289877319e+02   -4.7368798256e+00
    1.1299874878e+02   -4.7513499260e+00
    1.1309880829e+02   -4.7658801079e+00
    1.1319882965e+02   -4.7804698944e+00
    1.1329881287e+02   -4.7951197624e+00
    1.1339878845e+02   -4.8098402023e+00
    1.1349877930e+02   -4.8246297836e+00
    1.1359870148e+02   -4.8394899368e+00
    1.1369879150e+02   -4.8544301987e+00
    1.1379875946e+02   -4.8694100380e+00
    1.1389871216e+02   -4.8844599724e+00
    1.1399874115e+02   -4.8995699883e+00
    1.1409877014e+02   -4.9147500992e+00
    1.1419879913e+02   -4.9299898148e+00
    1.1429881287e+02   -4.9452800751e+00
    1.1439880371e+02   -4.9606099129e+00
    1.1449871063e+02   -4.9759798050e+00
    1.1459874725e+02   -4.9914398193e+00
    1.1469879913e+02   -5.0069599152e+00
    1.1479876709e+02   -5.0225400925e+00
    1.1489865112e+02   -5.0381798744e+00
    1.1499873352e+02   -5.0539097786e+00
    1.1509873962e+02   -5.0696997643e+00
    1.1519866180e+02   -5.0855398178e+00
    1.1529866028e+02   -5.1014599800e+00
    1.1539875031e+02   -5.1174597740e+00
    1.1549871063e+02   -5.1335000992e+00
    1.1559868622e+02   -5.1496300697e+00
    1.1569869232e+02   -5.1658401489e+00
    1.1579863739e+02   -5.1821098328e+00
    1.1589862823e+02   -5.1984500885e+00
    1.1599868774e+02   -5.2148900032e+00
    1.1609874725e+02   -5.2314200401e+00
    1.1619870758e+02   -5.2480001450e+00
    1.1629866028e+02   -5.2646398544e+00
    1.1639874268e+02   -5.2813501358e+00
    1.1649867249e+02   -5.2980699539e+00
    1.1659861755e+02   -5.3148498535e+00
    1.1669870758e+02   -5.3317198753e+00
    1.1679865265e+02   -5.3486099243e+00
    1.1689875031e+02   -5.3655900955e+00
    1.1699867249e+02   -5.3826198578e+00
    1.1709877014e+02   -5.3997402191e+00
    1.1719859314e+02   -5.4168701172e+00
    1.1729872131e+02   -5.4341201782e+00
    1.1739877319e+02   -5.4514198303e+00
    1.1749864197e+02   -5.4687500000e+00
    1.1759870148e+02   -5.4861898422e+00
    1.1769869995e+02   -5.5036802292e+00
    1.1779873657e+02   -5.5212302208e+00
    1.1789877319e+02   -5.5388398170e+00
    1.1799870300e+02   -5.5565099716e+00
    1.1809868622e+02   -5.5742602348e+00
    1.1819867706e+02   -5.5920801163e+00
    1.1829869080e+02   -5.6099700928e+00
    1.1839862061e+02   -5.6279101372e+00
    1.1849871826e+02   -5.6459398270e+00
    1.1859860992e+02   -5.6639599800e+00
    1.1869872284e+02   -5.6820797920e+00
    1.1879862213e+02   -5.7002000809e+00
    1.1889861298e+02   -5.7184000015e+00
    1.1899871063e+02   -5.7366700172e+00
    1.1909858704e+02   -5.7549600601e+00
    1.1919867706e+02   -5.7733497620e+00
    1.1929872131e+02   -5.7917699814e+00
    1.1939861298e+02   -5.8102102280e+00
    1.1949868774e+02   -5.8287301064e+00
    1.1959864044e+02   -5.8472499847e+00
    1.1969863129e+02   -5.8658199310e+00
    1.1979869843e+02   -5.8844499588e+00
    1.1989866638e+02   -5.9030799866e+00
    1.1999858093e+02   -5.9217300415e+00
    1.2009867859e+02   -5.9404602051e+00
    1.2019856262e+02   -5.9591898918e+00
    1.2029869843e+02   -5.9780101776e+00
    1.2039855957e+02   -5.9968299866e+00
    1.2049855804e+02   -6.0157098770e+00
    1.2059868622e+02   -6.0346698761e+00
    1.2069870758e+02   -6.0536398888e+00
    1.2079866791e+02   -6.0726099014e+00
    1.2089855194e+02   -6.0915598869e+00
    1.2099855042e+02   -6.1105699539e+00
    1.2109855652e+02   -6.1296200752e+00
    1.2119862366e+02   -6.1487498283e+00
    1.2129860687e+02   -6.1679100990e+00
    1.2139871216e+02   -6.1871399879e+00
    1.2149852753e+02   -6.2063698769e+00
    1.2159870148e+02   -6.2257099152e+00
    1.2169860077e+02   -6.2450199127e+00
    1.2179860687e+02   -6.2643699646e+00
    1.2189859009e+02   -6.2837300301e+00
    1.2199865723e+02   -6.3031401634e+00
    1.2209867859e+02   -6.3225698471e+00
    1.2219856262e+02   -6.3419799805e+00
    1.2229859161e+02   -6.3614301682e+00
    1.2239865875e+02   -6.3808999062e+00
    1.2249858856e+02   -6.4003901482e+00
    1.2259868622e+02   -6.4199500084e+00
    1.2269857788e+02   -6.4394998550e+00
    1.2279862213e+02   -6.4591097832e+00
    1.2289856720e+02   -6.4787201881e+00
    1.2299864960e+02   -6.4983701706e+00
    1.2309861755e+02   -6.5180001259e+00
    1.2319857025e+02   -6.5376400948e+00
    1.2329866791e+02   -6.5573301315e+00
    1.2339864349e+02   -6.5770201683e+00
    1.2349857330e+02   -6.5967397690e+00
    1.2359851074e+02   -6.6164798737e+00
    1.2369857788e+02   -6.6362600327e+00
    1.2379863739e+02   -6.6560401917e+00
    1.2389861298e+02   -6.6758298874e+00
    1.2399857330e+02   -6.6956100464e+00
    1.2409866333e+02   -6.7154197693e+00
    1.2419859314e+02   -6.7352199554e+00
    1.2429862976e+02   -6.7550201416e+00
    1.2439855957e+02   -6.7747998238e+00
    1.2449858093e+02   -6.7945699692e+00
    1.2459860992e+02   -6.8143501282e+00
    1.2469847870e+02   -6.8341097832e+00
    1.2479860687e+02   -6.8539299965e+00
    1.2489862823e+02   -6.8737301826e+00
    1.2499848175e+02   -6.8934898376e+00
    1.2509848785e+02   -6.9132800102e+00
    1.2519853210e+02   -6.9330701828e+00
    1.2529847717e+02   -6.9528198242e+00
    1.2539849854e+02   -6.9725799561e+00
    1.2549852753e+02   -6.9923200607e+00
    1.2559858704e+02   -7.0120701790e+00
    1.2569860840e+02   -7.0317997932e+00
    1.2579850769e+02   -7.0514898300e+00
    1.2589858246e+02   -7.0712099075e+00
    1.2599852753e+02   -7.0908999443e+00
    1.2609851837e+02   -7.1105999947e+00
    1.2619860077e+02   -7.1303000450e+00
    1.2629859924e+02   -7.1499700546e+00
    1.2639849854e+02   -7.1695599556e+00
    1.2649848175e+02   -7.1891298294e+00
    1.2659853363e+02   -7.2086801529e+00
    1.2669847870e+02   -7.2281799316e+00
    1.2679846954e+02   -7.2476501465e+00
    1.2689852905e+02   -7.2671198845e+00
    1.2699861908e+02   -7.2865800858e+00
    1.2709854126e+02   -7.3059902191e+00
    1.2719860840e+02   -7.3253898621e+00
    1.2729846954e+02   -7.3447198868e+00
    1.2739855194e+02   -7.3640499115e+00
    1.2749859619e+02   -7.3833498955e+00
    1.2759858704e+02   -7.4025897980e+00
    1.2769860077e+02   -7.4218001366e+00
    1.2779853821e+02   -7.4409499168e+00
    1.2789846802e+02   -7.4600400925e+00
    1.2799845123e+02   -7.4791097641e+00
    1.2809846497e+02   -7.4981498718e+00
    1.2819851685e+02   -7.5171499252e+00
    1.2829855347e+02   -7.5361099243e+00
    1.2839849854e+02   -7.5550098419e+00
    1.2849847412e+02   -7.5738501549e+00
    1.2859855652e+02   -7.5926399231e+00
    1.2869859314e+02   -7.6113500595e+00
    1.2879861450e+02   -7.6300001144e+00
    1.2889855957e+02   -7.6485900879e+00
    1.2899859619e+02   -7.6671400070e+00
    1.2909864807e+02   -7.6856498718e+00
    1.2919850159e+02   -7.7040801048e+00
    1.2929866028e+02   -7.7225098610e+00
    1.2939849854e+02   -7.7408199310e+00
    1.2949856567e+02   -7.7590999603e+00
    1.2959854126e+02   -7.7772998810e+00
    1.2969856262e+02   -7.7954502106e+00
    1.2979859924e+02   -7.8135199547e+00
    1.2989860535e+02   -7.8315200806e+00
    1.2999867249e+02   -7.8494400978e+00
    1.3009855652e+02   -7.8672599792e+00
    1.3019866943e+02   -7.8850498199e+00
    1.3029856873e+02   -7.9027500153e+00
    1.3039860535e+02   -7.9204001427e+00
    1.3049873352e+02   -7.9380002022e+00
    1.3059861755e+02   -7.9554901123e+00
    1.3069860840e+02   -7.9729299545e+00
    1.3079870605e+02   -7.9902801514e+00
    1.3089869690e+02   -8.0074901581e+00
    1.3099877930e+02   -8.0246400833e+00
    1.3109866333e+02   -8.0416898727e+00
    1.3119879150e+02   -8.0587396622e+00
    1.3129873657e+02   -8.0757102966e+00
    1.3139869690e+02   -8.0926399231e+00
    1.3149873352e+02   -8.1095504761e+00
    1.3159877014e+02   -8.1263999939e+00
    1.3169868469e+02   -8.1431703568e+00
    1.3179873657e+02   -8.1598997116e+00
    1.3189866638e+02   -8.1765298843e+00
    1.3199873352e+02   -8.1931295395e+00
    1.3209867859e+02   -8.2096595764e+00
    1.3219885254e+02   -8.2261495590e+00
    1.3229873657e+02   -8.2425098419e+00
    1.3239875793e+02   -8.2588396072e+00
    1.3249885559e+02   -8.2751398087e+00
    1.3259869385e+02   -8.2913703918e+00
    1.3269874573e+02   -8.3075704575e+00
    1.3279879761e+02   -8.3237304688e+00
    1.3289883423e+02   -8.3398303986e+00
    1.3299884033e+02   -8.3558502197e+00
    1.3309878540e+02   -8.3717899323e+00
    1.3319885254e+02   -8.3876800537e+00
    1.3329884338e+02   -8.4034996033e+00
    1.3339892578e+02   -8.4192895889e+00
    1.3349884033e+02   -8.4350204468e+00
    1.3359878540e+02   -8.4507198334e+00
    1.3369877625e+02   -8.4663696289e+00
    1.3379888916e+02   -8.4819898605e+00
    1.3389889526e+02   -8.4975500107e+00
    1.3399887085e+02   -8.5130596161e+00
    1.3409890747e+02   -8.5285396576e+00
    1.3419897461e+02   -8.5439796448e+00
    1.3429887390e+02   -8.5593500137e+00
    1.3439880371e+02   -8.5746603012e+00
    1.3449896240e+02   -8.5899496078e+00
    1.3459886169e+02   -8.6051702499e+00
    1.3469900513e+02   -8.6204004288e+00
    1.3479890442e+02   -8.6355695724e+00
    1.3489892578e+02   -8.6507396698e+00
    1.3499890137e+02   -8.6658802032e+00
    1.3509890747e+02   -8.6809797287e+00
    1.3519891357e+02   -8.6960496902e+00
    1.3529893494e+02   -8.7110795975e+00
    1.3539889526e+02   -8.7260599136e+00
    1.3549890137e+02   -8.7410001755e+00
    1.3559887695e+02   -8.7559204102e+00
    1.3569897461e+02   -8.7708196640e+00
    1.3579901123e+02   -8.7856903076e+00
    1.3589898682e+02   -8.8005104065e+00
    1.3599890137e+02   -8.8153095245e+00
    1.3609898376e+02   -8.8301296234e+00
    1.3619894409e+02   -8.8449096680e+00
    1.3629898071e+02   -8.8596696854e+00
    1.3639910889e+02   -8.8743896484e+00
    1.3649894714e+02   -8.8890199661e+00
    1.3659907532e+02   -8.9036798477e+00
    1.3669912720e+02   -8.9182996750e+00
    1.3679899597e+02   -8.9328804016e+00
    1.3689895630e+02   -8.9474802017e+00
    1.3699903870e+02   -8.9621000290e+00
    1.3709899902e+02   -8.9767198563e+00
    1.3719905090e+02   -8.9913501740e+00
    1.3729899597e+02   -9.0059604645e+00
    1.3739915466e+02   -9.0205898285e+00
    1.3749913025e+02   -9.0352001190e+00
    1.3759915161e+02   -9.0498104095e+00
    1.3769909668e+02   -9.0643997192e+00
    1.3779910278e+02   -9.0789899826e+00
    1.3789910889e+02   -9.0935602188e+00
    1.3799906921e+02   -9.1081399918e+00
    1.3809921265e+02   -9.1227502823e+00
    1.3819921875e+02   -9.1373395920e+00
    1.3829916382e+02   -9.1519298553e+00
    1.3839907837e+02   -9.1665296555e+00
    1.3849917603e+02   -9.1811304092e+00
    1.3859916687e+02   -9.1956996918e+00
    1.3869920349e+02   -9.2102699280e+00
    1.3879908752e+02   -9.2248096466e+00
    1.3889912415e+02   -9.2393903732e+00
    1.3899908447e+02   -9.2539796829e+00
    1.3909922791e+02   -9.2686195374e+00
    1.3919911194e+02   -9.2832603455e+00
    1.3929922485e+02   -9.2979497910e+00
    1.3939927673e+02   -9.3126602173e+00
    1.3949929810e+02   -9.3273801804e+00
    1.3959913635e+02   -9.3420896530e+00
    1.3969929504e+02   -9.3568696976e+00
    1.3979917908e+02   -9.3716297150e+00
    1.3989920044e+02   -9.3864202499e+00
    1.3999916077e+02   -9.4012203217e+00
    1.4009925842e+02   -9.4160604477e+00
    1.4019923401e+02   -9.4309101105e+00
    1.4029917908e+02   -9.4457998276e+00
    1.4039918518e+02   -9.4607295990e+00
    1.4049929810e+02   -9.4757099152e+00
    1.4059925842e+02   -9.4906997681e+00
    1.4069934082e+02   -9.5057401657e+00
    1.4079927063e+02   -9.5207500458e+00
    1.4089927673e+02   -9.5357599258e+00
    1.4099934387e+02   -9.5508003235e+00
    1.4109927368e+02   -9.5658702850e+00
    1.4119932556e+02   -9.5810298920e+00
    1.4129925537e+02   -9.5962295532e+00
    1.4139933777e+02   -9.6115398407e+00
    1.4149928284e+02   -9.6269102097e+00
    1.4159936523e+02   -9.6423702240e+00
    1.4169929504e+02   -9.6578798294e+00
    1.4179933167e+02   -9.6734600067e+00
    1.4189935303e+02   -9.6891098022e+00
    1.4199931335e+02   -9.7048101425e+00
    1.4209941101e+02   -9.7206201553e+00
    1.4219935608e+02   -9.7364597321e+00
    1.4229931641e+02   -9.7523698807e+00
    1.4239945984e+02   -9.7683897018e+00
    1.4249943542e+02   -9.7844896317e+00
    1.4259944153e+02   -9.8007001877e+00
    1.4269938660e+02   -9.8169898987e+00
    1.4279943848e+02   -9.8333997726e+00
    1.4289932251e+02   -9.8498697281e+00
    1.4299949646e+02   -9.8664598465e+00
    1.4309941101e+02   -9.8830795288e+00
    1.4319949341e+02   -9.8998203278e+00
    1.4329942322e+02   -9.9166202545e+00
    1.4339950562e+02   -9.9335498810e+00
    1.4349949646e+02   -9.9505901337e+00
    1.4359938049e+02   -9.9677200317e+00
    1.4369952393e+02   -9.9849901199e+00
    1.4379948425e+02   -1.0002300262e+01
    1.4389949036e+02   -1.0019800186e+01
    1.4399946594e+02   -1.0037300110e+01
    1.4409941101e+02   -1.0055000305e+01
    1.4419946289e+02   -1.0072699547e+01
    1.4429953003e+02   -1.0090600014e+01
    1.4439956665e+02   -1.0108499527e+01
    1.4449946594e+02   -1.0126500130e+01
    1.4459945679e+02   -1.0144599915e+01
    1.4469944763e+02   -1.0162899971e+01
    1.4479957581e+02   -1.0181300163e+01
    1.4489962769e+02   -1.0199899673e+01
    1.4499945068e+02   -1.0218500137e+01
    1.4509954834e+02   -1.0237299919e+01
    1.4519961548e+02   -1.0256199837e+01
    1.4529960632e+02   -1.0275199890e+01
    1.4539959717e+02   -1.0294400215e+01
    1.4549951172e+02   -1.0313699722e+01
    1.4559948730e+02   -1.0333100319e+01
    1.4569955444e+02   -1.0352700233e+01
    1.4579965210e+02   -1.0372400284e+01
    1.4589964294e+02   -1.0392200470e+01
    1.4599964905e+02   -1.0412199974e+01
    1.4609959412e+02   -1.0432299614e+01
    1.4619966125e+02   -1.0452500343e+01
    1.4629966736e+02   -1.0472800255e+01
    1.4639953613e+02   -1.0493200302e+01
    1.4649963379e+02   -1.0513799667e+01
    1.4659959412e+02   -1.0534399986e+01
    1.4669969177e+02   -1.0555199623e+01
    1.4679971313e+02   -1.0576000214e+01
    1.4689965820e+02   -1.0597000122e+01
    1.4699966431e+02   -1.0618200302e+01
    1.4709962463e+02   -1.0639399529e+01
    1.4719961548e+02   -1.0660900116e+01
    1.4729971313e+02   -1.0682399750e+01
    1.4739970398e+02   -1.0704099655e+01
    1.4749960327e+02   -1.0725899696e+01
    1.4759959412e+02   -1.0747799873e+01
    1.4769967651e+02   -1.0769900322e+01
    1.4779972839e+02   -1.0792099953e+01
    1.4789979553e+02   -1.0814399719e+01
    1.4799966431e+02   -1.0836799622e+01
    1.4809965515e+02   -1.0859399796e+01
    1.4819970703e+02   -1.0882200241e+01
    1.4829981995e+02   -1.0904999733e+01
    1.4839965820e+02   -1.0928000450e+01
    1.4849980164e+02   -1.0951100349e+01
    1.4859980774e+02   -1.0974300385e+01
    1.4869973755e+02   -1.0997599602e+01
    1.4879968262e+02   -1.1020999908e+01
    1.4889970398e+02   -1.1044599533e+01
    1.4899977112e+02   -1.1068200111e+01
    1.4909977722e+02   -1.1092000008e+01
    1.4919973755e+02   -1.1116000175e+01
    1.4929983521e+02   -1.1140000343e+01
    1.4939976501e+02   -1.1164099693e+01
    1.4949981689e+02   -1.1188400269e+01
    1.4959986877e+02   -1.1212699890e+01
    1.4969989014e+02   -1.1237199783e+01
    1.4979981995e+02   -1.1261699677e+01
    1.4989985657e+02   -1.1286399841e+01
    1.4999977112e+02   -1.1311100006e+01
    1.5009980774e+02   -1.1335900307e+01
    1.5019978333e+02   -1.1360799789e+01
    1.5029983521e+02   -1.1385899544e+01
    1.5039993286e+02   -1.1411000252e+01
    1.5049981689e+02   -1.1436300278e+01
    1.5059982300e+02   -1.1461600304e+01
    1.5069981384e+02   -1.1487099648e+01
    1.5079986572e+02   -1.1512599945e+01
    1.5089996338e+02   -1.1538200378e+01
    1.5099995422e+02   -1.1563799858e+01
    1.5109996033e+02   -1.1589599609e+01
    1.5119987488e+02   -1.1615500450e+01
    1.5129997253e+02   -1.1641500473e+01
    1.5139984131e+02   -1.1667599678e+01
    1.5149986267e+02   -1.1693799973e+01
    1.5159991455e+02   -1.1720199585e+01
    1.5169996643e+02   -1.1746700287e+01
    1.5179989624e+02   -1.1773200035e+01
    1.5189994812e+02   -1.1799900055e+01
    1.5199995422e+02   -1.1826600075e+01
    1.5209996033e+02   -1.1853400230e+01
    1.5219998169e+02   -1.1880399704e+01
    1.5229997253e+02   -1.1907299995e+01
    1.5239997864e+02   -1.1934399605e+01
    1.5249992371e+02   -1.1961500168e+01
    1.5260000610e+02   -1.1988800049e+01
    1.5269993591e+02   -1.2016200066e+01
    1.5280009460e+02   -1.2043700218e+01
    1.5289999390e+02   -1.2071200371e+01
    1.5299998474e+02   -1.2098799706e+01
    1.5309999084e+02   -1.2126399994e+01
    1.5319996643e+02   -1.2154199600e+01
    1.5330006409e+02   -1.2182000160e+01
    1.5339997864e+02   -1.2209899902e+01
    1.5350001526e+02   -1.2237899780e+01
    1.5360005188e+02   -1.2265999794e+01
    1.5370013428e+02   -1.2294199944e+01
    1.5380017090e+02   -1.2322500229e+01
    1.5390007019e+02   -1.2350799561e+01
    1.5400004578e+02   -1.2379199982e+01
    1.5410003662e+02   -1.2407600403e+01
    1.5420008850e+02   -1.2436200142e+01
    1.5430006409e+02   -1.2464699745e+01
    1.5440019226e+02   -1.2493399620e+01
    1.5450003052e+02   -1.2522000313e+01
    1.5460011292e+02   -1.2550700188e+01
    1.5470007324e+02   -1.2579500198e+01
    1.5480012512e+02   -1.2608300209e+01
    1.5490022278e+02   -1.2637299538e+01
    1.5500024414e+02   -1.2666199684e+01
    1.5510014343e+02   -1.2695199966e+01
    1.5520019531e+02   -1.2724300385e+01
    1.5530018616e+02   -1.2753399849e+01
    1.5540008545e+02   -1.2782500267e+01
    1.5550024414e+02   -1.2811800003e+01
    1.5560023499e+02   -1.2840999603e+01
    1.5570021057e+02   -1.2870300293e+01
    1.5580010986e+02   -1.2899499893e+01
    1.5590017700e+02   -1.2928899765e+01
    1.5600024414e+02   -1.2958299637e+01
    1.5610029602e+02   -1.2987799644e+01
    1.5620025635e+02   -1.3017200470e+01
    1.5630024719e+02   -1.3046600342e+01
    1.5640020752e+02   -1.3076100349e+01
    1.5650024414e+02   -1.3105500221e+01
    1.5660021973e+02   -1.3134900093e+01
    1.5670025635e+02   -1.3164400101e+01
    1.5680030823e+02   -1.3193900108e+01
    1.5690031433e+02   -1.3223400116e+01
    1.5700024414e+02   -1.3252900124e+01
    1.5710021973e+02   -1.3282400131e+01
    1.5720030212e+02   -1.3312000275e+01
    1.5730026245e+02   -1.3341500282e+01
    1.5740025330e+02   -1.3371000290e+01
    1.5750027466e+02   -1.3400600433e+01
    1.5760028076e+02   -1.3430100441e+01
    1.5770037842e+02   -1.3459699631e+01
    1.5780035400e+02   -1.3489199638e+01
    1.5790037537e+02   -1.3518699646e+01
    1.5800024414e+02   -1.3548100471e+01
    1.5810035706e+02   -1.3577599525e+01
    1.5820031738e+02   -1.3607000351e+01
    1.5830044556e+02   -1.3636500359e+01
    1.5840039062e+02   -1.3665800095e+01
    1.5850033569e+02   -1.3695199966e+01
    1.5860043335e+02   -1.3724499702e+01
    1.5870045471e+02   -1.3753700256e+01
    1.5880041504e+02   -1.3782799721e+01
    1.5890046692e+02   -1.3812000275e+01
    1.5900047302e+02   -1.3841099739e+01
    1.5910043335e+02   -1.3870200157e+01
    1.5920048523e+02   -1.3899200439e+01
    1.5930041504e+02   -1.3928199768e+01
    1.5940039062e+02   -1.3957099915e+01
    1.5950047302e+02   -1.3986000061e+01
    1.5960043335e+02   -1.4014800072e+01
    1.5970042419e+02   -1.4043600082e+01
    1.5980044556e+02   -1.4072299957e+01
    1.5990049744e+02   -1.4100899696e+01
    1.6000050354e+02   -1.4129400253e+01
    1.6010040283e+02   -1.4157899857e+01
    1.6020037842e+02   -1.4186200142e+01
    1.6030039978e+02   -1.4214599609e+01
    1.6040049744e+02   -1.4242799759e+01
    1.6050053406e+02   -1.4270999908e+01
    1.6060058594e+02   -1.4299099922e+01
    1.6070048523e+02   -1.4327099800e+01
    1.6080049133e+02   -1.4354900360e+01
    1.6090060425e+02   -1.4382699966e+01
    1.6100056458e+02   -1.4410300255e+01
    1.6110046387e+02   -1.4437800407e+01
    1.6120057678e+02   -1.4465299606e+01
    1.6130053711e+02   -1.4492699623e+01
    1.6140049744e+02   -1.4520000458e+01
    1.6150047302e+02   -1.4547300339e+01
    1.6160058594e+02   -1.4574600220e+01
    1.6170053101e+02   -1.4601699829e+01
    1.6180052185e+02   -1.4628700256e+01
    1.6190049744e+02   -1.4655699730e+01
    1.6200065613e+02   -1.4682600021e+01
    1.6210052490e+02   -1.4709300041e+01
    1.6220053101e+02   -1.4736000061e+01
    1.6230056763e+02   -1.4762599945e+01
    1.6240063477e+02   -1.4789099693e+01
    1.6250053406e+02   -1.4815500259e+01
    1.6260067749e+02   -1.4841899872e+01
    1.6270054626e+02   -1.4868100166e+01
    1.6280070496e+02   -1.4894300461e+01
    1.6290061951e+02   -1.4920299530e+01
    1.6300067139e+02   -1.4946299553e+01
    1.6310061646e+02   -1.4972100258e+01
    1.6320060730e+02   -1.4997699738e+01
    1.6330059814e+02   -1.5023300171e+01
    1.6340063477e+02   -1.5048800468e+01
    1.6350068665e+02   -1.5074199677e+01
    1.6360063171e+02   -1.5099499702e+01
    1.6370066833e+02   -1.5124699593e+01
    1.6380072021e+02   -1.5149800301e+01
    1.6390072632e+02   -1.5174799919e+01
    1.6400071716e+02   -1.5199700356e+01
    1.6410064697e+02   -1.5224499702e+01
    1.6420063782e+02   -1.5249199867e+01
    1.6430072021e+02   -1.5273799896e+01
    1.6440071106e+02   -1.5298299789e+01
    1.6450065613e+02   -1.5322600365e+01
    1.6460070801e+02   -1.5346899986e+01
    1.6470083618e+02   -1.5371100426e+01
    1.6480068970e+02   -1.5395099640e+01
    1.6490072632e+02   -1.5419099808e+01
    1.6500082397e+02   -1.5442999840e+01
    1.6510078430e+02   -1.5466799736e+01
    1.6520083618e+02   -1.5490500450e+01
    1.6530081177e+02   -1.5513999939e+01
    1.6540074158e+02   -1.5537400246e+01
    1.6550079346e+02   -1.5560700417e+01
    1.6560081482e+02   -1.5583900452e+01
    1.6570071411e+02   -1.5606900215e+01
    1.6580085754e+02   -1.5629899979e+01
    1.6590084839e+02   -1.5652700424e+01
    1.6600079346e+02   -1.5675399780e+01
    1.6610087585e+02   -1.5697999954e+01
    1.6620080566e+02   -1.5720499992e+01
    1.6630082703e+02   -1.5742899895e+01
    1.6640077209e+02   -1.5765099525e+01
    1.6650077820e+02   -1.5787199974e+01
    1.6660089111e+02   -1.5809200287e+01
    1.6670089722e+02   -1.5831100464e+01
    1.6680081177e+02   -1.5852899551e+01
    1.6690092468e+02   -1.5874600410e+01
    1.6700082397e+02   -1.5896200180e+01
    1.6710096741e+02   -1.5917799950e+01
    1.6720083618e+02   -1.5939200401e+01
    1.6730088806e+02   -1.5960499763e+01
    1.6740093994e+02   -1.5981599808e+01
    1.6750094604e+02   -1.6002700806e+01
    1.6760084534e+02   -1.6023599625e+01
    1.6770088196e+02   -1.6044399261e+01
    1.6780085754e+02   -1.6065000534e+01
    1.6790100098e+02   -1.6085599899e+01
    1.6800091553e+02   -1.6106000900e+01
    1.6810095215e+02   -1.6126300812e+01
    1.6820097351e+02   -1.6146400452e+01
    1.6830091858e+02   -1.6166500092e+01
    1.6840100098e+02   -1.6186399460e+01
    1.6850091553e+02   -1.6206199646e+01
    1.6860095215e+02   -1.6225900650e+01
    1.6870094299e+02   -1.6245399475e+01
    1.6880099487e+02   -1.6264799118e+01
    1.6890107727e+02   -1.6284099579e+01
    1.6900109863e+02   -1.6303300858e+01
    1.6910104370e+02   -1.6322399139e+01
    1.6920100403e+02   -1.6341400146e+01
    1.6930096436e+02   -1.6360300064e+01
    1.6940095520e+02   -1.6379100800e+01
    1.6950094604e+02   -1.6397800446e+01
    1.6960098267e+02   -1.6416299820e+01
    1.6970108032e+02   -1.6434799194e+01
    1.6980099487e+02   -1.6453100204e+01
    1.6990109253e+02   -1.6471200943e+01
    1.7000100708e+02   -1.6489200592e+01
    1.7010107422e+02   -1.6507099152e+01
    1.7020101929e+02   -1.6524900436e+01
    1.7030110168e+02   -1.6542600632e+01
    1.7040118408e+02   -1.6560100555e+01
    1.7050117493e+02   -1.6577499390e+01
    1.7060102844e+02   -1.6594800949e+01
    1.7070103455e+02   -1.6611900330e+01
    1.7080108643e+02   -1.6628900528e+01
    1.7090107727e+02   -1.6645799637e+01
    1.7100103760e+02   -1.6662500381e+01
    1.7110122681e+02   -1.6679100037e+01
    1.7120114136e+02   -1.6695600510e+01
    1.7130107117e+02   -1.6711999893e+01
    1.7140122986e+02   -1.6728399277e+01
    1.7150117493e+02   -1.6744699478e+01
    1.7160116577e+02   -1.6760900497e+01
    1.7170111084e+02   -1.6777000427e+01
    1.7180110168e+02   -1.6793100357e+01
    1.7190113831e+02   -1.6809000015e+01
    1.7200114441e+02   -1.6824899673e+01
    1.7210112000e+02   -1.6840700150e+01
    1.7220124817e+02   -1.6856399536e+01
    1.7230122375e+02   -1.6871999741e+01
    1.7240118408e+02   -1.6887500763e+01
    1.7250115967e+02   -1.6902900696e+01
    1.7260125732e+02   -1.6918199539e+01
    1.7270121765e+02   -1.6933500290e+01
    1.7280128479e+02   -1.6948600769e+01
    1.7290121460e+02   -1.6963699341e+01
    1.7300120544e+02   -1.6978599548e+01
    1.7310127258e+02   -1.6993400574e+01
    1.7320126343e+02   -1.7008100510e+01
    1.7330123901e+02   -1.7022699356e+01
    1.7340136719e+02   -1.7037300110e+01
    1.7350125122e+02   -1.7051700592e+01
    1.7360122681e+02   -1.7066200256e+01
    1.7370132446e+02   -1.7080600739e+01
    1.7380130005e+02   -1.7094900131e+01
    1.7390130615e+02   -1.7109199524e+01
    1.7400138855e+02   -1.7123399734e+01
    1.7410134888e+02   -1.7137500763e+01
    1.7420135498e+02   -1.7151599884e+01
    1.7430131531e+02   -1.7165700912e+01
    1.7440138245e+02   -1.7179599762e+01
    1.7450137329e+02   -1.7193500519e+01
    1.7460137939e+02   -1.7207300186e+01
    1.7470144653e+02   -1.7221000671e+01
    1.7480131531e+02   -1.7234699249e+01
    1.7490141296e+02   -1.7248399734e+01
    1.7500131226e+02   -1.7261899948e+01
    1.7510133362e+02   -1.7275400162e+01
    1.7520135498e+02   -1.7288799286e+01
    1.7530143738e+02   -1.7302099228e+01
    1.7540148926e+02   -1.7315299988e+01
    1.7550134277e+02   -1.7328399658e+01
    1.7560150146e+02   -1.7341499329e+01
    1.7570135498e+02   -1.7354499817e+01
    1.7580134583e+02   -1.7367500305e+01
    1.7590138245e+02   -1.7380399704e+01
    1.7600149536e+02   -1.7393299103e+01
    1.7610136414e+02   -1.7406200409e+01
    1.7620141602e+02   -1.7419000626e+01
    1.7630137634e+02   -1.7431699753e+01
    1.7640150452e+02   -1.7444400787e+01
    1.7650152588e+02   -1.7457099915e+01
    1.7660145569e+02   -1.7469600677e+01
    1.7670149231e+02   -1.7482099533e+01
    1.7680145264e+02   -1.7494600296e+01
    1.7690144348e+02   -1.7506999969e+01
    1.7700144958e+02   -1.7519399643e+01
    1.7710153198e+02   -1.7531799316e+01
    1.7720158386e+02   -1.7544000626e+01
    1.7730151367e+02   -1.7556200027e+01
    1.7740153503e+02   -1.7568300247e+01
    1.7750146484e+02   -1.7580299377e+01
    1.7760145569e+02   -1.7592199326e+01
    1.7770161438e+02   -1.7604099274e+01
    1.7780151367e+02   -1.7615900040e+01
    1.7790161133e+02   -1.7627700806e+01
    1.7800149536e+02   -1.7639299393e+01
    1.7810151672e+02   -1.7650999069e+01
    1.7820158386e+02   -1.7662599564e+01
    1.7830154419e+02   -1.7674200058e+01
    1.7840161133e+02   -1.7685699463e+01
    1.7850158691e+02   -1.7697099686e+01
    1.7860151672e+02   -1.7708499908e+01
    1.7870167542e+02   -1.7719900131e+01
    1.7880162048e+02   -1.7731100082e+01
    1.7890161133e+02   -1.7742300034e+01
    1.7900164795e+02   -1.7753499985e+01
    1.7910169983e+02   -1.7764600754e+01
    1.7920173645e+02   -1.7775699615e+01
    1.7930171204e+02   -1.7786600113e+01
    1.7940173340e+02   -1.7797500610e+01
    1.7950172424e+02   -1.7808300018e+01
    1.7960163879e+02   -1.7819000244e+01
    1.7970161438e+02   -1.7829700470e+01
    1.7980163574e+02   -1.7840200424e+01
    1.7990171814e+02   -1.7850700378e+01
    1.8000169373e+02   -1.7861000061e+01
    1.8010169983e+02   -1.7871299744e+01
    1.8020170593e+02   -1.7881599426e+01
    1.8030168152e+02   -1.7891700745e+01
    1.8040162659e+02   -1.7901800156e+01
    1.8050178528e+02   -1.7911899567e+01
    1.8060171509e+02   -1.7921899796e+01
    1.8070164490e+02   -1.7931800842e+01
    1.8080169678e+02   -1.7941600800e+01
    1.8090168762e+02   -1.7951299667e+01
    1.8100175476e+02   -1.7960899353e+01
    1.8110174561e+02   -1.7970399857e+01
    1.8120179749e+02   -1.7979900360e+01
    1.8130183411e+02   -1.7989299774e+01
    1.8140180969e+02   -1.7998699188e+01
    1.8150175476e+02   -1.8007999420e+01
    1.8160176086e+02   -1.8017200470e+01
    1.8170187378e+02   -1.8026399612e+01
    1.8180172729e+02   -1.8035499573e+01
    1.8190174866e+02   -1.8044599533e+01
    1.8200172424e+02   -1.8053499222e+01
    1.8210182190e+02   -1.8062400818e+01
    1.8220178223e+02   -1.8071199417e+01
    1.8230181885e+02   -1.8079900742e+01
    1.8240179443e+02   -1.8088499069e+01
    1.8250190735e+02   -1.8097099304e+01
    1.8260176086e+02   -1.8105699539e+01
    1.8270184326e+02   -1.8114099503e+01
    1.8280178833e+02   -1.8122499466e+01
    1.8290185547e+02   -1.8130800247e+01
    1.8300178528e+02   -1.8138999939e+01
    1.8310194397e+02   -1.8147100449e+01
    1.8320190430e+02   -1.8155099869e+01
    1.8330183411e+02   -1.8163000107e+01
    1.8340191650e+02   -1.8170799255e+01
    1.8350190735e+02   -1.8178600311e+01
    1.8360188293e+02   -1.8186300278e+01
    1.8370193481e+02   -1.8194000244e+01
    1.8380186462e+02   -1.8201599121e+01
    1.8390191650e+02   -1.8209100723e+01
    1.8400201416e+02   -1.8216499329e+01
    1.8410185242e+02   -1.8223899841e+01
    1.8420190430e+02   -1.8231100082e+01
    1.8430201721e+02   -1.8238300323e+01
    1.8440197754e+02   -1.8245399475e+01
    1.8450190735e+02   -1.8252399445e+01
    1.8460202026e+02   -1.8259300232e+01
    1.8470191956e+02   -1.8266099930e+01
    1.8480191040e+02   -1.8272800446e+01
    1.8490203857e+02   -1.8279499054e+01
    1.8500205994e+02   -1.8285999298e+01
    1.8510206604e+02   -1.8292499542e+01
    1.8520199585e+02   -1.8298799515e+01
    1.8530194092e+02   -1.8305000305e+01
    1.8540205383e+02   -1.8311199188e+01
    1.8550207520e+02   -1.8317199707e+01
    1.8560209656e+02   -1.8323099136e+01
    1.8570213318e+02   -1.8328899384e+01
    1.8580212402e+02   -1.8334699631e+01
    1.8590200806e+02   -1.8340299606e+01
    1.8600199890e+02   -1.8345899582e+01
    1.8610209656e+02   -1.8351400375e+01
    1.8620199585e+02   -1.8356800079e+01
    1.8630201721e+02   -1.8362100601e+01
    1.8640213013e+02   -1.8367200851e+01
    1.8650204468e+02   -1.8372200012e+01
    1.8660205078e+02   -1.8377199173e+01
    1.8670202637e+02   -1.8381999969e+01
    1.8680203247e+02   -1.8386699677e+01
    1.8690208435e+02   -1.8391300201e+01
    1.8700204468e+02   -1.8395799637e+01
    1.8710205078e+02   -1.8400199890e+01
    1.8720210266e+02   -1.8404499054e+01
    1.8730221558e+02   -1.8408599854e+01
    1.8740209961e+02   -1.8412599564e+01
    1.8750212097e+02   -1.8416500092e+01
    1.8760206604e+02   -1.8420299530e+01
    1.8770219421e+02   -1.8423900604e+01
    1.8780215454e+02   -1.8427400589e+01
    1.8790219116e+02   -1.8430700302e+01
    1.8800216675e+02   -1.8434000015e+01
    1.8810223389e+02   -1.8437099457e+01
    1.8820225525e+02   -1.8440099716e+01
    1.8830218506e+02   -1.8443000793e+01
    1.8840226746e+02   -1.8445800781e+01
    1.8850219727e+02   -1.8448499680e+01
    1.8860217285e+02   -1.8451000214e+01
    1.8870216370e+02   -1.8453300476e+01
    1.8880218506e+02   -1.8455499649e+01
    1.8890214539e+02   -1.8457599640e+01
    1.8900215149e+02   -1.8459600449e+01
    1.8910215759e+02   -1.8461399078e+01
    1.8920225525e+02   -1.8463100433e+01
    1.8930218506e+02   -1.8464599609e+01
    1.8940223694e+02   -1.8465999603e+01
    1.8950221252e+02   -1.8467300415e+01
    1.8960218811e+02   -1.8468299866e+01
    1.8970223999e+02   -1.8469299316e+01
    1.8980230713e+02   -1.8469999313e+01
    1.8990228271e+02   -1.8470600128e+01
    1.9000233459e+02   -1.8471099854e+01
    1.9010226440e+02   -1.8471399307e+01
    1.9020223999e+02   -1.8471500397e+01
    1.9030227661e+02   -1.8471599579e+01
    1.9040235901e+02   -1.8471399307e+01
    1.9050224304e+02   -1.8471200943e+01
    1.9060235596e+02   -1.8470699310e+01
    1.9070237732e+02   -1.8470199585e+01
    1.9080236816e+02   -1.8469400406e+01
    1.9090226746e+02   -1.8468500137e+01
    1.9100228882e+02   -1.8467300415e+01
    1.9110241699e+02   -1.8466100693e+01
    1.9120243835e+02   -1.8464599609e+01
    1.9130244446e+02   -1.8463100433e+01
    1.9140238953e+02   -1.8461399078e+01
    1.9150233459e+02   -1.8459600449e+01
    1.9160244751e+02   -1.8457599640e+01
    1.9170233154e+02   -1.8455600739e+01
    1.9180238342e+02   -1.8453300476e+01
    1.9190237427e+02   -1.8450899124e+01
    1.9200245667e+02   -1.8448400497e+01
    1.9210235596e+02   -1.8445699692e+01
    1.9220248413e+02   -1.8442899704e+01
    1.9230247498e+02   -1.8439899445e+01
    1.9240240479e+02   -1.8436700821e+01
    1.9250245667e+02   -1.8433500290e+01
    1.9260237122e+02   -1.8430099487e+01
    1.9270245361e+02   -1.8426500320e+01
    1.9280247498e+02   -1.8422800064e+01
    1.9290240479e+02   -1.8419000626e+01
    1.9300241089e+02   -1.8415000916e+01
    1.9310252380e+02   -1.8410800934e+01
    1.9320243835e+02   -1.8406499863e+01
    1.9330244446e+02   -1.8402000427e+01
    1.9340243530e+02   -1.8397399902e+01
    1.9350259399e+02   -1.8392599106e+01
    1.9360255432e+02   -1.8387699127e+01
    1.9370251465e+02   -1.8382699966e+01
    1.9380259705e+02   -1.8377599716e+01
    1.9390254211e+02   -1.8372299194e+01
    1.9400248718e+02   -1.8366899490e+01
    1.9410249329e+02   -1.8361299515e+01
    1.9420245361e+02   -1.8355699539e+01
    1.9430261230e+02   -1.8349800110e+01
    1.9440264893e+02   -1.8343799591e+01
[...]
    2.5130595398e+02   -4.6474199295e+00
    2.5140606689e+02   -4.6183600426e+00
    2.5150596619e+02   -4.5894298553e+00
    2.5160598755e+02   -4.5605201721e+00
    2.5170597839e+02   -4.5316901207e+00
    2.5180607605e+02   -4.5028901100e+00
    2.5190611267e+02   -4.4741702080e+00
    2.5200613403e+02   -4.4455099106e+00
    2.5210612488e+02   -4.4169402122e+00
    2.5220610046e+02   -4.3884301186e+00
    2.5230607605e+02   -4.3599901199e+00
    2.5240609741e+02   -4.3316001892e+00
    2.5250605774e+02   -4.3032999039e+00
    2.5260615540e+02   -4.2750301361e+00
    2.5270603943e+02   -4.2468900681e+00
    2.5280610657e+02   -4.2187800407e+00
    2.5290620422e+02   -4.1907100677e+00
    2.5300619507e+02   -4.1627497673e+00
    2.5310609436e+02   -4.1348800659e+00
    2.5320610046e+02   -4.1070599556e+00
    2.5330616760e+02   -4.0792899132e+00
    2.5340623474e+02   -4.0515899658e+00
    2.5350616455e+02   -4.0240001678e+00
    2.5360612488e+02   -3.9964799881e+00
    2.5370620728e+02   -3.9690001011e+00
    2.5380616760e+02   -3.9416399002e+00
    2.5390620422e+02   -3.9143199921e+00
    2.5400616455e+02   -3.8870999813e+00
    2.5410627747e+02   -3.8599200249e+00
    2.5420620728e+02   -3.8328599930e+00
    2.5430621338e+02   -3.8058500290e+00
    2.5440629578e+02   -3.7788999081e+00
    2.5450621033e+02   -3.7520699501e+00
    2.5460627747e+02   -3.7252800465e+00
    2.5470625305e+02   -3.6985900402e+00
    2.5480618286e+02   -3.6719799042e+00
    2.5490620422e+02   -3.6454401016e+00
    2.5500628662e+02   -3.6189498901e+00
    2.5510633850e+02   -3.5925500393e+00
    2.5520620728e+02   -3.5662798882e+00
    2.5530636597e+02   -3.5399999619e+00
    2.5540626526e+02   -3.5138700008e+00
    2.5550633240e+02   -3.4877700806e+00
    2.5560621643e+02   -3.4618000984e+00
    2.5570634460e+02   -3.4358398914e+00
    2.5580627441e+02   -3.4100201130e+00
    2.5590638733e+02   -3.3842198849e+00
    2.5600625610e+02   -3.3585600853e+00
    2.5610635376e+02   -3.3329200745e+00
    2.5620623779e+02   -3.3074200153e+00
    2.5630630493e+02   -3.2819399834e+00
    2.5640640259e+02   -3.2565300465e+00
    2.5650637817e+02   -3.2312099934e+00
    2.5660641479e+02   -3.2059500217e+00
    2.5670635986e+02   -3.1807899475e+00
    2.5680627441e+02   -3.1556999683e+00
    2.5690640259e+02   -3.1306400299e+00
    2.5700634766e+02   -3.1056900024e+00
    2.5710638428e+02   -3.0808000565e+00
    2.5720635986e+02   -3.0559799671e+00
    2.5730630493e+02   -3.0312500000e+00
    2.5740634155e+02   -3.0065600872e+00
    2.5750640869e+02   -2.9819400311e+00
    2.5760638428e+02   -2.9574100971e+00
    2.5770632935e+02   -2.9329500198e+00
    2.5780648804e+02   -2.9084999561e+00
    2.5790649414e+02   -2.8841600418e+00
    2.5800650024e+02   -2.8598899841e+00
    2.5810647583e+02   -2.8356900215e+00
    2.5820651245e+02   -2.8115398884e+00
    2.5830654907e+02   -2.7874500751e+00
    2.5840640259e+02   -2.7634599209e+00
    2.5850650024e+02   -2.7394800186e+00
    2.5860641479e+02   -2.7156100273e+00
    2.5870645142e+02   -2.6917600632e+00
    2.5880648804e+02   -2.6679799557e+00
    2.5890655518e+02   -2.6442499161e+00
    2.5900646973e+02   -2.6206099987e+00
    2.5910650635e+02   -2.5970098972e+00
    2.5920654297e+02   -2.5734701157e+00
    2.5930651855e+02   -2.5500199795e+00
    2.5940652466e+02   -2.5266098976e+00
    2.5950643921e+02   -2.5032799244e+00
    2.5960650635e+02   -2.4799699783e+00
    2.5970648193e+02   -2.4567399025e+00
    2.5980651855e+02   -2.4335498810e+00
    2.5990649414e+02   -2.4104299545e+00
    2.6000656128e+02   -2.3873500824e+00
    2.6010650635e+02   -2.3643500805e+00
    2.6020654297e+02   -2.3413798809e+00
    2.6030661011e+02   -2.3184599876e+00
    2.6040649414e+02   -2.2956399918e+00
    2.6050668335e+02   -2.2728099823e+00
    2.6060650635e+02   -2.2501199245e+00
    2.6070657349e+02   -2.2274301052e+00
    2.6080657959e+02   -2.2047998905e+00
    2.6090652466e+02   -2.1822500229e+00
    2.6100653076e+02   -2.1597399712e+00
    2.6110650635e+02   -2.1372799873e+00
    2.6120672607e+02   -2.1148400307e+00
    2.6130654907e+02   -2.0925199986e+00
    2.6140658569e+02   -2.0702199936e+00
    2.6150656128e+02   -2.0479900837e+00
    2.6160659790e+02   -2.0257899761e+00
    2.6170663452e+02   -2.0036399364e+00
    2.6180664062e+02   -1.9815499783e+00
    2.6190667725e+02   -1.9595099688e+00
    2.6200668335e+02   -1.9375300407e+00
    2.6210662842e+02   -1.9156099558e+00
    2.6220663452e+02   -1.8937400579e+00
    2.6230664062e+02   -1.8719099760e+00
    2.6240667725e+02   -1.8501199484e+00
    2.6250662231e+02   -1.8284200430e+00
    2.6260671997e+02   -1.8067300320e+00
    2.6270663452e+02   -1.7851300240e+00
    2.6280673218e+02   -1.7635300159e+00
    2.6290664673e+02   -1.7420300245e+00
    2.6300683594e+02   -1.7205200195e+00
    2.6310665894e+02   -1.6991300583e+00
    2.6320678711e+02   -1.6777199507e+00
    2.6330679321e+02   -1.6563899517e+00
    2.6340682983e+02   -1.6350899935e+00
    2.6350677490e+02   -1.6138600111e+00
    2.6360687256e+02   -1.5926400423e+00
    2.6370684814e+02   -1.5714900494e+00
    2.6380685425e+02   -1.5503900051e+00
    2.6390673828e+02   -1.5293500423e+00
    2.6400677490e+02   -1.5083299875e+00
    2.6410671997e+02   -1.4873600006e+00
    2.6420687866e+02   -1.4664000273e+00
    2.6430682373e+02   -1.4455200434e+00
    2.6440676880e+02   -1.4246699810e+00
    2.6450686646e+02   -1.4038399458e+00
    2.6460687256e+02   -1.3830599785e+00
    2.6470687866e+02   -1.3623199463e+00
    2.6480685425e+02   -1.3416299820e+00
    2.6490686035e+02   -1.3209600449e+00
    2.6500689697e+02   -1.3003200293e+00
    2.6510687256e+02   -1.2797299623e+00
    2.6520681763e+02   -1.2591899633e+00
    2.6530691528e+02   -1.2386399508e+00
    2.6540682983e+02   -1.2181600332e+00
    2.6550686646e+02   -1.1977000237e+00
    2.6560699463e+02   -1.1772500277e+00
    2.6570693970e+02   -1.1568599939e+00
    2.6580685425e+02   -1.1365100145e+00
    2.6590698242e+02   -1.1161600351e+00
    2.6600698853e+02   -1.0958499908e+00
    2.6610690308e+02   -1.0755900145e+00
    2.6620697021e+02   -1.0553400517e+00
    2.6630700684e+02   -1.0351099968e+00
    2.6640689087e+02   -1.0149400234e+00
    2.6650695801e+02   -9.9474602938e-01
    2.6660702515e+02   -9.7458702326e-01
    2.6670687866e+02   -9.5449197292e-01
    2.6680700684e+02   -9.3437099457e-01
    2.6690692139e+02   -9.1431498528e-01
    2.6700698853e+02   -8.9425498247e-01
    2.6710699463e+02   -8.7423002720e-01
    2.6720693970e+02   -8.5424101353e-01
    2.6730691528e+02   -8.3426702023e-01
    2.6740704346e+02   -8.1429100037e-01
    2.6750692749e+02   -7.9438102245e-01
    2.6760702515e+02   -7.7445298433e-01
    2.6770706177e+02   -7.5455600023e-01
    2.6780703735e+02   -7.3468697071e-01
    2.6790695190e+02   -7.1485900879e-01
    2.6800711060e+02   -6.9499599934e-01
    2.6810705566e+02   -6.7519897223e-01
    2.6820709229e+02   -6.5539699793e-01
    2.6830703735e+02   -6.3563799858e-01
    2.6840704346e+02   -6.1589097977e-01
    2.6850704956e+02   -5.9615999460e-01
    2.6860699463e+02   -5.7645797729e-01
    2.6870715332e+02   -5.5673301220e-01
    2.6880706787e+02   -5.3708100319e-01
    2.6890704346e+02   -5.1743197441e-01
    2.6900701904e+02   -4.9780499935e-01
    2.6910717773e+02   -4.7816300392e-01
    2.6920703125e+02   -4.5859500766e-01
    2.6930712891e+02   -4.3900600076e-01
    2.6940713501e+02   -4.1944500804e-01
    2.6950717163e+02   -3.9989998937e-01
    2.6960714722e+02   -3.8038799167e-01
    2.6970715332e+02   -3.6087998748e-01
    2.6980706787e+02   -3.4141099453e-01
    2.6990716553e+02   -3.2192701101e-01
    2.7000717163e+02   -3.0248099566e-01
    2.7010708618e+02   -2.8306698799e-01
    2.7020715332e+02   -2.6364299655e-01
    2.7030725098e+02   -2.4423399568e-01
    2.7040713501e+02   -2.2487899661e-01
    2.7050726318e+02   -2.0550599694e-01
    2.7060717773e+02   -1.8617999554e-01
    2.7070715332e+02   -1.6686600447e-01
    2.7080731201e+02   -1.4754000306e-01
    2.7090728760e+02   -1.2826000154e-01
    2.7100726318e+02   -1.0900299996e-01
    2.7110723877e+02   -8.9757397771e-02
    2.7120721436e+02   -7.0528902113e-02
    2.7130715942e+02   -5.1325500011e-02
    2.7140716553e+02   -3.2120101154e-02
    2.7150723267e+02   -1.2924700044e-02
    2.7160726929e+02    6.2491600402e-03
    2.7170730591e+02    2.5409799069e-02
    2.7180734253e+02    4.4549401850e-02
    2.7190734863e+02    6.3666701317e-02
    2.7200726318e+02    8.2747898996e-02
    2.7210733032e+02    1.0184700042e-01
    2.7220724487e+02    1.2089899927e-01
    2.7230737305e+02    1.3997200131e-01
    2.7240734863e+02    1.5899999440e-01
    2.7250735474e+02    1.7801900208e-01
    2.7260733032e+02    1.9701699913e-01
    2.7270727539e+02    2.1599900723e-01
    2.7280743408e+02    2.3500500619e-01
    2.7290740967e+02    2.5396698713e-01
    2.7300726318e+02    2.7288100123e-01
    2.7310729980e+02    2.9182600975e-01
    2.7320730591e+02    3.1074398756e-01
    2.7330728149e+02    3.2964000106e-01
    2.7340744019e+02    3.4855499864e-01
    2.7350732422e+02    3.6740699410e-01
    2.7360736084e+02    3.8627201319e-01
    2.7370733643e+02    4.0511101484e-01
    2.7380737305e+02    4.2394399643e-01
    2.7390734863e+02    4.4275599718e-01
    2.7400744629e+02    4.6157100797e-01
    2.7410745239e+02    4.8035600781e-01
    2.7420742798e+02    4.9912300706e-01
    2.7430743408e+02    5.1788300276e-01
    2.7440750122e+02    5.3664100170e-01
    2.7450741577e+02    5.5535697937e-01
    2.7460754395e+02    5.7409101725e-01
    2.7470755005e+02    5.9279197454e-01
    2.7480752563e+02    6.1147302389e-01
    2.7490750122e+02    6.3013899326e-01
    2.7500738525e+02    6.4877301455e-01
    2.7510754395e+02    6.6743302345e-01
    2.7520739746e+02    6.8602502346e-01
    2.7530749512e+02    7.0464497805e-01
    2.7540753174e+02    7.2323799133e-01
    2.7550747681e+02    7.4179798365e-01
    2.7560745239e+02    7.6033997536e-01
    2.7570751953e+02    7.7889001369e-01
    2.7580758667e+02    7.9741799831e-01
    2.7590750122e+02    8.1589299440e-01
    2.7600759888e+02    8.3438897133e-01
    2.7610748291e+02    8.5283100605e-01
    2.7620758057e+02    8.7128901482e-01
    2.7630749512e+02    8.8969200850e-01
    2.7640759277e+02    9.0810602903e-01
    2.7650750732e+02    9.2646402121e-01
    2.7660757446e+02    9.4482702017e-01
    2.7670764160e+02    9.6317100525e-01
    2.7680764771e+02    9.8148000240e-01
    2.7690750122e+02    9.9973499775e-01
    2.7700765991e+02    1.0180200338e+00
    2.7710763550e+02    1.0362499952e+00
    2.7720761108e+02    1.0544500351e+00
    2.7730755615e+02    1.0726200342e+00
    2.7740759277e+02    1.0907800198e+00
    2.7750759888e+02    1.1089199781e+00
    2.7760757446e+02    1.1270200014e+00
    2.7770761108e+02    1.1450999975e+00
    2.7780755615e+02    1.1631400585e+00
    2.7790768433e+02    1.1811800003e+00
    2.7800772095e+02    1.1991800070e+00
    2.7810757446e+02    1.2171100378e+00
    2.7820761108e+02    1.2350399494e+00
    2.7830770874e+02    1.2529599667e+00
    2.7840765381e+02    1.2708100080e+00
    2.7850775146e+02    1.2886600494e+00
    2.7860775757e+02    1.3064700365e+00
    2.7870761108e+02    1.3242100477e+00
    2.7880776978e+02    1.3419699669e+00
    2.7890774536e+02    1.3596700430e+00
    2.7900778198e+02    1.3773499727e+00
    2.7910778809e+02    1.3949799538e+00
    2.7920767212e+02    1.4125599861e+00
    2.7930770874e+02    1.4301400185e+00
    2.7940774536e+02    1.4476799965e+00
    2.7950775146e+02    1.4651700258e+00
    2.7960775757e+02    1.4826300144e+00
    2.7970770264e+02    1.5000499487e+00
    2.7980780029e+02    1.5174499750e+00
    2.7990771484e+02    1.5347800255e+00
    2.8000775146e+02    1.5520999432e+00
    2.8010769653e+02    1.5693600178e+00
    2.8020770264e+02    1.5865900517e+00
    2.8030786133e+02    1.6038099527e+00
    2.8040780640e+02    1.6209700108e+00
    2.8050772095e+02    1.6380699873e+00
    2.8060772705e+02    1.6551500559e+00
    2.8070779419e+02    1.6721999645e+00
    2.8080783081e+02    1.6892000437e+00
    2.8090774536e+02    1.7061400414e+00
    2.8100775146e+02    1.7230600119e+00
    2.8110781860e+02    1.7399400473e+00
    2.8120785522e+02    1.7567900419e+00
    2.8130795288e+02    1.7735999823e+00
    2.8140792847e+02    1.7903499603e+00
    2.8150793457e+02    1.8070600033e+00
    2.8160787964e+02    1.8237299919e+00
    2.8170779419e+02    1.8403300047e+00
    2.8180786133e+02    1.8569200039e+00
    2.8190789795e+02    1.8734600544e+00
    2.8200784302e+02    1.8899400234e+00
    2.8210781860e+02    1.9063800573e+00
    2.8220782471e+02    1.9227800369e+00
    2.8230786133e+02    1.9391299486e+00
    2.8240798950e+02    1.9554500580e+00
    2.8250793457e+02    1.9716999531e+00
    2.8260784912e+02    1.9878900051e+00
    2.8270785522e+02    2.0040600300e+00
    2.8280792236e+02    2.0201799870e+00
    2.8290798950e+02    2.0362598896e+00
    2.8300796509e+02    2.0522799492e+00
    2.8310787964e+02    2.0682299137e+00
    2.8320797729e+02    2.0841701031e+00
    2.8330792236e+02    2.1000299454e+00
    2.8340792847e+02    2.1158499718e+00
    2.8350796509e+02    2.1316099167e+00
    2.8360797119e+02    2.1473300457e+00
    2.8370797729e+02    2.1629900932e+00
    2.8380795288e+02    2.1785900593e+00
    2.8390792847e+02    2.1941399574e+00
    2.8400802612e+02    2.2096600533e+00
    2.8410809326e+02    2.2251200676e+00
    2.8420812988e+02    2.2405300140e+00
    2.8430807495e+02    2.2558801174e+00
    2.8440808105e+02    2.2711699009e+00
    2.8450802612e+02    2.2864100933e+00
    2.8460812378e+02    2.3016099930e+00
    2.8470797729e+02    2.3167300224e+00
    2.8480807495e+02    2.3318200111e+00
    2.8490814209e+02    2.3468599319e+00
    2.8500811768e+02    2.3618299961e+00
    2.8510803223e+02    2.3767299652e+00
    2.8520809937e+02    2.3915998936e+00
    2.8530807495e+02    2.4064099789e+00
    2.8540817261e+02    2.4211599827e+00
    2.8550814819e+02    2.4358499050e+00
    2.8560815430e+02    2.4504899979e+00
    2.8570816040e+02    2.4650599957e+00
    2.8580804443e+02    2.4795699120e+00
    2.8590805054e+02    2.4940400124e+00
    2.8600820923e+02    2.5084700584e+00
    2.8610821533e+02    2.5228300095e+00
    2.8620812988e+02    2.5371100903e+00
    2.8630807495e+02    2.5513501167e+00
    2.8640817261e+02    2.5655400753e+00
    2.8650823975e+02    2.5796699524e+00
    2.8660809326e+02    2.5937199593e+00
    2.8670825195e+02    2.6077399254e+00
    2.8680813599e+02    2.6216700077e+00
    2.8690820312e+02    2.6355700493e+00
    2.8700814819e+02    2.6493999958e+00
    2.8710818481e+02    2.6631801128e+00
    2.8720816040e+02    2.6768898964e+00
    2.8730822754e+02    2.6905601025e+00
    2.8740814209e+02    2.7041499615e+00
    2.8750814819e+02    2.7177000046e+00
    2.8760815430e+02    2.7311899662e+00
    2.8770819092e+02    2.7446300983e+00
    2.8780831909e+02    2.7580199242e+00
    2.8790829468e+02    2.7713398933e+00
    2.8800833130e+02    2.7846000195e+00
    2.8810821533e+02    2.7977900505e+00
    2.8820828247e+02    2.8109500408e+00
    2.8830828857e+02    2.8240299225e+00
    2.8840823364e+02    2.8370599747e+00
    2.8850830078e+02    2.8500399590e+00
    2.8860833740e+02    2.8629601002e+00
    2.8870831299e+02    2.8758099079e+00
    2.8880828857e+02    2.8886198997e+00
    2.8890832520e+02    2.9013600349e+00
    2.8900823975e+02    2.9140400887e+00
    2.8910842896e+02    2.9267001152e+00
    2.8920828247e+02    2.9392600060e+00
    2.8930841064e+02    2.9518098831e+00
    2.8940838623e+02    2.9642701149e+00
    2.8950836182e+02    2.9766700268e+00
    2.8960836792e+02    2.9890298843e+00
    2.8970837402e+02    3.0013298988e+00
    2.8980834961e+02    3.0135700703e+00
    2.8990835571e+02    3.0257499218e+00
    2.9000830078e+02    3.0378699303e+00
    2.9010833740e+02    3.0499401093e+00
    2.9020834351e+02    3.0619499683e+00
    2.9030844116e+02    3.0739200115e+00
    2.9040835571e+02    3.0858199596e+00
    2.9050836182e+02    3.0976700783e+00
    2.9060848999e+02    3.1094799042e+00
    2.9070849609e+02    3.1212201118e+00
    2.9080844116e+02    3.1328999996e+00
    2.9090841675e+02    3.1445300579e+00
    2.9100845337e+02    3.1561100483e+00
    2.9110848999e+02    3.1676399708e+00
    2.9120840454e+02    3.1791000366e+00
    2.9130838013e+02    3.1905200481e+00
    2.9140841675e+02    3.2018899918e+00
    2.9150842285e+02    3.2132000923e+00
    2.9160855103e+02    3.2244699001e+00
    2.9170855713e+02    3.2356801033e+00
    2.9180844116e+02    3.2467999458e+00
    2.9190844727e+02    3.2578899860e+00
    2.9200848389e+02    3.2689299583e+00
    2.9210845947e+02    3.2799100876e+00
    2.9220843506e+02    3.2908298969e+00
    2.9230850220e+02    3.3017098904e+00
    2.9240856934e+02    3.3125300407e+00
    2.9250854492e+02    3.3232901096e+00
    2.9260852051e+02    3.3340001106e+00
    2.9270846558e+02    3.3446600437e+00
    2.9280856323e+02    3.3552799225e+00
    2.9290847778e+02    3.3658399582e+00
    2.9300854492e+02    3.3763499260e+00
    2.9310848999e+02    3.3868100643e+00
    2.9320849609e+02    3.3972098827e+00
    2.9330865479e+02    3.4075798988e+00
    2.9340850830e+02    3.4178700447e+00
    2.9350851440e+02    3.4281098843e+00
    2.9360867310e+02    3.4383299351e+00
    2.9370855713e+02    3.4484601021e+00
    2.9380853271e+02    3.4585499763e+00
    2.9390866089e+02    3.4686100483e+00
    2.9400869751e+02    3.4786000252e+00
    2.9410858154e+02    3.4885399342e+00
    2.9420858765e+02    3.4984500408e+00
    2.9430859375e+02    3.5083200932e+00
    2.9440856934e+02    3.5181300640e+00
    2.9450872803e+02    3.5279200077e+00
    2.9460858154e+02    3.5376300812e+00
    2.9470861816e+02    3.5473198891e+00
    2.9480868530e+02    3.5569601059e+00
    2.9490875244e+02    3.5665600300e+00
    2.9500863647e+02    3.5761001110e+00
    2.9510867310e+02    3.5855998993e+00
    2.9520861816e+02    3.5950500965e+00
    2.9530877686e+02    3.6044800282e+00
    2.9540875244e+02    3.6138401031e+00
    2.9550872803e+02    3.6231598854e+00
    2.9560879517e+02    3.6324501038e+00
    2.9570864868e+02    3.6416699886e+00
    2.9580865479e+02    3.6508700848e+00
    2.9590872192e+02    3.6600100994e+00
    2.9600878906e+02    3.6691100597e+00
    2.9610867310e+02    3.6781399250e+00
    2.9620874023e+02    3.6871199608e+00
    2.9630877686e+02    3.6960299015e+00
    2.9640872192e+02    3.7048599720e+00
    2.9650878906e+02    3.7136299610e+00
    2.9660879517e+02    3.7223300934e+00
    2.9670870972e+02    3.7309598923e+00
    2.9680874634e+02    3.7395300865e+00
    2.9690878296e+02    3.7480399609e+00
    2.9700878906e+02    3.7565000057e+00
    2.9710888672e+02    3.7649300098e+00
    2.9720877075e+02    3.7732799053e+00
    2.9730874634e+02    3.7816200256e+00
    2.9740878296e+02    3.7899301052e+00
    2.9750891113e+02    3.7982099056e+00
    2.9760876465e+02    3.8064498901e+00
    2.9770892334e+02    3.8146800995e+00
    2.9780889893e+02    3.8228700161e+00
    2.9790884399e+02    3.8310399055e+00
    2.9800881958e+02    3.8391799927e+00
    2.9810891724e+02    3.8473200798e+00
    2.9820889282e+02    3.8554100990e+00
    2.9830880737e+02    3.8634700775e+00
    2.9840890503e+02    3.8715100288e+00
    2.9850888062e+02    3.8794999123e+00
    2.9860882568e+02    3.8874499798e+00
    2.9870895386e+02    3.8953700066e+00
    2.9880886841e+02    3.9032199383e+00
    2.9890884399e+02    3.9110200405e+00
    2.9900900269e+02    3.9187901020e+00
    2.9910888672e+02    3.9264800549e+00
    2.9920901489e+02    3.9341299534e+00
    2.9930889893e+02    3.9417099953e+00
    2.9940902710e+02    3.9492499828e+00
    2.9950903320e+02    3.9567298889e+00
    2.9960903931e+02    3.9641699791e+00
    2.9970892334e+02    3.9715600014e+00
    2.9980895996e+02    3.9789299965e+00
    2.9990899658e+02    3.9862699509e+00
endcurve
