Curveplot
LS-DYNA keyword deck by LS-PrePost
Abscissa
Ordinate
XY data
CHOPHeadyRot-1 #pts=3000
* Minval=    -3.2917299867e-01 at time=       299.9089965820
* Maxval=     5.8600699902e-01 at time=       184.3020172119
    0.0000000000e+00    0.0000000000e+00
    9.9978484213e-02    3.4716998611e-17
    1.9994476438e-01    5.8586002716e-10
    2.9985594749e-01    7.8963202643e-10
    3.9993065596e-01    6.2391297684e-10
    4.9983286858e-01    2.9180100558e-09
    5.9996074438e-01    2.1542498896e-09
    6.9996917248e-01   -1.2795799975e-08
    7.9987239838e-01   -1.2362700197e-08
    8.9996677637e-01    1.6797599756e-08
    9.9981802702e-01    6.1712398747e-08
    1.0999013186e+00    9.8577203289e-08
    1.1999312639e+00    1.1701300195e-07
    1.2999420166e+00    1.0713200282e-07
    1.3998707533e+00    6.8235500805e-08
    1.4999967813e+00    2.6601401082e-09
    1.5999176502e+00   -7.8466101172e-08
    1.6998231411e+00   -1.6898999888e-07
    1.7998125553e+00   -2.6347200333e-07
    1.8998631239e+00   -3.5729098613e-07
    1.9999403954e+00   -4.5184000896e-07
    2.0999372005e+00   -5.3430801472e-07
    2.1998307705e+00   -6.0225301013e-07
    2.2999815941e+00   -6.4482600237e-07
    2.3998348713e+00   -6.7895501843e-07
    2.4998700619e+00   -7.0341098990e-07
    2.5998649597e+00   -7.1957197179e-07
    2.6998441219e+00   -7.2469998713e-07
    2.7999923229e+00   -7.2796797213e-07
    2.8998992443e+00   -7.1163600524e-07
    2.9998807907e+00   -6.7151097483e-07
    3.0998446941e+00   -6.1010700847e-07
    3.1998353004e+00   -5.3129099342e-07
    3.2999982834e+00   -4.5368699375e-07
    3.3999238014e+00   -3.8105798694e-07
    3.4999976158e+00   -3.2253799986e-07
    3.5999677181e+00   -2.6992100288e-07
    3.6998908520e+00   -2.2664299593e-07
    3.7998950481e+00   -1.8404199409e-07
    3.8999593258e+00   -1.4092199763e-07
    3.9998872280e+00   -8.6806096533e-08
    4.0999002457e+00   -2.4207599481e-08
    4.1999154091e+00    4.8051301604e-08
    4.2999529839e+00    1.4047100194e-07
    4.3998851776e+00    2.5322299280e-07
    4.4998784065e+00    3.9688899278e-07
    4.5999293327e+00    5.5328001736e-07
    4.6999778748e+00    7.1821597203e-07
    4.7999606133e+00    8.8165700163e-07
    4.8998966217e+00    1.0547599913e-06
    4.9999694824e+00    1.2398199942e-06
    5.0999503136e+00    1.4450399703e-06
    5.1998300552e+00    1.6748000462e-06
    5.2998480797e+00    1.9248500394e-06
    5.3998847008e+00    2.1904099867e-06
    5.4998626709e+00    2.4646499241e-06
    5.5999817848e+00    2.7477499316e-06
    5.6998472214e+00    3.0377200346e-06
    5.7998046875e+00    3.3475901091e-06
    5.8998994827e+00    3.6789899696e-06
    5.9999914169e+00    4.0312697820e-06
    6.0998306274e+00    4.3988397920e-06
    6.1999139786e+00    4.7897401600e-06
    6.2998967171e+00    5.2127397794e-06
    6.3998079300e+00    5.6768599279e-06
    6.4998803139e+00    6.1830000959e-06
    6.5999507904e+00    6.7307100835e-06
    6.6999664307e+00    7.3080600487e-06
    6.7998299599e+00    7.9097899288e-06
    6.8998317719e+00    8.5302599473e-06
    6.9998917580e+00    9.1560996225e-06
    7.0998682976e+00    9.7961101346e-06
    7.1999130249e+00    1.0460699741e-05
    7.2999601364e+00    1.1147600162e-05
    7.3999619484e+00    1.1846899724e-05
    7.4998159409e+00    1.2560600226e-05
    7.5999779701e+00    1.3284699889e-05
    7.6999573708e+00    1.4022500181e-05
    7.7999353409e+00    1.4778100194e-05
    7.8999133110e+00    1.5545600036e-05
    7.9999518394e+00    1.6328800484e-05
    8.0999116898e+00    1.7124699298e-05
    8.1999921799e+00    1.7937300072e-05
    8.2998600006e+00    1.8764099877e-05
    8.3999414444e+00    1.9617200451e-05
    8.4999418259e+00    2.0496900106e-05
    8.5998668671e+00    2.1414000003e-05
    8.6999950409e+00    2.2366100893e-05
    8.7998943329e+00    2.3344300644e-05
    8.8998794556e+00    2.4348000807e-05
    8.9998931885e+00    2.5364399335e-05
    9.0998735428e+00    2.6395500754e-05
    9.1998090744e+00    2.7441599741e-05
    9.2998924255e+00    2.8507200113e-05
    9.3998374939e+00    2.9589200494e-05
    9.4999208450e+00    3.0700000934e-05
    9.5998888016e+00    3.1828800275e-05
    9.6999607086e+00    3.2978601666e-05
    9.7999601364e+00    3.4151198633e-05
    9.8999509811e+00    3.5351000406e-05
    9.9999437332e+00    3.6580499000e-05
    1.0099899292e+01    3.7836398405e-05
    1.0199932098e+01    3.9122100134e-05
    1.0299875259e+01    4.0433198592e-05
    1.0399922371e+01    4.1771498218e-05
    1.0499888420e+01    4.3134699808e-05
    1.0599976540e+01    4.4524298573e-05
    1.0699834824e+01    4.5922301069e-05
    1.0799839020e+01    4.7385499784e-05
    1.0899987221e+01    4.8931498895e-05
    1.0999872208e+01    5.0521899539e-05
    1.1099974632e+01    5.2118200983e-05
    1.1199816704e+01    5.3702300647e-05
    1.1299883842e+01    5.5267999414e-05
    1.1399881363e+01    5.6811200920e-05
    1.1499829292e+01    5.8333898778e-05
    1.1599976540e+01    5.9855199652e-05
    1.1699942589e+01    6.1385500885e-05
    1.1799819946e+01    6.2937302573e-05
    1.1899915695e+01    6.4521402237e-05
    1.1999942780e+01    6.6133397922e-05
    1.2099864960e+01    6.7804401624e-05
    1.2199995041e+01    6.9543501013e-05
    1.2300000191e+01    7.1365800977e-05
    1.2399901390e+01    7.3229399277e-05
    1.2499962807e+01    7.5149298937e-05
    1.2599871635e+01    7.7119002526e-05
    1.2699990273e+01    7.9148303485e-05
    1.2799981117e+01    8.1224898167e-05
    1.2899868011e+01    8.3375700342e-05
    1.2999883652e+01    8.5608000518e-05
    1.3099851608e+01    8.7916800112e-05
    1.3199937820e+01    9.0296198323e-05
    1.3299961090e+01    9.2708898592e-05
    1.3399948120e+01    9.5156996395e-05
    1.3499955177e+01    9.7629002994e-05
    1.3599972725e+01    1.0012999701e-04
    1.3699863434e+01    1.0265199671e-04
    1.3799963951e+01    1.0521100194e-04
    1.3899989128e+01    1.0781000310e-04
    1.3999843597e+01    1.1046400323e-04
    1.4099994659e+01    1.1318200268e-04
    1.4199995995e+01    1.1595900287e-04
    1.4299977303e+01    1.1881600221e-04
    1.4399853706e+01    1.2175599841e-04
    1.4499971390e+01    1.2479600264e-04
    1.4599962234e+01    1.2789800530e-04
    1.4699860573e+01    1.3104699610e-04
    1.4799954414e+01    1.3424899953e-04
    1.4899956703e+01    1.3750400103e-04
    1.4999971390e+01    1.4082000416e-04
    1.5099837303e+01    1.4420300431e-04
    1.5200016975e+01    1.4767599350e-04
    1.5299937248e+01    1.5121999604e-04
    1.5399894714e+01    1.5482699382e-04
    1.5499953270e+01    1.5849700139e-04
    1.5599922180e+01    1.6221399710e-04
    1.5699946404e+01    1.6599700029e-04
    1.5799880981e+01    1.6984800459e-04
    1.5899893761e+01    1.7377700715e-04
    1.6000009537e+01    1.7777900212e-04
    1.6100021362e+01    1.8185000226e-04
    1.6199943542e+01    1.8600199837e-04
    1.6299993515e+01    1.9026300288e-04
    1.6399923325e+01    1.9463800709e-04
    1.6499935150e+01    1.9913399592e-04
    1.6600019455e+01    2.0375300664e-04
    1.6699966431e+01    2.0846299594e-04
    1.6799919128e+01    2.1326300339e-04
    1.6899942398e+01    2.1813399508e-04
    1.6999977112e+01    2.2306399478e-04
    1.7099969864e+01    2.2806499328e-04
    1.7200016022e+01    2.3314700229e-04
    1.7299913406e+01    2.3829900601e-04
    1.7399948120e+01    2.4351899629e-04
    1.7499986649e+01    2.4880698766e-04
    1.7599855423e+01    2.5415001437e-04
    1.7699888229e+01    2.5957598700e-04
    1.7799867630e+01    2.6506799622e-04
    1.7900030136e+01    2.7064300957e-04
    1.8000001907e+01    2.7627000236e-04
    1.8100002289e+01    2.8196800849e-04
    1.8199903488e+01    2.8773199301e-04
    1.8299930573e+01    2.9357499443e-04
    1.8399866104e+01    2.9950099997e-04
    1.8499961853e+01    3.0553698889e-04
    1.8600009918e+01    3.1168299029e-04
    1.8699945450e+01    3.1791999936e-04
    1.8799982071e+01    3.2426300459e-04
    1.8899885178e+01    3.3068298944e-04
    1.8999877930e+01    3.3718498889e-04
    1.9099937439e+01    3.4376399708e-04
    1.9199964523e+01    3.5042001400e-04
    1.9299915314e+01    3.5714698606e-04
    1.9399930954e+01    3.6395998904e-04
    1.9499971390e+01    3.7086498924e-04
    1.9599996567e+01    3.7785599125e-04
    1.9699876785e+01    3.8492199383e-04
    1.9799945831e+01    3.9209800889e-04
    1.9899951935e+01    3.9937501424e-04
    1.9999975204e+01    4.0675798664e-04
    2.0099910736e+01    4.1423499351e-04
    2.0200038910e+01    4.2182800826e-04
    2.0299928665e+01    4.2950699572e-04
    2.0399969101e+01    4.3729200843e-04
    2.0499897003e+01    4.4516898924e-04
    2.0599882126e+01    4.5315400348e-04
    2.0699890137e+01    4.6123701031e-04
    2.0800008774e+01    4.6947799274e-04
    2.0900033951e+01    4.7787101357e-04
    2.0999982834e+01    4.8638199223e-04
    2.1099977493e+01    4.9496797146e-04
    2.1199924469e+01    5.0361600006e-04
    2.1299985886e+01    5.1231798716e-04
    2.1399898529e+01    5.2105099894e-04
    2.1500028610e+01    5.2985100774e-04
    2.1599893570e+01    5.3869502153e-04
    2.1700010300e+01    5.4763897788e-04
    2.1799985886e+01    5.5666401749e-04
    2.1899875641e+01    5.6578998920e-04
    2.1999879837e+01    5.7504797587e-04
    2.2100011826e+01    5.8446597541e-04
    2.2199956894e+01    5.9401802719e-04
    2.2300016403e+01    6.0374999885e-04
    2.2400018692e+01    6.1360298423e-04
    2.2499933243e+01    6.2358297873e-04
    2.2600017548e+01    6.3372100703e-04
    2.2699880600e+01    6.4397900132e-04
    2.2799909592e+01    6.5439497121e-04
    2.2900049210e+01    6.6498701926e-04
    2.2999948502e+01    6.7572697299e-04
    2.3099882126e+01    6.8663398270e-04
    2.3199964523e+01    6.9771200651e-04
    2.3299911499e+01    7.0889398921e-04
    2.3400043488e+01    7.2021997767e-04
    2.3499912262e+01    7.3162198532e-04
    2.3599950790e+01    7.4315402890e-04
    2.3699897766e+01    7.5477699284e-04
    2.3799978256e+01    7.6653301949e-04
    2.3899904251e+01    7.7839498408e-04
    2.4000043869e+01    7.9042598372e-04
    2.4100038528e+01    8.0259598326e-04
    2.4200052261e+01    8.1492302706e-04
    2.4300033569e+01    8.2741997903e-04
    2.4399972916e+01    8.4009300917e-04
    2.4500045776e+01    8.5295998724e-04
    2.4599969864e+01    8.6595700122e-04
    2.4699985504e+01    8.7910401635e-04
    2.4800001144e+01    8.9237798238e-04
    2.4899925232e+01    9.0578198433e-04
    2.4999992371e+01    9.1935100500e-04
    2.5100019455e+01    9.3307497445e-04
    2.5199989319e+01    9.4695598818e-04
    2.5299991608e+01    9.6099497750e-04
    2.5399894714e+01    9.7517302493e-04
    2.5499933243e+01    9.8951300606e-04
    2.5600042343e+01    1.0039999615e-03
    2.5699977875e+01    1.0186099680e-03
    2.5799924850e+01    1.0333800456e-03
    2.5899940491e+01    1.0483199731e-03
    2.5999990463e+01    1.0634099599e-03
    2.6100011826e+01    1.0786700295e-03
    2.6199951172e+01    1.0940900538e-03
    2.6299898148e+01    1.1097099632e-03
    2.6399993896e+01    1.1255800491e-03
    2.6500017166e+01    1.1416500201e-03
    2.6599876404e+01    1.1579099810e-03
    2.6700063705e+01    1.1744099902e-03
    2.6800020218e+01    1.1910500471e-03
    2.6900028229e+01    1.2078599539e-03
    2.6999944687e+01    1.2248000130e-03
    2.7100065231e+01    1.2419399573e-03
    2.7199987411e+01    1.2592199491e-03
    2.7299985886e+01    1.2766700238e-03
    2.7399879456e+01    1.2942500180e-03
    2.7500011444e+01    1.3120300137e-03
    2.7599903107e+01    1.3299300335e-03
    2.7700067520e+01    1.3480399502e-03
    2.7800014496e+01    1.3662800193e-03
    2.7899932861e+01    1.3846700313e-03
    2.7999940872e+01    1.4032300096e-03
    2.8099967957e+01    1.4219599543e-03
    2.8200038910e+01    1.4408399584e-03
    2.8299932480e+01    1.4598700218e-03
    2.8400028229e+01    1.4791099820e-03
    2.8500000000e+01    1.4985300368e-03
    2.8600059509e+01    1.5181800118e-03
    2.8700017929e+01    1.5380099649e-03
    2.8800045013e+01    1.5580400359e-03
    2.8900045395e+01    1.5782399569e-03
    2.8999914169e+01    1.5985900536e-03
    2.9100065231e+01    1.6191500472e-03
    2.9199949265e+01    1.6398399603e-03
    2.9299966812e+01    1.6607199796e-03
    2.9400009155e+01    1.6817799769e-03
    2.9499992371e+01    1.7030000454e-03
    2.9599905014e+01    1.7243899638e-03
    2.9699943542e+01    1.7460000236e-03
    2.9800020218e+01    1.7678099684e-03
    2.9900011063e+01    1.7898200313e-03
    3.0000030518e+01    1.8120299792e-03
    3.0099977493e+01    1.8344300333e-03
    3.0200006485e+01    1.8570399843e-03
    3.0299949646e+01    1.8798300298e-03
    3.0400007248e+01    1.9028399838e-03
    3.0499969482e+01    1.9260400441e-03
    3.0599927902e+01    1.9494299777e-03
    3.0699987411e+01    1.9730099011e-03
    3.0800060272e+01    1.9968799315e-03
    3.0900039673e+01    2.0210400689e-03
    3.0999963760e+01    2.0454500336e-03
    3.1100059509e+01    2.0700499881e-03
    3.1200065613e+01    2.0947500598e-03
    3.1300043106e+01    2.1195199806e-03
    3.1400012970e+01    2.1443699952e-03
    3.1500053406e+01    2.1693101153e-03
    3.1599956512e+01    2.1943498868e-03
    3.1700004578e+01    2.2195701022e-03
    3.1799985886e+01    2.2449700627e-03
    3.1900049210e+01    2.2705900483e-03
    3.2000019073e+01    2.2964100353e-03
    3.2100021362e+01    2.3225001059e-03
    3.2200027466e+01    2.3488700390e-03
    3.2299896240e+01    2.3755300790e-03
    3.2399921417e+01    2.4024599697e-03
    3.2500053406e+01    2.4296799675e-03
    3.2599964142e+01    2.4570799433e-03
    3.2699958801e+01    2.4847600143e-03
    3.2799972534e+01    2.5126799010e-03
    3.2899932861e+01    2.5408999063e-03
    3.2999946594e+01    2.5694400538e-03
    3.3099956512e+01    2.5982900988e-03
    3.3200050354e+01    2.6274500415e-03
    3.3299980164e+01    2.6567699388e-03
    3.3399986267e+01    2.6863298845e-03
    3.3500026703e+01    2.7160700411e-03
    3.3599929810e+01    2.7459498961e-03
    3.3699920654e+01    2.7760299854e-03
    3.3799945831e+01    2.8063300997e-03
    3.3899971008e+01    2.8368500061e-03
    3.4000022888e+01    2.8676500078e-03
    3.4099967957e+01    2.8986800462e-03
    3.4200031281e+01    2.9300099704e-03
    3.4299991608e+01    2.9616199899e-03
    3.4399997711e+01    2.9935699422e-03
    3.4499969482e+01    3.0258400366e-03
    3.4599987030e+01    3.0583899934e-03
    3.4700038910e+01    3.0912100337e-03
    3.4799896240e+01    3.1241700053e-03
    3.4899944305e+01    3.1574498862e-03
    3.5000022888e+01    3.1909900717e-03
    3.5099899292e+01    3.2247600611e-03
    3.5200019836e+01    3.2589100301e-03
    3.5299957275e+01    3.2932900358e-03
    3.5400020599e+01    3.3279999625e-03
    3.5499973297e+01    3.3629199024e-03
    3.5599994659e+01    3.3980999142e-03
    3.5699958801e+01    3.4335199744e-03
    3.5799915314e+01    3.4692198969e-03
    3.5899986267e+01    3.5052499734e-03
    3.6000007629e+01    3.5415499005e-03
    3.6099834442e+01    3.5780600738e-03
    3.6199829102e+01    3.6149600055e-03
    3.6299858093e+01    3.6522299051e-03
    3.6399887085e+01    3.6898900289e-03
    3.6499965668e+01    3.7279699463e-03
    3.6599861145e+01    3.7663700059e-03
    3.6699977875e+01    3.8052101154e-03
    3.6799884796e+01    3.8442800287e-03
    3.6899868011e+01    3.8836700842e-03
    3.7000000000e+01    3.9233500138e-03
    3.7099826813e+01    3.9632101543e-03
    3.7199993134e+01    4.0035001002e-03
    3.7299999237e+01    4.0440401062e-03
    3.7399833679e+01    4.0847500786e-03
    3.7499885559e+01    4.1258498095e-03
    3.7599887848e+01    4.1671800427e-03
    3.7699905396e+01    4.2088199407e-03
    3.7799926758e+01    4.2507401668e-03
    3.7899852753e+01    4.2929099873e-03
    3.7999881744e+01    4.3353699148e-03
    3.8099922180e+01    4.3781199493e-03
    3.8199855804e+01    4.4211097993e-03
    3.8299934387e+01    4.4644498266e-03
    3.8399871826e+01    4.5080399141e-03
    3.8499889374e+01    4.5520099811e-03
    3.8599884033e+01    4.5963600278e-03
    3.8699882507e+01    4.6410500072e-03
    3.8799812317e+01    4.6860501170e-03
    3.8899814606e+01    4.7313999385e-03
    3.8999797821e+01    4.7770198435e-03
    3.9099895477e+01    4.8229601234e-03
    3.9199844360e+01    4.8691299744e-03
    3.9299861908e+01    4.9156202003e-03
    3.9399944305e+01    4.9624200910e-03
    3.9499946594e+01    5.0094998442e-03
    3.9599903107e+01    5.0568701699e-03
    3.9699886322e+01    5.1045799628e-03
    3.9799957275e+01    5.1526501775e-03
    3.9899921417e+01    5.2010300569e-03
    3.9999809265e+01    5.2497098222e-03
    4.0099941254e+01    5.2988501266e-03
    4.0199787140e+01    5.3481901996e-03
    4.0299869537e+01    5.3979898803e-03
    4.0399929047e+01    5.4481001571e-03
    4.0499782562e+01    5.4984302260e-03
    4.0599948883e+01    5.5492701940e-03
    4.0699897766e+01    5.6002899073e-03
    4.0799831390e+01    5.6517799385e-03
    4.0899837494e+01    5.7037998922e-03
    4.0999752045e+01    5.7561798021e-03
    4.1099769592e+01    5.8088698424e-03
    4.1199775696e+01    5.8617801405e-03
    4.1299812317e+01    5.9148701839e-03
    4.1399841309e+01    5.9681101702e-03
    4.1499851227e+01    6.0215201229e-03
    4.1599895477e+01    6.0751801357e-03
    4.1699802399e+01    6.1290501617e-03
    4.1799865723e+01    6.1832899228e-03
    4.1899848938e+01    6.2378500588e-03
    4.1999832153e+01    6.2927701510e-03
    4.2099906921e+01    6.3481898978e-03
    4.2199810028e+01    6.4039700665e-03
    4.2299758911e+01    6.4602801576e-03
    4.2399814606e+01    6.5170400776e-03
    4.2499809265e+01    6.5741799772e-03
    4.2599796295e+01    6.6317198798e-03
    4.2699745178e+01    6.6896597855e-03
    4.2799892426e+01    6.7481300794e-03
    4.2899875641e+01    6.8069999106e-03
    4.2999862671e+01    6.8663801067e-03
    4.3099845886e+01    6.9262501784e-03
    4.3199832916e+01    6.9865798578e-03
    4.3299884796e+01    7.0473002270e-03
    4.3399837494e+01    7.1083297953e-03
    4.3499855042e+01    7.1697100066e-03
    4.3599899292e+01    7.2314301506e-03
    4.3699829102e+01    7.2933901101e-03
    4.3799827576e+01    7.3557398282e-03
    4.3899833679e+01    7.4184797704e-03
    4.3999832153e+01    7.4816402048e-03
    4.4099826813e+01    7.5452597812e-03
    4.4199737549e+01    7.6092700474e-03
    4.4299892426e+01    7.6739601791e-03
    4.4399868011e+01    7.7390400693e-03
    4.4499702454e+01    7.8045600094e-03
    4.4599742889e+01    7.8706499189e-03
    4.4699775696e+01    7.9371398315e-03
    4.4799800873e+01    8.0039901659e-03
    4.4899864197e+01    8.0712903291e-03
    4.4999713898e+01    8.1388596445e-03
    4.5099708557e+01    8.2070101053e-03
    4.5199810028e+01    8.2757100463e-03
    4.5299716949e+01    8.3447499201e-03
    4.5399738312e+01    8.4143104032e-03
    4.5499870300e+01    8.4843598306e-03
    4.5599754333e+01    8.5546402261e-03
    4.5699707031e+01    8.6253797635e-03
    4.5799831390e+01    8.6967097595e-03
    4.5899711609e+01    8.7683200836e-03
    4.5999748230e+01    8.8405003771e-03
    4.6099834442e+01    8.9131798595e-03
    4.6199802399e+01    8.9862896129e-03
    4.6299800873e+01    9.0599898249e-03
    4.6399692535e+01    9.1342302039e-03
    4.6499713898e+01    9.2091895640e-03
    4.6599819183e+01    9.2848101631e-03
    4.6699840546e+01    9.3609103933e-03
    4.6799701691e+01    9.4373803586e-03
    4.6899787903e+01    9.5144798979e-03
    4.6999794006e+01    9.5919203013e-03
    4.7099784851e+01    9.6698198467e-03
    4.7199695587e+01    9.7481403500e-03
    4.7299804688e+01    9.8270801827e-03
    4.7399776459e+01    9.9063403904e-03
    4.7499843597e+01    9.9861202762e-03
    4.7599708557e+01    1.0066200048e-02
    4.7699691772e+01    1.0146800429e-02
    4.7799755096e+01    1.0227899998e-02
    4.7899799347e+01    1.0309499688e-02
    4.7999759674e+01    1.0391400196e-02
    4.8099727631e+01    1.0473799892e-02
    4.8199680328e+01    1.0556600057e-02
    4.8299709320e+01    1.0639900342e-02
    4.8399784088e+01    1.0723800398e-02
    4.8499725342e+01    1.0808099993e-02
    4.8599765778e+01    1.0893099941e-02
    4.8699726105e+01    1.0978600010e-02
    4.8799701691e+01    1.1064600199e-02
    4.8899768829e+01    1.1151099578e-02
    4.8999675751e+01    1.1238000356e-02
    4.9099800110e+01    1.1325499974e-02
    4.9199691772e+01    1.1413300410e-02
    4.9299644470e+01    1.1501600035e-02
    4.9399677277e+01    1.1590399779e-02
    4.9499786377e+01    1.1679800227e-02
    4.9599704742e+01    1.1769499630e-02
    4.9699722290e+01    1.1859799735e-02
    4.9799629211e+01    1.1950500309e-02
    4.9899761200e+01    1.2041999958e-02
    4.9999683380e+01    1.2133900076e-02
    5.0099693298e+01    1.2226300314e-02
    5.0199775696e+01    1.2319399975e-02
    5.0299724579e+01    1.2412900105e-02
    5.0399742126e+01    1.2507000007e-02
    5.0499668121e+01    1.2601500377e-02
    5.0599678040e+01    1.2696599588e-02
    5.0699630737e+01    1.2792199850e-02
    5.0799720764e+01    1.2888600118e-02
    5.0899765015e+01    1.2985800393e-02
    5.0999656677e+01    1.3083299622e-02
    5.1099712372e+01    1.3181500137e-02
    5.1199718475e+01    1.3280100189e-02
    5.1299747467e+01    1.3378899544e-02
    5.1399620056e+01    1.3477900065e-02
    5.1499671936e+01    1.3577500358e-02
    5.1599685669e+01    1.3677399606e-02
    5.1699718475e+01    1.3777799904e-02
    5.1799606323e+01    1.3878500089e-02
    5.1899761200e+01    1.3980000280e-02
    5.1999633789e+01    1.4081800357e-02
    5.2099731445e+01    1.4184500091e-02
    5.2199714661e+01    1.4287900180e-02
    5.2299598694e+01    1.4391800389e-02
    5.2399673462e+01    1.4496499673e-02
    5.2499603271e+01    1.4601700008e-02
    5.2599750519e+01    1.4707800001e-02
    5.2699607849e+01    1.4814199880e-02
    5.2799686432e+01    1.4921500348e-02
    5.2899692535e+01    1.5029399656e-02
    5.2999664307e+01    1.5138099901e-02
    5.3099590302e+01    1.5247399919e-02
    5.3199596405e+01    1.5357499942e-02
    5.3299671173e+01    1.5468199737e-02
    5.3399654388e+01    1.5579399653e-02
    5.3499603271e+01    1.5691099688e-02
    5.3599712372e+01    1.5803400427e-02
    5.3699672699e+01    1.5916099772e-02
    5.3799583435e+01    1.6029199585e-02
    5.3899574280e+01    1.6143100336e-02
    5.3999687195e+01    1.6257699579e-02
    5.4099624634e+01    1.6372799873e-02
    5.4199634552e+01    1.6488699242e-02
    5.4299663544e+01    1.6605300829e-02
    5.4399547577e+01    1.6722500324e-02
    5.4499645233e+01    1.6840800643e-02
    5.4599685669e+01    1.6959600151e-02
    5.4699588776e+01    1.7078800127e-02
    5.4799594879e+01    1.7198799178e-02
    5.4899650574e+01    1.7319399863e-02
    5.4999568939e+01    1.7440499738e-02
    5.5099613190e+01    1.7562499270e-02
    5.5199722290e+01    1.7685199156e-02
    5.5299694061e+01    1.7808400095e-02
    5.5399608612e+01    1.7932200804e-02
    5.5499637604e+01    1.8056800589e-02
    5.5599674225e+01    1.8182000145e-02
    5.5699668884e+01    1.8307700753e-02
    5.5799541473e+01    1.8433999270e-02
    5.5899627686e+01    1.8561199307e-02
    5.5999656677e+01    1.8688999116e-02
    5.6099613190e+01    1.8817299977e-02
    5.6199653625e+01    1.8946599215e-02
    5.6299560547e+01    1.9076399505e-02
    5.6399532318e+01    1.9207300618e-02
    5.6499553680e+01    1.9339000806e-02
    5.6599662781e+01    1.9471699372e-02
    5.6699607849e+01    1.9604999572e-02
    5.6799545288e+01    1.9739000127e-02
    5.6899665833e+01    1.9873900339e-02
    5.6999614716e+01    2.0009199157e-02
    5.7099521637e+01    2.0145000890e-02
    5.7199523926e+01    2.0281799138e-02
    5.7299674988e+01    2.0419400185e-02
    5.7399566650e+01    2.0557200536e-02
    5.7499595642e+01    2.0695999265e-02
    5.7599620819e+01    2.0835300907e-02
    5.7699558258e+01    2.0975299180e-02
    5.7799518585e+01    2.1115899086e-02
    5.7899627686e+01    2.1257400513e-02
    5.7999576569e+01    2.1399199963e-02
    5.8099639893e+01    2.1541899070e-02
    5.8199581146e+01    2.1685099229e-02
    5.8299652100e+01    2.1829100326e-02
    5.8399593353e+01    2.1973699331e-02
    5.8499515533e+01    2.2119000554e-02
    5.8599624634e+01    2.2265499458e-02
    5.8699584961e+01    2.2412400693e-02
    5.8799510956e+01    2.2560099140e-02
    5.8899551392e+01    2.2708699107e-02
    5.8999591827e+01    2.2857900709e-02
    5.9099605560e+01    2.3007700220e-02
    5.9199497223e+01    2.3158000782e-02
    5.9299488068e+01    2.3309199139e-02
    5.9399654388e+01    2.3461200297e-02
    5.9499633789e+01    2.3613700643e-02
    5.9599586487e+01    2.3766899481e-02
    5.9699630737e+01    2.3920899257e-02
    5.9799552917e+01    2.4075500667e-02
    5.9899524689e+01    2.4230999872e-02
    5.9999519348e+01    2.4387300014e-02
    6.0099643707e+01    2.4544499815e-02
    6.0199581146e+01    2.4702200666e-02
    6.0299583435e+01    2.4860799313e-02
    6.0399501801e+01    2.5019900873e-02
    6.0499507904e+01    2.5180000812e-02
    6.0599502563e+01    2.5340799242e-02
    6.0699542999e+01    2.5502400473e-02
    6.0799564362e+01    2.5665000081e-02
    6.0899490356e+01    2.5828400627e-02
    6.0999588013e+01    2.5992900133e-02
    6.1099559784e+01    2.6157800108e-02
    6.1199512482e+01    2.6323299855e-02
    6.1299606323e+01    2.6489499956e-02
    6.1399570465e+01    2.6655999944e-02
    6.1499546051e+01    2.6822999120e-02
    6.1599517822e+01    2.6990599930e-02
    6.1699516296e+01    2.7158800513e-02
    6.1799499512e+01    2.7327699587e-02
    6.1899562836e+01    2.7497600764e-02
    6.1999618530e+01    2.7668200433e-02
    6.2099491119e+01    2.7839399874e-02
    6.2199600220e+01    2.8011899441e-02
    6.2299610138e+01    2.8185199946e-02
    6.2399501801e+01    2.8359200805e-02
    6.2499546051e+01    2.8534300625e-02
    6.2599575043e+01    2.8710199520e-02
    6.2699577332e+01    2.8886899352e-02
    6.2799491882e+01    2.9064299539e-02
    6.2899452209e+01    2.9242800549e-02
    6.2999519348e+01    2.9422400519e-02
    6.3099445343e+01    2.9602700844e-02
    6.3199558258e+01    2.9784299433e-02
    6.3299438477e+01    2.9966199771e-02
    6.3399513245e+01    3.0149299651e-02
    6.3499568939e+01    3.0332999304e-02
    6.3599418640e+01    3.0517000705e-02
    6.3699485779e+01    3.0702099204e-02
    6.3799503326e+01    3.0887799338e-02
    6.3899452209e+01    3.1074300408e-02
    6.3999488831e+01    3.1261701137e-02
    6.4099487305e+01    3.1449999660e-02
    6.4199447632e+01    3.1639099121e-02
    6.4299552917e+01    3.1829401851e-02
    6.4399536133e+01    3.2020501792e-02
    6.4499488831e+01    3.2212499529e-02
    6.4599418640e+01    3.2405398786e-02
    6.4699417114e+01    3.2599199563e-02
    6.4799423218e+01    3.2793801278e-02
    6.4899421692e+01    3.2989099622e-02
    6.4999542236e+01    3.3185601234e-02
    6.5099555969e+01    3.3382698894e-02
    6.5199523926e+01    3.3580701798e-02
    6.5299377441e+01    3.3779300749e-02
    6.5399513245e+01    3.3979300410e-02
    6.5499412537e+01    3.4179698676e-02
    6.5599411011e+01    3.4380998462e-02
    6.5699424744e+01    3.4583199769e-02
    6.5799400330e+01    3.4786198288e-02
    6.5899452209e+01    3.4990198910e-02
    6.5999427795e+01    3.5194899887e-02
    6.6099388123e+01    3.5400498658e-02
    6.6199417114e+01    3.5607200116e-02
    6.6299415588e+01    3.5814899951e-02
    6.6399398804e+01    3.6023598164e-02
    6.6499412537e+01    3.6233499646e-02
    6.6599380493e+01    3.6444399506e-02
    6.6699378967e+01    3.6656398326e-02
    6.6799461365e+01    3.6869499832e-02
    6.6899375916e+01    3.7082999945e-02
    6.6999488831e+01    3.7297800183e-02
    6.7099540710e+01    3.7513300776e-02
    6.7199363708e+01    3.7729300559e-02
    6.7299507141e+01    3.7946801633e-02
    6.7399497986e+01    3.8164798170e-02
    6.7499420166e+01    3.8383498788e-02
    6.7599533081e+01    3.8603398949e-02
    6.7699516296e+01    3.8823999465e-02
    6.7799362183e+01    3.9045099169e-02
    6.7899444580e+01    3.9267499000e-02
    6.7999511719e+01    3.9490800351e-02
    6.8099472046e+01    3.9714600891e-02
    6.8199531555e+01    3.9939500391e-02
    6.8299430847e+01    4.0164899081e-02
    6.8399414062e+01    4.0391400456e-02
    6.8499496460e+01    4.0619101375e-02
    6.8599418640e+01    4.0847498924e-02
    6.8699386597e+01    4.1076999158e-02
    6.8799392700e+01    4.1307501495e-02
    6.8899421692e+01    4.1538998485e-02
    6.8999366760e+01    4.1771098971e-02
    6.9099372864e+01    4.2004201561e-02
    6.9199440002e+01    4.2238298804e-02
    6.9299400330e+01    4.2472898960e-02
    6.9399444580e+01    4.2708601803e-02
    6.9499412537e+01    4.2945001274e-02
    6.9599327087e+01    4.3182201684e-02
    6.9699478149e+01    4.3420899659e-02
    6.9799331665e+01    4.3659798801e-02
    6.9899452209e+01    4.3900199234e-02
    6.9999389648e+01    4.4141300023e-02
    7.0099426270e+01    4.4383499771e-02
    7.0199493408e+01    4.4626701623e-02
    7.0299446106e+01    4.4870600104e-02
    7.0399475098e+01    4.5115601271e-02
    7.0499389648e+01    4.5361299068e-02
    7.0599334717e+01    4.5607998967e-02
    7.0699302673e+01    4.5855700970e-02
    7.0799377441e+01    4.6104799956e-02
    7.0899337769e+01    4.6354800463e-02
    7.0999313354e+01    4.6605799347e-02
    7.1099380493e+01    4.6857900918e-02
    7.1199310303e+01    4.7110401094e-02
    7.1299301147e+01    4.7363698483e-02
    7.1399375916e+01    4.7617800534e-02
    7.1499404907e+01    4.7872498631e-02
    7.1599403381e+01    4.8127900809e-02
    7.1699432373e+01    4.8384100199e-02
    7.1799438477e+01    4.8641201109e-02
    7.1899360657e+01    4.8898901790e-02
    7.1999351501e+01    4.9157798290e-02
    7.2099395752e+01    4.9417998642e-02
    7.2199386597e+01    4.9679100513e-02
    7.2299392700e+01    4.9941301346e-02
    7.2399284363e+01    5.0204299390e-02
    7.2499351501e+01    5.0468798727e-02
    7.2599441528e+01    5.0734300166e-02
    7.2699371338e+01    5.1000401378e-02
    7.2799301147e+01    5.1267601550e-02
    7.2899337769e+01    5.1536198705e-02
    7.2999397278e+01    5.1805999130e-02
    7.3099411011e+01    5.2076801658e-02
    7.3199302673e+01    5.2348300815e-02
    7.3299270630e+01    5.2620999515e-02
    7.3399269104e+01    5.2894700319e-02
    7.3499389648e+01    5.3169500083e-02
    7.3599426270e+01    5.3445000201e-02
    7.3699432373e+01    5.3721200675e-02
    7.3799377441e+01    5.3998198360e-02
    7.3899391174e+01    5.4276298732e-02
    7.3999351501e+01    5.4555300623e-02
    7.4099319458e+01    5.4835401475e-02
    7.4199348450e+01    5.5116698146e-02
    7.4299362183e+01    5.5399101228e-02
    7.4399276733e+01    5.5682301521e-02
    7.4499359131e+01    5.5967200547e-02
    7.4599411011e+01    5.6253001094e-02
    7.4699378967e+01    5.6539598852e-02
    7.4799385071e+01    5.6827198714e-02
    7.4899284363e+01    5.7115398347e-02
    7.4999252319e+01    5.7404801250e-02
    7.5099349976e+01    5.7695601135e-02
    7.5199287415e+01    5.7987000793e-02
    7.5299339294e+01    5.8279801160e-02
    7.5399238586e+01    5.8573000133e-02
    7.5499366760e+01    5.8867998421e-02
    7.5599395752e+01    5.9163499624e-02
    7.5699287415e+01    5.9459600598e-02
    7.5799400330e+01    5.9757299721e-02
    7.5899253845e+01    6.0055300593e-02
    7.5999336243e+01    6.0355000198e-02
    7.6099342346e+01    6.0655400157e-02
    7.6199371338e+01    6.0956999660e-02
    7.6299293518e+01    6.1259500682e-02
    7.6399307251e+01    6.1563499272e-02
    7.6499382019e+01    6.1868999153e-02
    7.6599235535e+01    6.2174998224e-02
    7.6699325562e+01    6.2482800335e-02
    7.6799224854e+01    6.2791101635e-02
    7.6899253845e+01    6.3100799918e-02
    7.6999343872e+01    6.3411600888e-02
    7.7099334717e+01    6.3723102212e-02
    7.7199234009e+01    6.4035400748e-02
    7.7299263000e+01    6.4349003136e-02
    7.7399253845e+01    6.4663499594e-02
    7.7499359131e+01    6.4979299903e-02
    7.7599250793e+01    6.5295301378e-02
    7.7699203491e+01    6.5612599254e-02
    7.7799331665e+01    6.5931402147e-02
    7.7899253845e+01    6.6250503063e-02
    7.7999282837e+01    6.6570900381e-02
    7.8099273682e+01    6.6892102361e-02
    7.8199310303e+01    6.7214399576e-02
    7.8299217224e+01    6.7537300289e-02
    7.8399223328e+01    6.7861601710e-02
    7.8499313354e+01    6.8187199533e-02
    7.8599311829e+01    6.8513698876e-02
    7.8699195862e+01    6.8840801716e-02
    7.8799255371e+01    6.9169700146e-02
    7.8899185181e+01    6.9499097764e-02
    7.8999282837e+01    6.9830000401e-02
    7.9099205017e+01    7.0161297917e-02
    7.9199302673e+01    7.0494100451e-02
    7.9299232483e+01    7.0827297866e-02
    7.9399223328e+01    7.1161597967e-02
    7.9499259949e+01    7.1497097611e-02
    7.9599235535e+01    7.1833401918e-02
    7.9699226379e+01    7.2170697153e-02
    7.9799232483e+01    7.2509199381e-02
    7.9899238586e+01    7.2848699987e-02
    7.9999221802e+01    7.3189303279e-02
    8.0099304199e+01    7.3531202972e-02
    8.0199310303e+01    7.3873899877e-02
    8.0299293518e+01    7.4217602611e-02
    8.0399322510e+01    7.4562497437e-02
    8.0499328613e+01    7.4908301234e-02
    8.0599273682e+01    7.5254999101e-02
    8.0699256897e+01    7.5602799654e-02
    8.0799240112e+01    7.5951896608e-02
    8.0899208069e+01    7.6302297413e-02
    8.0999267578e+01    7.6654002070e-02
    8.1099227905e+01    7.7006399632e-02
    8.1199195862e+01    7.7359497547e-02
    8.1299148560e+01    7.7713400126e-02
    8.1399139404e+01    7.8068099916e-02
    8.1499137878e+01    7.8423596919e-02
    8.1599281311e+01    7.8780397773e-02
    8.1699157715e+01    7.9137198627e-02
    8.1799186707e+01    7.9495400190e-02
    8.1899269104e+01    7.9854898155e-02
    8.1999237061e+01    8.0214999616e-02
    8.2099151611e+01    8.0576099455e-02
    8.2199302673e+01    8.0939300358e-02
    8.2299301147e+01    8.1303000450e-02
    8.2399291992e+01    8.1667900085e-02
    8.2499130249e+01    8.2033298910e-02
    8.2599143982e+01    8.2400396466e-02
    8.2699134827e+01    8.2768596709e-02
    8.2799156189e+01    8.3137996495e-02
    8.2899230957e+01    8.3508796990e-02
    8.2999198914e+01    8.3880297840e-02
    8.3099220276e+01    8.4253303707e-02
    8.3199157715e+01    8.4627203643e-02
    8.3299232483e+01    8.5002601147e-02
    8.3399177551e+01    8.5378400981e-02
    8.3499122620e+01    8.5755102336e-02
    8.3599105835e+01    8.6132898927e-02
    8.3699195862e+01    8.6511999369e-02
    8.3799148560e+01    8.6891502142e-02
    8.3899253845e+01    8.7272703648e-02
    8.3999259949e+01    8.7654501200e-02
    8.4099105835e+01    8.8036797941e-02
    8.4199127197e+01    8.8421002030e-02
    8.4299171448e+01    8.8806398213e-02
    8.4399276733e+01    8.9193299413e-02
    8.4499244690e+01    8.9580796659e-02
    8.4599136353e+01    8.9969202876e-02
    8.4699180603e+01    9.0359099209e-02
    8.4799186707e+01    9.0749897063e-02
    8.4899238586e+01    9.1141797602e-02
    8.4999252319e+01    9.1534599662e-02
    8.5099166870e+01    9.1928102076e-02
    8.5199203491e+01    9.2323198915e-02
    8.5299133301e+01    9.2718899250e-02
    8.5399215698e+01    9.3116298318e-02
    8.5499084473e+01    9.3513801694e-02
    8.5599105835e+01    9.3912802637e-02
    8.5699226379e+01    9.4313301146e-02
    8.5799163818e+01    9.4714000821e-02
    8.5899246216e+01    9.5116399229e-02
    8.5999076843e+01    9.5518797636e-02
    8.6099128723e+01    9.5923103392e-02
    8.6199073792e+01    9.6328198910e-02
    8.6299217224e+01    9.6735298634e-02
    8.6399215698e+01    9.7143001854e-02
    8.6499237061e+01    9.7552202642e-02
    8.6599082947e+01    9.7961902618e-02
    8.6699096680e+01    9.8373502493e-02
    8.6799194336e+01    9.8786503077e-02
    8.6899200439e+01    9.9200099707e-02
    8.6999214172e+01    9.9614702165e-02
    8.7099174500e+01    1.0002999753e-01
    8.7199073792e+01    1.0044600070e-01
    8.7299118042e+01    1.0086400062e-01
    8.7399047852e+01    1.0128200054e-01
    8.7499076843e+01    1.0170199722e-01
    8.7599090576e+01    1.0212299973e-01
    8.7699226379e+01    1.0254500061e-01
    8.7799179077e+01    1.0296700150e-01
    8.7899223328e+01    1.0339099914e-01
    8.7999160767e+01    1.0381499678e-01
    8.8099220276e+01    1.0424099863e-01
    8.8199180603e+01    1.0466700047e-01
    8.8299087524e+01    1.0509400070e-01
    8.8399131775e+01    1.0552299768e-01
    8.8499206543e+01    1.0595300049e-01
    8.8599098206e+01    1.0638300329e-01
    8.8699096680e+01    1.0681500286e-01
    8.8799209595e+01    1.0724800080e-01
    8.8899154663e+01    1.0768199712e-01
    8.8999183655e+01    1.0811699927e-01
    8.9099166870e+01    1.0855299979e-01
    8.9199157715e+01    1.0898999870e-01
    8.9299041748e+01    1.0942699760e-01
    8.9399047852e+01    1.0986600071e-01
    8.9499176025e+01    1.1030600220e-01
    8.9599075317e+01    1.1074600369e-01
    8.9699188232e+01    1.1118800193e-01
    8.9799171448e+01    1.1163099855e-01
    8.9899032593e+01    1.1207400262e-01
    8.9999038696e+01    1.1251900345e-01
    9.0099159241e+01    1.1296600103e-01
    9.0199005127e+01    1.1341200024e-01
    9.0299125671e+01    1.1386100203e-01
    9.0399063110e+01    1.1430899799e-01
    9.0499130249e+01    1.1475999653e-01
    9.0599159241e+01    1.1521100253e-01
    9.0699081421e+01    1.1566299945e-01
    9.0799171448e+01    1.1611600220e-01
    9.0899009705e+01    1.1657000333e-01
    9.0999168396e+01    1.1702699959e-01
    9.1099151611e+01    1.1748400331e-01
    9.1199073792e+01    1.1794099957e-01
    9.1299057007e+01    1.1839900166e-01
    9.1398994446e+01    1.1885699630e-01
    9.1499046326e+01    1.1931700259e-01
    9.1599113464e+01    1.1977700144e-01
    9.1699127197e+01    1.2023799866e-01
    9.1799171448e+01    1.2070000172e-01
    9.1899078369e+01    1.2116300315e-01
    9.1999114990e+01    1.2162700295e-01
    9.2099098206e+01    1.2209200114e-01
    9.2199127197e+01    1.2255799770e-01
    9.2299110413e+01    1.2302599847e-01
    9.2399101257e+01    1.2349399924e-01
    9.2499023438e+01    1.2396299839e-01
    9.2599098206e+01    1.2443400174e-01
    9.2699005127e+01    1.2490600348e-01
    9.2799041748e+01    1.2537899613e-01
    9.2899116516e+01    1.2585300207e-01
    9.2999008179e+01    1.2632800639e-01
    9.3099113464e+01    1.2680399418e-01
    9.3199012756e+01    1.2728099525e-01
    9.3299034119e+01    1.2775999308e-01
    9.3399032593e+01    1.2823900580e-01
    9.3499137878e+01    1.2872000039e-01
    9.3599136353e+01    1.2920099497e-01
    9.3699119568e+01    1.2968200445e-01
    9.3798965454e+01    1.3016399741e-01
    9.3899009705e+01    1.3064800203e-01
    9.3998992920e+01    1.3113300502e-01
    9.4099067688e+01    1.3161900640e-01
    9.4199058533e+01    1.3210499287e-01
    9.4298950195e+01    1.3259300590e-01
    9.4398979187e+01    1.3308200240e-01
    9.4499099731e+01    1.3357299566e-01
    9.4599098206e+01    1.3406400383e-01
    9.4699066162e+01    1.3455599546e-01
    9.4798995972e+01    1.3504900038e-01
    9.4898948669e+01    1.3554300368e-01
    9.4998939514e+01    1.3603800535e-01
    9.5099014282e+01    1.3653400540e-01
    9.5198974609e+01    1.3703100383e-01
    9.5298995972e+01    1.3752999902e-01
    9.5399063110e+01    1.3802899420e-01
    9.5499069214e+01    1.3852900267e-01
    9.5598960876e+01    1.3902899623e-01
    9.5698982239e+01    1.3953100145e-01
    9.5799026489e+01    1.4003400505e-01
    9.5899078369e+01    1.4053800702e-01
    9.5998947144e+01    1.4104199409e-01
    9.6098976135e+01    1.4154799283e-01
    9.6198974609e+01    1.4205500484e-01
    9.6299003601e+01    1.4256300032e-01
    9.6399070740e+01    1.4307199419e-01
    9.6498947144e+01    1.4358200133e-01
    9.6598953247e+01    1.4409400523e-01
    9.6698928833e+01    1.4460599422e-01
    9.6799049377e+01    1.4512099326e-01
    9.6898971558e+01    1.4563499391e-01
    9.6999076843e+01    1.4615100622e-01
    9.7098937988e+01    1.4666700363e-01
    9.7198974609e+01    1.4718399942e-01
    9.7298912048e+01    1.4770199358e-01
    9.7399055481e+01    1.4822199941e-01
    9.7499008179e+01    1.4874200523e-01
    9.7598922729e+01    1.4926299453e-01
    9.7698928833e+01    1.4978499711e-01
    9.7799018860e+01    1.5030799806e-01
    9.7899002075e+01    1.5083199739e-01
    9.7998908997e+01    1.5135599673e-01
    9.8098945618e+01    1.5188199282e-01
    9.8198989868e+01    1.5240800381e-01
    9.8298927307e+01    1.5293499827e-01
    9.8399032593e+01    1.5346400440e-01
    9.8498947144e+01    1.5399299562e-01
    9.8599029541e+01    1.5452399850e-01
    9.8698898315e+01    1.5505400300e-01
    9.8798881531e+01    1.5558700264e-01
    9.8899024963e+01    1.5612100065e-01
    9.8998886108e+01    1.5665400028e-01
    9.9098922729e+01    1.5718899667e-01
    9.9199020386e+01    1.5772600472e-01
    9.9299049377e+01    1.5826199949e-01
    9.9398948669e+01    1.5879899263e-01
    9.9498939514e+01    1.5933799744e-01
    9.9598899841e+01    1.5987700224e-01
    9.9698875427e+01    1.6041700542e-01
    9.9798973083e+01    1.6095800698e-01
    9.9898933411e+01    1.6150000691e-01
    9.9998931885e+01    1.6204300523e-01
    1.0009902954e+02    1.6258800030e-01
    1.0019895935e+02    1.6313299537e-01
    1.0029888916e+02    1.6367800534e-01
    1.0039891815e+02    1.6422499716e-01
    1.0049889374e+02    1.6477300227e-01
    1.0059890747e+02    1.6532200575e-01
    1.0069886017e+02    1.6587099433e-01
    1.0079886627e+02    1.6642199457e-01
    1.0089900970e+02    1.6697500646e-01
    1.0099894714e+02    1.6752700508e-01
    1.0109899139e+02    1.6808100045e-01
    1.0119901276e+02    1.6863599420e-01
    1.0129894257e+02    1.6919100285e-01
    1.0139893341e+02    1.6974599659e-01
    1.0149890137e+02    1.7030200362e-01
    1.0159886932e+02    1.7085799575e-01
    1.0169893646e+02    1.7141599953e-01
    1.0179895020e+02    1.7197400331e-01
    1.0189888000e+02    1.7253200710e-01
    1.0199893188e+02    1.7309199274e-01
    1.0209889221e+02    1.7365300655e-01
    1.0219882965e+02    1.7421500385e-01
    1.0229891968e+02    1.7477799952e-01
    1.0239894867e+02    1.7534300685e-01
    1.0249891663e+02    1.7590700090e-01
    1.0259889984e+02    1.7647300661e-01
    1.0269891357e+02    1.7703999579e-01
    1.0279884338e+02    1.7760799825e-01
    1.0289882660e+02    1.7817699909e-01
    1.0299896240e+02    1.7874799669e-01
    1.0309884644e+02    1.7931899428e-01
    1.0319883728e+02    1.7989100516e-01
    1.0329885864e+02    1.8046399951e-01
    1.0339890289e+02    1.8103800714e-01
    1.0349893188e+02    1.8161299825e-01
    1.0359889221e+02    1.8218800426e-01
    1.0369889832e+02    1.8276500702e-01
    1.0379881287e+02    1.8334099650e-01
    1.0389884186e+02    1.8391899765e-01
    1.0399883270e+02    1.8449699879e-01
    1.0409895325e+02    1.8507699668e-01
    1.0419892883e+02    1.8565799296e-01
    1.0429884338e+02    1.8623900414e-01
    1.0439891815e+02    1.8682199717e-01
    1.0449884796e+02    1.8740500510e-01
    1.0459883881e+02    1.8798999488e-01
    1.0469892883e+02    1.8857599795e-01
    1.0479882050e+02    1.8916200101e-01
    1.0489888000e+02    1.8974900246e-01
    1.0499884796e+02    1.9033700228e-01
    1.0509893036e+02    1.9092600048e-01
    1.0519892883e+02    1.9151599705e-01
    1.0529891205e+02    1.9210700691e-01
    1.0539888000e+02    1.9269800186e-01
    1.0549889374e+02    1.9329099357e-01
    1.0559893799e+02    1.9388400018e-01
    1.0569888306e+02    1.9447800517e-01
    1.0579888153e+02    1.9507299364e-01
    1.0589882660e+02    1.9566799700e-01
    1.0599890137e+02    1.9626499712e-01
    1.0609880829e+02    1.9686199725e-01
    1.0619891357e+02    1.9746099412e-01
    1.0629891968e+02    1.9806100428e-01
    1.0639891815e+02    1.9866199791e-01
    1.0649886322e+02    1.9926300645e-01
    1.0659889984e+02    1.9986699522e-01
    1.0669886780e+02    2.0047099888e-01
    1.0679878998e+02    2.0107500255e-01
    1.0689890289e+02    2.0168200135e-01
    1.0699884033e+02    2.0228800178e-01
    1.0709887695e+02    2.0289599895e-01
    1.0719886017e+02    2.0350399613e-01
    1.0729892731e+02    2.0411400497e-01
    1.0739888000e+02    2.0472399890e-01
    1.0749880981e+02    2.0533399284e-01
    1.0759884644e+02    2.0594599843e-01
    1.0769880676e+02    2.0655800402e-01
    1.0779876709e+02    2.0717099309e-01
    1.0789891052e+02    2.0778599381e-01
    1.0799880981e+02    2.0839999616e-01
    1.0809876251e+02    2.0901499689e-01
    1.0819879150e+02    2.0963199437e-01
    1.0829882812e+02    2.1024900675e-01
    1.0839884949e+02    2.1086700261e-01
    1.0849874878e+02    2.1148499846e-01
    1.0859873199e+02    2.1210500598e-01
    1.0869891357e+02    2.1272699535e-01
    1.0879885101e+02    2.1334899962e-01
    1.0889880371e+02    2.1397200227e-01
    1.0899874878e+02    2.1459500492e-01
    1.0909882355e+02    2.1522000432e-01
    1.0919873810e+02    2.1584400535e-01
    1.0929882050e+02    2.1647000313e-01
    1.0939888763e+02    2.1709699929e-01
    1.0949877930e+02    2.1772299707e-01
    1.0959877777e+02    2.1834999323e-01
    1.0969877625e+02    2.1897700429e-01
    1.0979876709e+02    2.1960499883e-01
    1.0989875793e+02    2.2023299336e-01
    1.0999880219e+02    2.2086200118e-01
    1.1009886169e+02    2.2149099410e-01
    1.1019870758e+02    2.2211800516e-01
    1.1029881287e+02    2.2274699807e-01
    1.1039881897e+02    2.2337600589e-01
    1.1049880981e+02    2.2400400043e-01
    1.1059874725e+02    2.2463299334e-01
    1.1069873810e+02    2.2526100278e-01
    1.1079885101e+02    2.2589099407e-01
    1.1089878082e+02    2.2652000189e-01
    1.1099881744e+02    2.2714999318e-01
    1.1109870911e+02    2.2777900100e-01
    1.1119877625e+02    2.2841000557e-01
    1.1129882050e+02    2.2903999686e-01
    1.1139884186e+02    2.2967000306e-01
    1.1149875641e+02    2.3029899597e-01
    1.1159871674e+02    2.3092800379e-01
    1.1169876862e+02    2.3155799508e-01
    1.1179882050e+02    2.3218800128e-01
    1.1189884186e+02    2.3281900585e-01
    1.1199886322e+02    2.3344899714e-01
    1.1209867859e+02    2.3407900333e-01
    1.1219873810e+02    2.3470999300e-01
    1.1229868317e+02    2.3534099758e-01
    1.1239874268e+02    2.3597300053e-01
    1.1249874115e+02    2.3660400510e-01
    1.1259877014e+02    2.3723599315e-01
    1.1269883728e+02    2.3786799610e-01
    1.1279879761e+02    2.3849999905e-01
    1.1289877319e+02    2.3913200200e-01
    1.1299874878e+02    2.3976400495e-01
    1.1309880829e+02    2.4039700627e-01
    1.1319882965e+02    2.4103100598e-01
    1.1329881287e+02    2.4166400731e-01
    1.1339878845e+02    2.4229800701e-01
    1.1349877930e+02    2.4293200672e-01
    1.1359870148e+02    2.4356499314e-01
    1.1369879150e+02    2.4420000613e-01
    1.1379875946e+02    2.4483400583e-01
    1.1389871216e+02    2.4546900392e-01
    1.1399874115e+02    2.4610400200e-01
    1.1409877014e+02    2.4673900008e-01
    1.1419879913e+02    2.4737499654e-01
    1.1429881287e+02    2.4800999463e-01
    1.1439880371e+02    2.4864600599e-01
    1.1449871063e+02    2.4928100407e-01
    1.1459874725e+02    2.4991600215e-01
    1.1469879913e+02    2.5055098534e-01
    1.1479876709e+02    2.5118398666e-01
    1.1489865112e+02    2.5181499124e-01
    1.1499873352e+02    2.5244599581e-01
    1.1509873962e+02    2.5307500362e-01
    1.1519866180e+02    2.5370201468e-01
    1.1529866028e+02    2.5432801247e-01
    1.1539875031e+02    2.5495201349e-01
    1.1549871063e+02    2.5557398796e-01
    1.1559868622e+02    2.5619301200e-01
    1.1569869232e+02    2.5681099296e-01
    1.1579863739e+02    2.5742700696e-01
    1.1589862823e+02    2.5804001093e-01
    1.1599868774e+02    2.5865301490e-01
    1.1609874725e+02    2.5926399231e-01
    1.1619870758e+02    2.5987300277e-01
    1.1629866028e+02    2.6048201323e-01
    1.1639874268e+02    2.6109001040e-01
    1.1649867249e+02    2.6169800758e-01
    1.1659861755e+02    2.6230499148e-01
    1.1669870758e+02    2.6291200519e-01
    1.1679865265e+02    2.6351800561e-01
    1.1689875031e+02    2.6412498951e-01
    1.1699867249e+02    2.6473000646e-01
    1.1709877014e+02    2.6533600688e-01
    1.1719859314e+02    2.6594001055e-01
    1.1729872131e+02    2.6654499769e-01
    1.1739877319e+02    2.6714900136e-01
    1.1749864197e+02    2.6775100827e-01
    1.1759870148e+02    2.6835399866e-01
    1.1769869995e+02    2.6895400882e-01
    1.1779873657e+02    2.6955398917e-01
    1.1789877319e+02    2.7015298605e-01
    1.1799870300e+02    2.7074900270e-01
    1.1809868622e+02    2.7134299278e-01
    1.1819867706e+02    2.7193498611e-01
    1.1829869080e+02    2.7252599597e-01
    1.1839862061e+02    2.7311399579e-01
    1.1849871826e+02    2.7370101213e-01
    1.1859860992e+02    2.7428498864e-01
    1.1869872284e+02    2.7486899495e-01
    1.1879862213e+02    2.7544999123e-01
    1.1889861298e+02    2.7602899075e-01
    1.1899871063e+02    2.7660700679e-01
    1.1909858704e+02    2.7718201280e-01
    1.1919867706e+02    2.7775600553e-01
    1.1929872131e+02    2.7832800150e-01
    1.1939861298e+02    2.7889800072e-01
    1.1949868774e+02    2.7946698666e-01
    1.1959864044e+02    2.8003400564e-01
    1.1969863129e+02    2.8059899807e-01
    1.1979869843e+02    2.8116300702e-01
    1.1989866638e+02    2.8172400594e-01
    1.1999858093e+02    2.8228199482e-01
    1.2009867859e+02    2.8284001350e-01
    1.2019856262e+02    2.8339299560e-01
    1.2029869843e+02    2.8394600749e-01
    1.2039855957e+02    2.8449401259e-01
    1.2049855804e+02    2.8503999114e-01
    1.2059868622e+02    2.8558400273e-01
    1.2069870758e+02    2.8612500429e-01
    1.2079866791e+02    2.8666400909e-01
    1.2089855194e+02    2.8720000386e-01
    1.2099855042e+02    2.8773400187e-01
    1.2109855652e+02    2.8826600313e-01
    1.2119862366e+02    2.8879699111e-01
    1.2129860687e+02    2.8932398558e-01
    1.2139871216e+02    2.8984999657e-01
    1.2149852753e+02    2.9037201405e-01
    1.2159870148e+02    2.9089400172e-01
    1.2169860077e+02    2.9141199589e-01
    1.2179860687e+02    2.9192999005e-01
    1.2189859009e+02    2.9244598746e-01
    1.2199865723e+02    2.9296201468e-01
    1.2209867859e+02    2.9347500205e-01
    1.2219856262e+02    2.9398700595e-01
    1.2229859161e+02    2.9449799657e-01
    1.2239865875e+02    2.9500699043e-01
    1.2249858856e+02    2.9551500082e-01
    1.2259868622e+02    2.9602101445e-01
    1.2269857788e+02    2.9652500153e-01
    1.2279862213e+02    2.9702800512e-01
    1.2289856720e+02    2.9752901196e-01
    1.2299864960e+02    2.9802998900e-01
    1.2309861755e+02    2.9852899909e-01
    1.2319857025e+02    2.9902601242e-01
    1.2329866791e+02    2.9952201247e-01
    1.2339864349e+02    3.0001598597e-01
    1.2349857330e+02    3.0050799251e-01
    1.2359851074e+02    3.0099898577e-01
    1.2369857788e+02    3.0148801208e-01
    1.2379863739e+02    3.0197501183e-01
    1.2389861298e+02    3.0246001482e-01
    1.2399857330e+02    3.0294299126e-01
    1.2409866333e+02    3.0342501402e-01
    1.2419859314e+02    3.0390501022e-01
    1.2429862976e+02    3.0438300967e-01
    1.2439855957e+02    3.0485901237e-01
    1.2449858093e+02    3.0533298850e-01
    1.2459860992e+02    3.0580499768e-01
    1.2469847870e+02    3.0627501011e-01
    1.2479860687e+02    3.0674400926e-01
    1.2489862823e+02    3.0720999837e-01
    1.2499848175e+02    3.0767300725e-01
    1.2509848785e+02    3.0813500285e-01
    1.2519853210e+02    3.0859598517e-01
    1.2529847717e+02    3.0905500054e-01
    1.2539849854e+02    3.0951198936e-01
    1.2549852753e+02    3.0996799469e-01
    1.2559858704e+02    3.1042200327e-01
    1.2569860840e+02    3.1087398529e-01
    1.2579850769e+02    3.1132400036e-01
    1.2589858246e+02    3.1177300215e-01
    1.2599852753e+02    3.1222099066e-01
    1.2609851837e+02    3.1266599894e-01
    1.2619860077e+02    3.1311100721e-01
    1.2629859924e+02    3.1355398893e-01
    1.2639849854e+02    3.1399598718e-01
    1.2649848175e+02    3.1443700194e-01
    1.2659853363e+02    3.1487700343e-01
    1.2669847870e+02    3.1531599164e-01
    1.2679846954e+02    3.1575500965e-01
    1.2689852905e+02    3.1619200110e-01
    1.2699861908e+02    3.1662800908e-01
    1.2709854126e+02    3.1706300378e-01
    1.2719860840e+02    3.1749698520e-01
    1.2729846954e+02    3.1793001294e-01
    1.2739855194e+02    3.1836199760e-01
    1.2749859619e+02    3.1879299879e-01
    1.2759858704e+02    3.1922298670e-01
    1.2769860077e+02    3.1965300441e-01
    1.2779853821e+02    3.2008001208e-01
    1.2789846802e+02    3.2050698996e-01
    1.2799845123e+02    3.2093200088e-01
    1.2809846497e+02    3.2135599852e-01
    1.2819851685e+02    3.2177799940e-01
    1.2829855347e+02    3.2219898701e-01
    1.2839849854e+02    3.2261800766e-01
    1.2849847412e+02    3.2303598523e-01
    1.2859855652e+02    3.2345300913e-01
    1.2869859314e+02    3.2386898994e-01
    1.2879861450e+02    3.2428300381e-01
    1.2889855957e+02    3.2469499111e-01
    1.2899859619e+02    3.2510700822e-01
    1.2909864807e+02    3.2551699877e-01
    1.2919850159e+02    3.2592499256e-01
    1.2929866028e+02    3.2633298635e-01
    1.2939849854e+02    3.2673901320e-01
    1.2949856567e+02    3.2714399695e-01
    1.2959854126e+02    3.2754799724e-01
    1.2969856262e+02    3.2795101404e-01
    1.2979859924e+02    3.2835400105e-01
    1.2989860535e+02    3.2875499129e-01
    1.2999867249e+02    3.2915601134e-01
    1.3009855652e+02    3.2955500484e-01
    1.3019866943e+02    3.2995399833e-01
    1.3029856873e+02    3.3035099506e-01
    1.3039860535e+02    3.3074799180e-01
    1.3049873352e+02    3.3114400506e-01
    1.3059861755e+02    3.3153900504e-01
    1.3069860840e+02    3.3193299174e-01
    1.3079870605e+02    3.3232799172e-01
    1.3089869690e+02    3.3272200823e-01
    1.3099877930e+02    3.3311599493e-01
    1.3109866333e+02    3.3350899816e-01
    1.3119879150e+02    3.3390098810e-01
    1.3129873657e+02    3.3429199457e-01
    1.3139869690e+02    3.3468198776e-01
    1.3149873352e+02    3.3507099748e-01
    1.3159877014e+02    3.3545899391e-01
    1.3169868469e+02    3.3584600687e-01
    1.3179873657e+02    3.3623200655e-01
    1.3189866638e+02    3.3661699295e-01
    1.3199873352e+02    3.3700200915e-01
    1.3209867859e+02    3.3738699555e-01
    1.3219885254e+02    3.3777099848e-01
    1.3229873657e+02    3.3815398812e-01
    1.3239875793e+02    3.3853799105e-01
    1.3249885559e+02    3.3892101049e-01
    1.3259869385e+02    3.3930298686e-01
    1.3269874573e+02    3.3968600631e-01
    1.3279879761e+02    3.4006899595e-01
    1.3289883423e+02    3.4045299888e-01
    1.3299884033e+02    3.4083700180e-01
    1.3309878540e+02    3.4122198820e-01
    1.3319885254e+02    3.4160798788e-01
    1.3329884338e+02    3.4199500084e-01
    1.3339892578e+02    3.4238201380e-01
    1.3349884033e+02    3.4277001023e-01
    1.3359878540e+02    3.4315800667e-01
    1.3369877625e+02    3.4354600310e-01
    1.3379888916e+02    3.4393599629e-01
    1.3389889526e+02    3.4432598948e-01
    1.3399887085e+02    3.4471499920e-01
    1.3409890747e+02    3.4510600567e-01
    1.3419897461e+02    3.4549701214e-01
    1.3429887390e+02    3.4588700533e-01
    1.3439880371e+02    3.4627801180e-01
    1.3449896240e+02    3.4667000175e-01
    1.3459886169e+02    3.4706100821e-01
    1.3469900513e+02    3.4745201468e-01
    1.3479890442e+02    3.4784200788e-01
    1.3489892578e+02    3.4823301435e-01
    1.3499890137e+02    3.4862300754e-01
    1.3509890747e+02    3.4901401401e-01
    1.3519891357e+02    3.4940499067e-01
    1.3529893494e+02    3.4979701042e-01
    1.3539889526e+02    3.5018900037e-01
    1.3549890137e+02    3.5058099031e-01
    1.3559887695e+02    3.5097399354e-01
    1.3569897461e+02    3.5136801004e-01
    1.3579901123e+02    3.5176199675e-01
    1.3589898682e+02    3.5215699673e-01
    1.3599890137e+02    3.5255199671e-01
    1.3609898376e+02    3.5294800997e-01
    1.3619894409e+02    3.5334399343e-01
    1.3629898071e+02    3.5374200344e-01
    1.3639910889e+02    3.5414099693e-01
    1.3649894714e+02    3.5453999043e-01
    1.3659907532e+02    3.5494101048e-01
    1.3669912720e+02    3.5534200072e-01
    1.3679899597e+02    3.5574299097e-01
    1.3689895630e+02    3.5614600778e-01
    1.3699903870e+02    3.5654899478e-01
    1.3709899902e+02    3.5695201159e-01
    1.3719905090e+02    3.5735699534e-01
    1.3729899597e+02    3.5776200891e-01
    1.3739915466e+02    3.5816898942e-01
    1.3749913025e+02    3.5857599974e-01
    1.3759915161e+02    3.5898500681e-01
    1.3769909668e+02    3.5939401388e-01
    1.3779910278e+02    3.5980498791e-01
    1.3789910889e+02    3.6021599174e-01
    1.3799906921e+02    3.6062899232e-01
    1.3809921265e+02    3.6104398966e-01
    1.3819921875e+02    3.6145898700e-01
    1.3829916382e+02    3.6187401414e-01
    1.3839907837e+02    3.6229100823e-01
    1.3849917603e+02    3.6270999908e-01
    1.3859916687e+02    3.6313000321e-01
    1.3869920349e+02    3.6355200410e-01
    1.3879908752e+02    3.6397299170e-01
    1.3889912415e+02    3.6439698935e-01
    1.3899908447e+02    3.6482098699e-01
    1.3909922791e+02    3.6524599791e-01
    1.3919911194e+02    3.6567100883e-01
    1.3929922485e+02    3.6609798670e-01
    1.3939927673e+02    3.6652499437e-01
    1.3949929810e+02    3.6695298553e-01
    1.3959913635e+02    3.6737999320e-01
    1.3969929504e+02    3.6781001091e-01
    1.3979917908e+02    3.6823898554e-01
    1.3989920044e+02    3.6866900325e-01
    1.3999916077e+02    3.6910000443e-01
    1.4009925842e+02    3.6953198910e-01
    1.4019923401e+02    3.6996400356e-01
    1.4029917908e+02    3.7039700150e-01
    1.4039918518e+02    3.7083101273e-01
    1.4049929810e+02    3.7126699090e-01
    1.4059925842e+02    3.7170198560e-01
    1.4069934082e+02    3.7213999033e-01
    1.4079927063e+02    3.7257799506e-01
    1.4089927673e+02    3.7301799655e-01
    1.4099934387e+02    3.7345999479e-01
    1.4109927368e+02    3.7390300632e-01
    1.4119932556e+02    3.7434700131e-01
    1.4129925537e+02    3.7479099631e-01
    1.4139933777e+02    3.7523698807e-01
    1.4149928284e+02    3.7568300962e-01
    1.4159936523e+02    3.7613099813e-01
    1.4169929504e+02    3.7657800317e-01
    1.4179933167e+02    3.7702700496e-01
    1.4189935303e+02    3.7747800350e-01
    1.4199931335e+02    3.7792900205e-01
    1.4209941101e+02    3.7838199735e-01
    1.4219935608e+02    3.7883499265e-01
    1.4229931641e+02    3.7929001451e-01
    1.4239945984e+02    3.7974700332e-01
    1.4249943542e+02    3.8020399213e-01
    1.4259944153e+02    3.8066300750e-01
    1.4269938660e+02    3.8112199306e-01
    1.4279943848e+02    3.8158398867e-01
    1.4289932251e+02    3.8204699755e-01
    1.4299949646e+02    3.8251298666e-01
    1.4309941101e+02    3.8297998905e-01
    1.4319949341e+02    3.8345101476e-01
    1.4329942322e+02    3.8392201066e-01
    1.4339950562e+02    3.8439500332e-01
    1.4349949646e+02    3.8486999273e-01
    1.4359938049e+02    3.8534700871e-01
    1.4369952393e+02    3.8582599163e-01
    1.4379948425e+02    3.8630598783e-01
    1.4389949036e+02    3.8678899407e-01
    1.4399946594e+02    3.8727301359e-01
    1.4409941101e+02    3.8775900006e-01
    1.4419946289e+02    3.8824701309e-01
    1.4429953003e+02    3.8873800635e-01
    1.4439956665e+02    3.8923001289e-01
    1.4449946594e+02    3.8972300291e-01
    1.4459945679e+02    3.9021798968e-01
    1.4469944763e+02    3.9071300626e-01
    1.4479957581e+02    3.9121100307e-01
    1.4489962769e+02    3.9170798659e-01
    1.4499945068e+02    3.9220601320e-01
    1.4509954834e+02    3.9270499349e-01
    1.4519961548e+02    3.9320600033e-01
    1.4529960632e+02    3.9370700717e-01
    1.4539959717e+02    3.9420801401e-01
    1.4549951172e+02    3.9471098781e-01
    1.4559948730e+02    3.9521399140e-01
    1.4569955444e+02    3.9571899176e-01
    1.4579965210e+02    3.9622598886e-01
    1.4589964294e+02    3.9673298597e-01
    1.4599964905e+02    3.9724099636e-01
    1.4609959412e+02    3.9775100350e-01
    1.4619966125e+02    3.9826300740e-01
    1.4629966736e+02    3.9877599478e-01
    1.4639953613e+02    3.9929100871e-01
    1.4649963379e+02    3.9980998635e-01
    1.4659959412e+02    4.0033000708e-01
    1.4669969177e+02    4.0085199475e-01
    1.4679971313e+02    4.0137600899e-01
    1.4689965820e+02    4.0190199018e-01
    1.4699966431e+02    4.0242901444e-01
    1.4709962463e+02    4.0295800567e-01
    1.4719961548e+02    4.0348899364e-01
    1.4729971313e+02    4.0402299166e-01
    1.4739970398e+02    4.0455800295e-01
    1.4749960327e+02    4.0509301424e-01
    1.4759959412e+02    4.0563198924e-01
    1.4769967651e+02    4.0617200732e-01
    1.4779972839e+02    4.0671399236e-01
    1.4789979553e+02    4.0725699067e-01
    1.4799966431e+02    4.0779998899e-01
    1.4809965515e+02    4.0834501386e-01
    1.4819970703e+02    4.0889200568e-01
    1.4829981995e+02    4.0944001079e-01
    1.4839965820e+02    4.0998798609e-01
    1.4849980164e+02    4.1054001451e-01
    1.4859980774e+02    4.1109201312e-01
    1.4869973755e+02    4.1164401174e-01
    1.4879968262e+02    4.1219899058e-01
    1.4889970398e+02    4.1275501251e-01
    1.4899977112e+02    4.1331300139e-01
    1.4909977722e+02    4.1387200356e-01
    1.4919973755e+02    4.1443198919e-01
    1.4929983521e+02    4.1499400139e-01
    1.4939976501e+02    4.1555601358e-01
    1.4949981689e+02    4.1612100601e-01
    1.4959986877e+02    4.1668599844e-01
    1.4969989014e+02    4.1725298762e-01
    1.4979981995e+02    4.1782099009e-01
    1.4989985657e+02    4.1839098930e-01
    1.4999977112e+02    4.1896200180e-01
    1.5009980774e+02    4.1953399777e-01
    1.5019978333e+02    4.2010700703e-01
    1.5029983521e+02    4.2068099976e-01
    1.5039993286e+02    4.2125698924e-01
    1.5049981689e+02    4.2183199525e-01
    1.5059982300e+02    4.2240899801e-01
    1.5069981384e+02    4.2298701406e-01
    1.5079986572e+02    4.2356601357e-01
    1.5089996338e+02    4.2414799333e-01
    1.5099995422e+02    4.2473000288e-01
    1.5109996033e+02    4.2531299591e-01
    1.5119987488e+02    4.2589700222e-01
    1.5129997253e+02    4.2648199201e-01
    1.5139984131e+02    4.2706701159e-01
    1.5149986267e+02    4.2765399814e-01
    1.5159991455e+02    4.2824199796e-01
    1.5169996643e+02    4.2883101106e-01
    1.5179989624e+02    4.2942100763e-01
    1.5189994812e+02    4.3001198769e-01
    1.5199995422e+02    4.3060499430e-01
    1.5209996033e+02    4.3119999766e-01
    1.5219998169e+02    4.3179601431e-01
    1.5229997253e+02    4.3239399791e-01
    1.5239997864e+02    4.3299400806e-01
    1.5249992371e+02    4.3359398842e-01
    1.5260000610e+02    4.3419700861e-01
    1.5269993591e+02    4.3479999900e-01
    1.5280009460e+02    4.3540599942e-01
    1.5289999390e+02    4.3601301312e-01
    1.5299998474e+02    4.3662199378e-01
    1.5309999084e+02    4.3723300099e-01
    1.5319996643e+02    4.3784600496e-01
    1.5330006409e+02    4.3846100569e-01
    1.5339997864e+02    4.3907698989e-01
    1.5350001526e+02    4.3969500065e-01
    1.5360005188e+02    4.4031399488e-01
    1.5370013428e+02    4.4093498588e-01
    1.5380017090e+02    4.4155699015e-01
    1.5390007019e+02    4.4217899442e-01
    1.5400004578e+02    4.4280299544e-01
    1.5410003662e+02    4.4342899323e-01
    1.5420008850e+02    4.4405600429e-01
    1.5430006409e+02    4.4468399882e-01
    1.5440019226e+02    4.4531399012e-01
    1.5450003052e+02    4.4594299793e-01
    1.5460011292e+02    4.4657498598e-01
    1.5470007324e+02    4.4720700383e-01
    1.5480012512e+02    4.4783899188e-01
    1.5490022278e+02    4.4847300649e-01
    1.5500024414e+02    4.4910699129e-01
    1.5510014343e+02    4.4974100590e-01
    1.5520019531e+02    4.5037698746e-01
    1.5530018616e+02    4.5101299882e-01
    1.5540008545e+02    4.5164999366e-01
    1.5550024414e+02    4.5228898525e-01
    1.5560023499e+02    4.5292800665e-01
    1.5570021057e+02    4.5356801152e-01
    1.5580010986e+02    4.5420899987e-01
    1.5590017700e+02    4.5485201478e-01
    1.5600024414e+02    4.5549499989e-01
    1.5610029602e+02    4.5614001155e-01
    1.5620025635e+02    4.5678499341e-01
    1.5630024719e+02    4.5743098855e-01
    1.5640020752e+02    4.5807901025e-01
    1.5650024414e+02    4.5872899890e-01
    1.5660021973e+02    4.5938000083e-01
    1.5670025635e+02    4.6003198624e-01
    1.5680030823e+02    4.6068599820e-01
    1.5690031433e+02    4.6134001017e-01
    1.5700024414e+02    4.6199500561e-01
    1.5710021973e+02    4.6265101433e-01
    1.5720030212e+02    4.6330800653e-01
    1.5730026245e+02    4.6396601200e-01
    1.5740025330e+02    4.6462601423e-01
    1.5750027466e+02    4.6528598666e-01
    1.5760028076e+02    4.6594700217e-01
    1.5770037842e+02    4.6661001444e-01
    1.5780035400e+02    4.6727299690e-01
    1.5790037537e+02    4.6793699265e-01
    1.5800024414e+02    4.6860098839e-01
    1.5810035706e+02    4.6926599741e-01
    1.5820031738e+02    4.6993100643e-01
    1.5830044556e+02    4.7059801221e-01
    1.5840039062e+02    4.7126400471e-01
    1.5850033569e+02    4.7193101048e-01
    1.5860043335e+02    4.7260001302e-01
    1.5870045471e+02    4.7326800227e-01
    1.5880041504e+02    4.7393700480e-01
    1.5890046692e+02    4.7460600734e-01
    1.5900047302e+02    4.7527500987e-01
    1.5910043335e+02    4.7594401240e-01
    1.5920048523e+02    4.7661399841e-01
    1.5930041504e+02    4.7728300095e-01
    1.5940039062e+02    4.7795298696e-01
    1.5950047302e+02    4.7862300277e-01
    1.5960043335e+02    4.7929298878e-01
    1.5970042419e+02    4.7996300459e-01
    1.5980044556e+02    4.8063400388e-01
    1.5990049744e+02    4.8130500317e-01
    1.6000050354e+02    4.8197498918e-01
    1.6010040283e+02    4.8264500499e-01
    1.6020037842e+02    4.8331600428e-01
    1.6030039978e+02    4.8398700356e-01
    1.6040049744e+02    4.8465800285e-01
    1.6050053406e+02    4.8532900214e-01
    1.6060058594e+02    4.8600101471e-01
    1.6070048523e+02    4.8667100072e-01
    1.6080049133e+02    4.8734301329e-01
    1.6090060425e+02    4.8801600933e-01
    1.6100056458e+02    4.8868799210e-01
    1.6110046387e+02    4.8936000466e-01
    1.6120057678e+02    4.9003401399e-01
    1.6130053711e+02    4.9070501328e-01
    1.6140049744e+02    4.9137699604e-01
    1.6150047302e+02    4.9204799533e-01
    1.6160058594e+02    4.9271899462e-01
    1.6170053101e+02    4.9338901043e-01
    1.6180052185e+02    4.9405801296e-01
    1.6190049744e+02    4.9472799897e-01
    1.6200065613e+02    4.9539801478e-01
    1.6210052490e+02    4.9606499076e-01
    1.6220053101e+02    4.9673300982e-01
    1.6230056763e+02    4.9740099907e-01
    1.6240063477e+02    4.9806800485e-01
    1.6250053406e+02    4.9873399734e-01
    1.6260067749e+02    4.9940100312e-01
    1.6270054626e+02    5.0006598234e-01
    1.6280070496e+02    5.0073200464e-01
    1.6290061951e+02    5.0139701366e-01
    1.6300067139e+02    5.0206398964e-01
    1.6310061646e+02    5.0273001194e-01
    1.6320060730e+02    5.0339698792e-01
    1.6330059814e+02    5.0406301022e-01
    1.6340063477e+02    5.0472998619e-01
    1.6350068665e+02    5.0539702177e-01
    1.6360063171e+02    5.0606298447e-01
    1.6370066833e+02    5.0672900677e-01
    1.6380072021e+02    5.0739502907e-01
    1.6390072632e+02    5.0805902481e-01
    1.6400071716e+02    5.0872200727e-01
    1.6410064697e+02    5.0938397646e-01
    1.6420063782e+02    5.1004600525e-01
    1.6430072021e+02    5.1070600748e-01
    1.6440071106e+02    5.1136499643e-01
    1.6450065613e+02    5.1202201843e-01
    1.6460070801e+02    5.1267802715e-01
    1.6470083618e+02    5.1333302259e-01
    1.6480068970e+02    5.1398497820e-01
    1.6490072632e+02    5.1463598013e-01
    1.6500082397e+02    5.1528698206e-01
    1.6510078430e+02    5.1593601704e-01
    1.6520083618e+02    5.1658397913e-01
    1.6530081177e+02    5.1723200083e-01
    1.6540074158e+02    5.1787799597e-01
    1.6550079346e+02    5.1852399111e-01
    1.6560081482e+02    5.1916801929e-01
    1.6570071411e+02    5.1981097460e-01
    1.6580085754e+02    5.2045398951e-01
    1.6590084839e+02    5.2109497786e-01
    1.6600079346e+02    5.2173399925e-01
    1.6610087585e+02    5.2237200737e-01
    1.6620080566e+02    5.2300798893e-01
    1.6630082703e+02    5.2364301682e-01
    1.6640077209e+02    5.2427500486e-01
    1.6650077820e+02    5.2490699291e-01
    1.6660089111e+02    5.2553802729e-01
    1.6670089722e+02    5.2616602182e-01
    1.6680081177e+02    5.2679198980e-01
    1.6690092468e+02    5.2741700411e-01
    1.6700082397e+02    5.2803897858e-01
    1.6710096741e+02    5.2865999937e-01
    1.6720083618e+02    5.2927798033e-01
    1.6730088806e+02    5.2989602089e-01
    1.6740093994e+02    5.3051197529e-01
    1.6750094604e+02    5.3112602234e-01
    1.6760084534e+02    5.3173798323e-01
    1.6770088196e+02    5.3234899044e-01
    1.6780085754e+02    5.3295797110e-01
    1.6790100098e+02    5.3356599808e-01
    1.6800091553e+02    5.3416997194e-01
    1.6810095215e+02    5.3477400541e-01
    1.6820097351e+02    5.3537398577e-01
    1.6830091858e+02    5.3597199917e-01
    1.6840100098e+02    5.3656899929e-01
    1.6850091553e+02    5.3716200590e-01
    1.6860095215e+02    5.3775399923e-01
    1.6870094299e+02    5.3834301233e-01
    1.6880099487e+02    5.3892898560e-01
    1.6890107727e+02    5.3951299191e-01
    1.6900109863e+02    5.4009401798e-01
    1.6910104370e+02    5.4067200422e-01
    1.6920100403e+02    5.4124599695e-01
    1.6930096436e+02    5.4181700945e-01
    1.6940095520e+02    5.4238599539e-01
    1.6950094604e+02    5.4295200109e-01
    1.6960098267e+02    5.4351502657e-01
    1.6970108032e+02    5.4407501221e-01
    1.6980099487e+02    5.4463201761e-01
    1.6990109253e+02    5.4518699646e-01
    1.7000100708e+02    5.4573798180e-01
    1.7010107422e+02    5.4628801346e-01
    1.7020101929e+02    5.4683297873e-01
    1.7030110168e+02    5.4737699032e-01
    1.7040118408e+02    5.4791802168e-01
    1.7050117493e+02    5.4845499992e-01
    1.7060102844e+02    5.4898899794e-01
    1.7070103455e+02    5.4952102900e-01
    1.7080108643e+02    5.5005002022e-01
    1.7090107727e+02    5.5057698488e-01
    1.7100103760e+02    5.5110001564e-01
    1.7110122681e+02    5.5162197351e-01
    1.7120114136e+02    5.5213797092e-01
    1.7130107117e+02    5.5265098810e-01
    1.7140122986e+02    5.5316102505e-01
    1.7150117493e+02    5.5366498232e-01
    1.7160116577e+02    5.5416601896e-01
    1.7170111084e+02    5.5466300249e-01
    1.7180110168e+02    5.5515599251e-01
    1.7190113831e+02    5.5564600229e-01
    1.7200114441e+02    5.5613100529e-01
    1.7210112000e+02    5.5661302805e-01
    1.7220124817e+02    5.5709201097e-01
    1.7230122375e+02    5.5756700039e-01
    1.7240118408e+02    5.5803799629e-01
    1.7250115967e+02    5.5850601196e-01
    1.7260125732e+02    5.5897200108e-01
    1.7270121765e+02    5.5943399668e-01
    1.7280128479e+02    5.5989301205e-01
    1.7290121460e+02    5.6035000086e-01
    1.7300120544e+02    5.6080400944e-01
    1.7310127258e+02    5.6125599146e-01
    1.7320126343e+02    5.6170397997e-01
    1.7330123901e+02    5.6215000153e-01
    1.7340136719e+02    5.6259202957e-01
    1.7350125122e+02    5.6303000450e-01
    1.7360122681e+02    5.6346499920e-01
    1.7370132446e+02    5.6389498711e-01
    1.7380130005e+02    5.6432098150e-01
    1.7390130615e+02    5.6474298239e-01
    1.7400138855e+02    5.6516098976e-01
    1.7410134888e+02    5.6557399035e-01
    1.7420135498e+02    5.6598299742e-01
    1.7430131531e+02    5.6638699770e-01
    1.7440138245e+02    5.6678801775e-01
    1.7450137329e+02    5.6718397141e-01
    1.7460137939e+02    5.6757599115e-01
    1.7470144653e+02    5.6796401739e-01
    1.7480131531e+02    5.6834697723e-01
    1.7490141296e+02    5.6872701645e-01
    1.7500131226e+02    5.6910300255e-01
    1.7510133362e+02    5.6947600842e-01
    1.7520135498e+02    5.6984597445e-01
    1.7530143738e+02    5.7021200657e-01
    1.7540148926e+02    5.7057398558e-01
    1.7550134277e+02    5.7093197107e-01
    1.7560150146e+02    5.7128602266e-01
    1.7570135498e+02    5.7163602114e-01
    1.7580134583e+02    5.7198101282e-01
    1.7590138245e+02    5.7232201099e-01
    1.7600149536e+02    5.7265901566e-01
    1.7610136414e+02    5.7299000025e-01
    1.7620141602e+02    5.7331699133e-01
    1.7630137634e+02    5.7363897562e-01
    1.7640150452e+02    5.7395702600e-01
    1.7650152588e+02    5.7427102327e-01
    1.7660145569e+02    5.7458102703e-01
    1.7670149231e+02    5.7488697767e-01
    1.7680145264e+02    5.7518899441e-01
    1.7690144348e+02    5.7548701763e-01
    1.7700144958e+02    5.7578098774e-01
    1.7710153198e+02    5.7607102394e-01
    1.7720158386e+02    5.7635802031e-01
    1.7730151367e+02    5.7664102316e-01
    1.7740153503e+02    5.7692098618e-01
    1.7750146484e+02    5.7719600201e-01
    1.7760145569e+02    5.7746797800e-01
    1.7770161438e+02    5.7773602009e-01
    1.7780151367e+02    5.7800000906e-01
    1.7790161133e+02    5.7825899124e-01
    1.7800149536e+02    5.7851302624e-01
    1.7810151672e+02    5.7876300812e-01
    1.7820158386e+02    5.7900899649e-01
    1.7830154419e+02    5.7924902439e-01
    1.7840161133e+02    5.7948499918e-01
    1.7850158691e+02    5.7971602678e-01
    1.7860151672e+02    5.7994198799e-01
    1.7870167542e+02    5.8016502857e-01
    1.7880162048e+02    5.8038198948e-01
    1.7890161133e+02    5.8059501648e-01
    1.7900164795e+02    5.8080399036e-01
    1.7910169983e+02    5.8100801706e-01
    1.7920173645e+02    5.8120799065e-01
    1.7930171204e+02    5.8140397072e-01
    1.7940173340e+02    5.8159601688e-01
    1.7950172424e+02    5.8178299665e-01
    1.7960163879e+02    5.8196598291e-01
    1.7970161438e+02    5.8214497566e-01
    1.7980163574e+02    5.8231997490e-01
    1.7990171814e+02    5.8249199390e-01
    1.8000169373e+02    5.8265900612e-01
    1.8010169983e+02    5.8282101154e-01
    1.8020170593e+02    5.8297997713e-01
    1.8030168152e+02    5.8313399553e-01
    1.8040162659e+02    5.8328300714e-01
    1.8050178528e+02    5.8342897892e-01
    1.8060171509e+02    5.8357000351e-01
    1.8070164490e+02    5.8370697498e-01
    1.8080169678e+02    5.8384001255e-01
    1.8090168762e+02    5.8396899700e-01
    1.8100175476e+02    5.8409398794e-01
    1.8110174561e+02    5.8421498537e-01
    1.8120179749e+02    5.8433097601e-01
    1.8130183411e+02    5.8444398642e-01
    1.8140180969e+02    5.8455097675e-01
    1.8150175476e+02    5.8465397358e-01
    1.8160176086e+02    5.8475297689e-01
    1.8170187378e+02    5.8484798670e-01
    1.8180172729e+02    5.8493798971e-01
    1.8190174866e+02    5.8502399921e-01
    1.8200172424e+02    5.8510601521e-01
    1.8210182190e+02    5.8518499136e-01
    1.8220178223e+02    5.8525902033e-01
    1.8230181885e+02    5.8533000946e-01
    1.8240179443e+02    5.8539700508e-01
    1.8250190735e+02    5.8546000719e-01
    1.8260176086e+02    5.8551901579e-01
    1.8270184326e+02    5.8557498455e-01
    1.8280178833e+02    5.8562797308e-01
    1.8290185547e+02    5.8567702770e-01
    1.8300178528e+02    5.8572298288e-01
    1.8310194397e+02    5.8576601744e-01
    1.8320190430e+02    5.8580601215e-01
    1.8330183411e+02    5.8584201336e-01
    1.8340191650e+02    5.8587497473e-01
    1.8350190735e+02    5.8590400219e-01
    1.8360188293e+02    5.8592998981e-01
    1.8370193481e+02    5.8595198393e-01
    1.8380186462e+02    5.8596998453e-01
    1.8390191650e+02    5.8598399162e-01
    1.8400201416e+02    5.8599501848e-01
    1.8410185242e+02    5.8600199223e-01
    1.8420190430e+02    5.8600598574e-01
    1.8430201721e+02    5.8600699902e-01
    1.8440197754e+02    5.8600401878e-01
    1.8450190735e+02    5.8599698544e-01
    1.8460202026e+02    5.8598798513e-01
    1.8470191956e+02    5.8597499132e-01
    1.8480191040e+02    5.8595800400e-01
    1.8490203857e+02    5.8593899012e-01
    1.8500205994e+02    5.8591598272e-01
    1.8510206604e+02    5.8588999510e-01
    1.8520199585e+02    5.8586102724e-01
    1.8530194092e+02    5.8582901955e-01
    1.8540205383e+02    5.8579397202e-01
    1.8550207520e+02    5.8575600386e-01
    1.8560209656e+02    5.8571499586e-01
    1.8570213318e+02    5.8567100763e-01
    1.8580212402e+02    5.8562302589e-01
    1.8590200806e+02    5.8557200432e-01
    1.8600199890e+02    5.8551800251e-01
    1.8610209656e+02    5.8546102047e-01
    1.8620199585e+02    5.8540099859e-01
    1.8630201721e+02    5.8533799648e-01
    1.8640213013e+02    5.8527201414e-01
    1.8650204468e+02    5.8520400524e-01
    1.8660205078e+02    5.8513301611e-01
    1.8670202637e+02    5.8506000042e-01
    1.8680203247e+02    5.8498400450e-01
    1.8690208435e+02    5.8490598202e-01
    1.8700204468e+02    5.8482497931e-01
    1.8710205078e+02    5.8474200964e-01
    1.8720210266e+02    5.8465701342e-01
    1.8730221558e+02    5.8456897736e-01
    1.8740209961e+02    5.8447998762e-01
    1.8750212097e+02    5.8438801765e-01
    1.8760206604e+02    5.8429402113e-01
    1.8770219421e+02    5.8419698477e-01
    1.8780215454e+02    5.8409899473e-01
    1.8790219116e+02    5.8399802446e-01
    1.8800216675e+02    5.8389401436e-01
    1.8810223389e+02    5.8378797770e-01
    1.8820225525e+02    5.8367902040e-01
    1.8830218506e+02    5.8356797695e-01
    1.8840226746e+02    5.8345502615e-01
    1.8850219727e+02    5.8333897591e-01
    1.8860217285e+02    5.8322101831e-01
    1.8870216370e+02    5.8310097456e-01
    1.8880218506e+02    5.8297801018e-01
    1.8890214539e+02    5.8285397291e-01
    1.8900215149e+02    5.8272701502e-01
    1.8910215759e+02    5.8259797096e-01
    1.8920225525e+02    5.8246701956e-01
    1.8930218506e+02    5.8233398199e-01
    1.8940223694e+02    5.8219897747e-01
    1.8950221252e+02    5.8206200600e-01
    1.8960218811e+02    5.8192402124e-01
    1.8970223999e+02    5.8178299665e-01
    1.8980230713e+02    5.8164101839e-01
    1.8990228271e+02    5.8149802685e-01
    1.9000233459e+02    5.8135199547e-01
    1.9010226440e+02    5.8120602369e-01
    1.9020223999e+02    5.8105701208e-01
    1.9030227661e+02    5.8090597391e-01
    1.9040235901e+02    5.8075398207e-01
    1.9050224304e+02    5.8060002327e-01
    1.9060235596e+02    5.8044397831e-01
    1.9070237732e+02    5.8028697968e-01
    1.9080236816e+02    5.8012801409e-01
    1.9090226746e+02    5.7996898890e-01
    1.9100228882e+02    5.7980799675e-01
    1.9110241699e+02    5.7964497805e-01
    1.9120243835e+02    5.7948100567e-01
    1.9130244446e+02    5.7931500673e-01
    1.9140238953e+02    5.7914799452e-01
    1.9150233459e+02    5.7897901535e-01
    1.9160244751e+02    5.7880800962e-01
    1.9170233154e+02    5.7863599062e-01
    1.9180238342e+02    5.7846301794e-01
    1.9190237427e+02    5.7828801870e-01
    1.9200245667e+02    5.7811200619e-01
    1.9210235596e+02    5.7793498039e-01
    1.9220248413e+02    5.7775598764e-01
    1.9230247498e+02    5.7757699490e-01
    1.9240240479e+02    5.7739698887e-01
    1.9250245667e+02    5.7721501589e-01
    1.9260237122e+02    5.7703202963e-01
    1.9270245361e+02    5.7684898376e-01
    1.9280247498e+02    5.7666397095e-01
    1.9290240479e+02    5.7647997141e-01
    1.9300241089e+02    5.7629501820e-01
    1.9310252380e+02    5.7610899210e-01
    1.9320243835e+02    5.7592302561e-01
    1.9330244446e+02    5.7573699951e-01
    1.9340243530e+02    5.7555001974e-01
    1.9350259399e+02    5.7536298037e-01
    1.9360255432e+02    5.7517498732e-01
    1.9370251465e+02    5.7498598099e-01
    1.9380259705e+02    5.7479602098e-01
    1.9390254211e+02    5.7460498810e-01
    1.9400248718e+02    5.7441401482e-01
    1.9410249329e+02    5.7422202826e-01
    1.9420245361e+02    5.7402902842e-01
    1.9430261230e+02    5.7383501530e-01
    1.9440264893e+02    5.7363998890e-01
[...]
    2.5130595398e+02    2.3163799942e-01
    2.5140606689e+02    2.3057700694e-01
    2.5150596619e+02    2.2951899469e-01
    2.5160598755e+02    2.2846099734e-01
    2.5170597839e+02    2.2740300000e-01
    2.5180607605e+02    2.2634600103e-01
    2.5190611267e+02    2.2528900206e-01
    2.5200613403e+02    2.2423399985e-01
    2.5210612488e+02    2.2318099439e-01
    2.5220610046e+02    2.2212800384e-01
    2.5230607605e+02    2.2107599676e-01
    2.5240609741e+02    2.2002400458e-01
    2.5250605774e+02    2.1897399426e-01
    2.5260615540e+02    2.1792399883e-01
    2.5270603943e+02    2.1687600017e-01
    2.5280610657e+02    2.1582700312e-01
    2.5290620422e+02    2.1477900445e-01
    2.5300619507e+02    2.1373200417e-01
    2.5310609436e+02    2.1268700063e-01
    2.5320610046e+02    2.1164199710e-01
    2.5330616760e+02    2.1059800684e-01
    2.5340623474e+02    2.0955300331e-01
    2.5350616455e+02    2.0851099491e-01
    2.5360612488e+02    2.0746999979e-01
    2.5370620728e+02    2.0642800629e-01
    2.5380616760e+02    2.0538799465e-01
    2.5390620422e+02    2.0434699953e-01
    2.5400616455e+02    2.0330899954e-01
    2.5410627747e+02    2.0226900280e-01
    2.5420620728e+02    2.0123200119e-01
    2.5430621338e+02    2.0019499958e-01
    2.5440629578e+02    1.9915899634e-01
    2.5450621033e+02    1.9812400639e-01
    2.5460627747e+02    1.9708900154e-01
    2.5470625305e+02    1.9605499506e-01
    2.5480618286e+02    1.9502300024e-01
    2.5490620422e+02    1.9399000704e-01
    2.5500628662e+02    1.9295699894e-01
    2.5510633850e+02    1.9192600250e-01
    2.5520620728e+02    1.9089700282e-01
    2.5530636597e+02    1.8986499310e-01
    2.5540626526e+02    1.8883700669e-01
    2.5550633240e+02    1.8780800700e-01
    2.5560621643e+02    1.8678100407e-01
    2.5570634460e+02    1.8575200438e-01
    2.5580627441e+02    1.8472599983e-01
    2.5590638733e+02    1.8369899690e-01
    2.5600625610e+02    1.8267500401e-01
    2.5610635376e+02    1.8164899945e-01
    2.5620623779e+02    1.8062600493e-01
    2.5630630493e+02    1.7960099876e-01
    2.5640640259e+02    1.7857700586e-01
    2.5650637817e+02    1.7755499482e-01
    2.5660641479e+02    1.7653200030e-01
    2.5670635986e+02    1.7551100254e-01
    2.5680627441e+02    1.7449100316e-01
    2.5690640259e+02    1.7346900702e-01
    2.5700634766e+02    1.7245000601e-01
    2.5710638428e+02    1.7143000662e-01
    2.5720635986e+02    1.7041100562e-01
    2.5730630493e+02    1.6939300299e-01
    2.5740634155e+02    1.6837500036e-01
    2.5750640869e+02    1.6735599935e-01
    2.5760638428e+02    1.6633899510e-01
    2.5770632935e+02    1.6532300413e-01
    2.5780648804e+02    1.6430500150e-01
    2.5790649414e+02    1.6328799725e-01
    2.5800650024e+02    1.6227300465e-01
    2.5810647583e+02    1.6125799716e-01
    2.5820651245e+02    1.6024200618e-01
    2.5830654907e+02    1.5922799706e-01
    2.5840640259e+02    1.5821500123e-01
    2.5850650024e+02    1.5719999373e-01
    2.5860641479e+02    1.5618699789e-01
    2.5870645142e+02    1.5517400205e-01
    2.5880648804e+02    1.5416100621e-01
    2.5890655518e+02    1.5314799547e-01
    2.5900646973e+02    1.5213599801e-01
    2.5910650635e+02    1.5112400055e-01
    2.5920654297e+02    1.5011200309e-01
    2.5930651855e+02    1.4910100400e-01
    2.5940652466e+02    1.4809000492e-01
    2.5950643921e+02    1.4707900584e-01
    2.5960650635e+02    1.4606800675e-01
    2.5970648193e+02    1.4505800605e-01
    2.5980651855e+02    1.4404700696e-01
    2.5990649414e+02    1.4303700626e-01
    2.6000656128e+02    1.4202700555e-01
    2.6010650635e+02    1.4101800323e-01
    2.6020654297e+02    1.4000800252e-01
    2.6030661011e+02    1.3899800181e-01
    2.6040649414e+02    1.3798999786e-01
    2.6050668335e+02    1.3697999716e-01
    2.6060650635e+02    1.3597300649e-01
    2.6070657349e+02    1.3496300578e-01
    2.6080657959e+02    1.3395500183e-01
    2.6090652466e+02    1.3294799626e-01
    2.6100653076e+02    1.3193899393e-01
    2.6110650635e+02    1.3093200326e-01
    2.6120672607e+02    1.2992200255e-01
    2.6130654907e+02    1.2891599536e-01
    2.6140658569e+02    1.2790800631e-01
    2.6150656128e+02    1.2690100074e-01
    2.6160659790e+02    1.2589299679e-01
    2.6170663452e+02    1.2488500029e-01
    2.6180664062e+02    1.2387800217e-01
    2.6190667725e+02    1.2286999822e-01
    2.6200668335e+02    1.2186300009e-01
    2.6210662842e+02    1.2085600197e-01
    2.6220663452e+02    1.1985000223e-01
    2.6230664062e+02    1.1884299666e-01
    2.6240667725e+02    1.1783500016e-01
    2.6250662231e+02    1.1682900041e-01
    2.6260671997e+02    1.1582200229e-01
    2.6270663452e+02    1.1481600255e-01
    2.6280673218e+02    1.1380799860e-01
    2.6290664673e+02    1.1280299723e-01
    2.6300683594e+02    1.1179400235e-01
    2.6310665894e+02    1.1078900099e-01
    2.6320678711e+02    1.0978200287e-01
    2.6330679321e+02    1.0877499729e-01
    2.6340682983e+02    1.0776799917e-01
    2.6350677490e+02    1.0676199943e-01
    2.6360687256e+02    1.0575400293e-01
    2.6370684814e+02    1.0474699736e-01
    2.6380685425e+02    1.0374099761e-01
    2.6390673828e+02    1.0273399949e-01
    2.6400677490e+02    1.0172700137e-01
    2.6410671997e+02    1.0072100163e-01
    2.6420687866e+02    9.9711596966e-02
    2.6430682373e+02    9.8704800010e-02
    2.6440676880e+02    9.7697801888e-02
    2.6450686646e+02    9.6689201891e-02
    2.6460687256e+02    9.5681503415e-02
    2.6470687866e+02    9.4673402607e-02
    2.6480685425e+02    9.3665599823e-02
    2.6490686035e+02    9.2657402158e-02
    2.6500689697e+02    9.1648302972e-02
    2.6510687256e+02    9.0639896691e-02
    2.6520681763e+02    8.9631699026e-02
    2.6530691528e+02    8.8621497154e-02
    2.6540682983e+02    8.7613202631e-02
    2.6550686646e+02    8.6603298783e-02
    2.6560699463e+02    8.5592299700e-02
    2.6570693970e+02    8.4582798183e-02
    2.6580685425e+02    8.3573102951e-02
    2.6590698242e+02    8.2561403513e-02
    2.6600698853e+02    8.1550098956e-02
    2.6610690308e+02    8.0539703369e-02
    2.6620697021e+02    7.9527601600e-02
    2.6630700684e+02    7.8515298665e-02
    2.6640689087e+02    7.7504396439e-02
    2.6650695801e+02    7.6490998268e-02
    2.6660702515e+02    7.5477503240e-02
    2.6670687866e+02    7.4465699494e-02
    2.6680700684e+02    7.3450900614e-02
    2.6690692139e+02    7.2437800467e-02
    2.6700698853e+02    7.1422599256e-02
    2.6710699463e+02    7.0407599211e-02
    2.6720693970e+02    6.9392897189e-02
    2.6730691528e+02    6.8377196789e-02
    2.6740704346e+02    6.7359901965e-02
    2.6750692749e+02    6.6344402730e-02
    2.6760702515e+02    6.5326303244e-02
    2.6770706177e+02    6.4308501780e-02
    2.6780703735e+02    6.3290499151e-02
    2.6790695190e+02    6.2272999436e-02
    2.6800711060e+02    6.1252299696e-02
    2.6810705566e+02    6.0233499855e-02
    2.6820709229e+02    5.9212900698e-02
    2.6830703735e+02    5.8192998171e-02
    2.6840704346e+02    5.7172100991e-02
    2.6850704956e+02    5.6150499731e-02
    2.6860699463e+02    5.5128898472e-02
    2.6870715332e+02    5.4104600102e-02
    2.6880706787e+02    5.3082499653e-02
    2.6890704346e+02    5.2058901638e-02
    2.6900701904e+02    5.1034901291e-02
    2.6910717773e+02    5.0008598715e-02
    2.6920703125e+02    4.8984400928e-02
    2.6930712891e+02    4.7957599163e-02
    2.6940713501e+02    4.6930599958e-02
    2.6950717163e+02    4.5903000981e-02
    2.6960714722e+02    4.4875599444e-02
    2.6970715332e+02    4.3846800923e-02
    2.6980706787e+02    4.2818501592e-02
    2.6990716553e+02    4.1787799448e-02
    2.7000717163e+02    4.0757499635e-02
    2.7010708618e+02    3.9727400988e-02
    2.7020715332e+02    3.8694899529e-02
    2.7030725098e+02    3.7661600858e-02
    2.7040713501e+02    3.6629598588e-02
    2.7050726318e+02    3.5594798625e-02
    2.7060717773e+02    3.4561000764e-02
    2.7070715332e+02    3.3526200801e-02
    2.7080731201e+02    3.2489001751e-02
    2.7090728760e+02    3.1452499330e-02
    2.7100726318e+02    3.0415600166e-02
    2.7110723877e+02    2.9377700761e-02
    2.7120721436e+02    2.8339300305e-02
    2.7130715942e+02    2.7300599962e-02
    2.7140716553e+02    2.6260100305e-02
    2.7150723267e+02    2.5218600407e-02
    2.7160726929e+02    2.4176500738e-02
    2.7170730591e+02    2.3133400828e-02
    2.7180734253e+02    2.2089699283e-02
    2.7190734863e+02    2.1045500413e-02
    2.7200726318e+02    2.0001500845e-02
    2.7210733032e+02    1.8954800442e-02
    2.7220724487e+02    1.7909100279e-02
    2.7230737305e+02    1.6860200092e-02
    2.7240734863e+02    1.5812100843e-02
    2.7250735474e+02    1.4762800187e-02
    2.7260733032e+02    1.3713000342e-02
    2.7270727539e+02    1.2662500143e-02
    2.7280743408e+02    1.1608799919e-02
    2.7290740967e+02    1.0555899702e-02
    2.7300726318e+02    9.5038795844e-03
    2.7310729980e+02    8.4483595565e-03
    2.7320730591e+02    7.3925801553e-03
    2.7330728149e+02    6.3360398635e-03
    2.7340744019e+02    5.2767801099e-03
    2.7350732422e+02    4.2192297988e-03
    2.7360736084e+02    3.1591400038e-03
    2.7370733643e+02    2.0986199379e-03
    2.7380737305e+02    1.0365199996e-03
    2.7390734863e+02   -2.6319899916e-05
    2.7400744629e+02   -1.0911199497e-03
    2.7410745239e+02   -2.1560499445e-03
    2.7420742798e+02   -3.2217800617e-03
    2.7430743408e+02   -4.2889299802e-03
    2.7440750122e+02   -5.3579402156e-03
    2.7450741577e+02   -6.4263697714e-03
    2.7460754395e+02   -7.4978601187e-03
    2.7470755005e+02   -8.5694901645e-03
    2.7480752563e+02   -9.6419099718e-03
    2.7490750122e+02   -1.0715600103e-02
    2.7500738525e+02   -1.1789400131e-02
    2.7510754395e+02   -1.2866900302e-02
    2.7520739746e+02   -1.3942699879e-02
    2.7530749512e+02   -1.5022300184e-02
    2.7540753174e+02   -1.6102399677e-02
    2.7550747681e+02   -1.7182800919e-02
    2.7560745239e+02   -1.8264399841e-02
    2.7570751953e+02   -1.9348600879e-02
    2.7580758667e+02   -2.0433900878e-02
    2.7590750122e+02   -2.1518399939e-02
    2.7600759888e+02   -2.2606499493e-02
    2.7610748291e+02   -2.3693699390e-02
    2.7620758057e+02   -2.4784300476e-02
    2.7630749512e+02   -2.5874199346e-02
    2.7640759277e+02   -2.6967199519e-02
    2.7650750732e+02   -2.8059599921e-02
    2.7660757446e+02   -2.9154900461e-02
    2.7670764160e+02   -3.0251700431e-02
    2.7680764771e+02   -3.1349301338e-02
    2.7690750122e+02   -3.2446198165e-02
    2.7700765991e+02   -3.3547900617e-02
    2.7710763550e+02   -3.4648701549e-02
    2.7720761108e+02   -3.5751201212e-02
    2.7730755615e+02   -3.6854300648e-02
    2.7740759277e+02   -3.7960000336e-02
    2.7750759888e+02   -3.9066698402e-02
    2.7760757446e+02   -4.0174301714e-02
    2.7770761108e+02   -4.1284099221e-02
    2.7780755615e+02   -4.2394101620e-02
    2.7790768433e+02   -4.3507400900e-02
    2.7800772095e+02   -4.4621400535e-02
    2.7810757446e+02   -4.5734498650e-02
    2.7820761108e+02   -4.6851098537e-02
    2.7830770874e+02   -4.7969799489e-02
    2.7840765381e+02   -4.9087900668e-02
    2.7850775146e+02   -5.0209399313e-02
    2.7860775757e+02   -5.1331400871e-02
    2.7870761108e+02   -5.2453100681e-02
    2.7880776978e+02   -5.3579200059e-02
    2.7890774536e+02   -5.4705400020e-02
    2.7900778198e+02   -5.5833298713e-02
    2.7910778809e+02   -5.6962501258e-02
    2.7920767212e+02   -5.8091498911e-02
    2.7930770874e+02   -5.9223998338e-02
    2.7940774536e+02   -6.0357801616e-02
    2.7950775146e+02   -6.1492800713e-02
    2.7960775757e+02   -6.2629297376e-02
    2.7970770264e+02   -6.3766703010e-02
    2.7980780029e+02   -6.4907297492e-02
    2.7990771484e+02   -6.6046901047e-02
    2.8000775146e+02   -6.7190200090e-02
    2.8010769653e+02   -6.8333402276e-02
    2.8020770264e+02   -6.9479100406e-02
    2.8030786133e+02   -7.0628002286e-02
    2.8040780640e+02   -7.1776300669e-02
    2.8050772095e+02   -7.2925597429e-02
    2.8060772705e+02   -7.4077300727e-02
    2.8070779419e+02   -7.5231596828e-02
    2.8080783081e+02   -7.6386898756e-02
    2.8090774536e+02   -7.7542699873e-02
    2.8100775146e+02   -7.8701101243e-02
    2.8110781860e+02   -7.9861700535e-02
    2.8120785522e+02   -8.1023603678e-02
    2.8130795288e+02   -8.2187801600e-02
    2.8140792847e+02   -8.3352401853e-02
    2.8150793457e+02   -8.4518499672e-02
    2.8160787964e+02   -8.5685998201e-02
    2.8170779419e+02   -8.6854301393e-02
    2.8180786133e+02   -8.8026300073e-02
    2.8190789795e+02   -8.9199498296e-02
    2.8200784302e+02   -9.0373300016e-02
    2.8210781860e+02   -9.1549299657e-02
    2.8220782471e+02   -9.2727497220e-02
    2.8230786133e+02   -9.3907497823e-02
    2.8240798950e+02   -9.5090702176e-02
    2.8250793457e+02   -9.6273198724e-02
    2.8260784912e+02   -9.7456999123e-02
    2.8270785522e+02   -9.8644196987e-02
    2.8280792236e+02   -9.9833302200e-02
    2.8290798950e+02   -1.0102400184e-01
    2.8300796509e+02   -1.0221599787e-01
    2.8310787964e+02   -1.0340899974e-01
    2.8320797729e+02   -1.0460600257e-01
    2.8330792236e+02   -1.0580299795e-01
    2.8340792847e+02   -1.0700199753e-01
    2.8350796509e+02   -1.0820399970e-01
    2.8360797119e+02   -1.0940700024e-01
    2.8370797729e+02   -1.1061099917e-01
    2.8380795288e+02   -1.1181700230e-01
    2.8390792847e+02   -1.1302500218e-01
    2.8400802612e+02   -1.1423599720e-01
    2.8410809326e+02   -1.1544899642e-01
    2.8420812988e+02   -1.1666300148e-01
    2.8430807495e+02   -1.1787799746e-01
    2.8440808105e+02   -1.1909499764e-01
    2.8450802612e+02   -1.2031400204e-01
    2.8460812378e+02   -1.2153600156e-01
    2.8470797729e+02   -1.2275700271e-01
    2.8480807495e+02   -1.2398300320e-01
    2.8490814209e+02   -1.2521000206e-01
    2.8500811768e+02   -1.2643900514e-01
    2.8510803223e+02   -1.2766799331e-01
    2.8520809937e+02   -1.2890100479e-01
    2.8530807495e+02   -1.3013499975e-01
    2.8540817261e+02   -1.3137200475e-01
    2.8550814819e+02   -1.3260999322e-01
    2.8560815430e+02   -1.3384899497e-01
    2.8570816040e+02   -1.3509100676e-01
    2.8580804443e+02   -1.3633300364e-01
    2.8590805054e+02   -1.3757799566e-01
    2.8600820923e+02   -1.3882699609e-01
    2.8610821533e+02   -1.4007699490e-01
    2.8620812988e+02   -1.4132599533e-01
    2.8630807495e+02   -1.4257900417e-01
    2.8640817261e+02   -1.4383499324e-01
    2.8650823975e+02   -1.4509299397e-01
    2.8660809326e+02   -1.4634999633e-01
    2.8670825195e+02   -1.4761200547e-01
    2.8680813599e+02   -1.4887399971e-01
    2.8690820312e+02   -1.5013900399e-01
    2.8700814819e+02   -1.5140500665e-01
    2.8710818481e+02   -1.5267400444e-01
    2.8720816040e+02   -1.5394400060e-01
    2.8730822754e+02   -1.5521700680e-01
    2.8740814209e+02   -1.5648999810e-01
    2.8750814819e+02   -1.5776599944e-01
    2.8760815430e+02   -1.5904399753e-01
    2.8770819092e+02   -1.6032400727e-01
    2.8780831909e+02   -1.6160799563e-01
    2.8790829468e+02   -1.6289100051e-01
    2.8800833130e+02   -1.6417700052e-01
    2.8810821533e+02   -1.6546300054e-01
    2.8820828247e+02   -1.6675299406e-01
    2.8830828857e+02   -1.6804499924e-01
    2.8840823364e+02   -1.6933700442e-01
    2.8850830078e+02   -1.7063300312e-01
    2.8860833740e+02   -1.7193099856e-01
    2.8870831299e+02   -1.7323000729e-01
    2.8880828857e+02   -1.7453099787e-01
    2.8890832520e+02   -1.7583499849e-01
    2.8900823975e+02   -1.7713899910e-01
    2.8910842896e+02   -1.7844800651e-01
    2.8920828247e+02   -1.7975500226e-01
    2.8930841064e+02   -1.8106800318e-01
    2.8940838623e+02   -1.8238100410e-01
    2.8950836182e+02   -1.8369500339e-01
    2.8960836792e+02   -1.8501199782e-01
    2.8970837402e+02   -1.8633100390e-01
    2.8980834961e+02   -1.8765200675e-01
    2.8990835571e+02   -1.8897399306e-01
    2.9000830078e+02   -1.9029800594e-01
    2.9010833740e+02   -1.9162499905e-01
    2.9020834351e+02   -1.9295400381e-01
    2.9030844116e+02   -1.9428600371e-01
    2.9040835571e+02   -1.9561800361e-01
    2.9050836182e+02   -1.9695299864e-01
    2.9060848999e+02   -1.9829100370e-01
    2.9070849609e+02   -1.9963000715e-01
    2.9080844116e+02   -2.0096899569e-01
    2.9090841675e+02   -2.0231199265e-01
    2.9100845337e+02   -2.0365700126e-01
    2.9110848999e+02   -2.0500500500e-01
    2.9120840454e+02   -2.0635199547e-01
    2.9130838013e+02   -2.0770199597e-01
    2.9140841675e+02   -2.0905500650e-01
    2.9150842285e+02   -2.1040900052e-01
    2.9160855103e+02   -2.1176700294e-01
    2.9170855713e+02   -2.1312500536e-01
    2.9180844116e+02   -2.1448400617e-01
    2.9190844727e+02   -2.1584600210e-01
    2.9200848389e+02   -2.1721099317e-01
    2.9210845947e+02   -2.1857599914e-01
    2.9220843506e+02   -2.1994400024e-01
    2.9230850220e+02   -2.2131499648e-01
    2.9240856934e+02   -2.2268800437e-01
    2.9250854492e+02   -2.2406199574e-01
    2.9260852051e+02   -2.2543799877e-01
    2.9270846558e+02   -2.2681500018e-01
    2.9280856323e+02   -2.2819699347e-01
    2.9290847778e+02   -2.2957800329e-01
    2.9300854492e+02   -2.3096300662e-01
    2.9310848999e+02   -2.3234899342e-01
    2.9320849609e+02   -2.3373800516e-01
    2.9330865479e+02   -2.3512999713e-01
    2.9340850830e+02   -2.3652000725e-01
    2.9350851440e+02   -2.3791499436e-01
    2.9360867310e+02   -2.3931300640e-01
    2.9370855713e+02   -2.4071000516e-01
    2.9380853271e+02   -2.4210900068e-01
    2.9390866089e+02   -2.4351300299e-01
    2.9400869751e+02   -2.4491700530e-01
    2.9410858154e+02   -2.4632200599e-01
    2.9420858765e+02   -2.4773000181e-01
    2.9430859375e+02   -2.4913999438e-01
    2.9440856934e+02   -2.5055098534e-01
    2.9450872803e+02   -2.5196701288e-01
    2.9460858154e+02   -2.5338101387e-01
    2.9470861816e+02   -2.5479999185e-01
    2.9480868530e+02   -2.5622099638e-01
    2.9490875244e+02   -2.5764301419e-01
    2.9500863647e+02   -2.5906598568e-01
    2.9510867310e+02   -2.6049199700e-01
    2.9520861816e+02   -2.6191899180e-01
    2.9530877686e+02   -2.6335099339e-01
    2.9540875244e+02   -2.6478201151e-01
    2.9550872803e+02   -2.6621499658e-01
    2.9560879517e+02   -2.6765099168e-01
    2.9570864868e+02   -2.6908600330e-01
    2.9580865479e+02   -2.7052500844e-01
    2.9590872192e+02   -2.7196499705e-01
    2.9600878906e+02   -2.7340599895e-01
    2.9610867310e+02   -2.7484399080e-01
    2.9620874023e+02   -2.7628499269e-01
    2.9630877686e+02   -2.7772501111e-01
    2.9640872192e+02   -2.7916198969e-01
    2.9650878906e+02   -2.8060001135e-01
    2.9660879517e+02   -2.8203600645e-01
    2.9670870972e+02   -2.8346899152e-01
    2.9680874634e+02   -2.8490298986e-01
    2.9690878296e+02   -2.8633499146e-01
    2.9700878906e+02   -2.8776699305e-01
    2.9710888672e+02   -2.8919899464e-01
    2.9720877075e+02   -2.9062700272e-01
    2.9730874634e+02   -2.9205799103e-01
    2.9740878296e+02   -2.9348900914e-01
    2.9750891113e+02   -2.9492199421e-01
    2.9760876465e+02   -2.9635199904e-01
    2.9770892334e+02   -2.9778599739e-01
    2.9780889893e+02   -2.9921901226e-01
    2.9790884399e+02   -3.0065199733e-01
    2.9800881958e+02   -3.0208700895e-01
    2.9810891724e+02   -3.0352398753e-01
    2.9820889282e+02   -3.0495899916e-01
    2.9830880737e+02   -3.0639401078e-01
    2.9840890503e+02   -3.0783000588e-01
    2.9850888062e+02   -3.0926498771e-01
    2.9860882568e+02   -3.1069800258e-01
    2.9870895386e+02   -3.1213301420e-01
    2.9880886841e+02   -3.1356298923e-01
    2.9890884399e+02   -3.1499099731e-01
    2.9900900269e+02   -3.1642100215e-01
    2.9910888672e+02   -3.1784400344e-01
    2.9920901489e+02   -3.1926900148e-01
    2.9930889893e+02   -3.2068800926e-01
    2.9940902710e+02   -3.2210800052e-01
    2.9950903320e+02   -3.2352399826e-01
    2.9960903931e+02   -3.2493901253e-01
    2.9970892334e+02   -3.2635000348e-01
    2.9980895996e+02   -3.2776200771e-01
    2.9990899658e+02   -3.2917299867e-01
endcurve
