Curveplot
LS-DYNA keyword deck by LS-PrePost
Abscissa
Ordinate
XY data
CHOPHeadyRot-1 #pts=3000
* Minval=    -1.4401500113e-02 at time=       296.0087890625
* Maxval=     6.7263701931e-03 at time=       161.0005645752
    0.0000000000e+00    0.0000000000e+00
    9.9978484213e-02    1.6404900442e-14
    1.9994476438e-01    3.9026200049e-09
    2.9985594749e-01    1.1721700055e-08
    3.9993065596e-01   -1.5931700403e-08
    4.9983286858e-01    6.2475699281e-08
    5.9996074438e-01   -1.0619299928e-07
    6.9996917248e-01   -1.2754300371e-07
    7.9987239838e-01    1.5354700622e-07
    8.9996677637e-01    4.1150801167e-07
    9.9981802702e-01    4.2984999027e-07
    1.0999013186e+00    2.8426899235e-07
    1.1999312639e+00    5.2084200064e-08
    1.2999420166e+00   -2.4818899647e-07
    1.3998707533e+00   -5.3166797898e-07
    1.4999967813e+00   -7.6919502590e-07
    1.5999176502e+00   -8.4062497763e-07
    1.6998231411e+00   -9.5756399787e-07
    1.7998125553e+00   -9.0087797844e-07
    1.8998631239e+00   -9.7730298876e-07
    1.9999403954e+00   -8.9038400120e-07
    2.0999372005e+00   -7.6501197555e-07
    2.1998307705e+00   -5.5301899238e-07
    2.2999815941e+00   -3.7722898583e-07
    2.3998348713e+00   -2.8787098927e-07
    2.4998700619e+00   -1.9718399358e-07
    2.5998649597e+00   -1.1206699924e-07
    2.6998441219e+00   -2.9294399795e-08
    2.7999923229e+00    2.6690399224e-08
    2.8998992443e+00    3.1773998899e-07
    2.9998807907e+00    4.9463602636e-07
    3.0998446941e+00    7.4562302643e-07
    3.1998353004e+00    8.1607197444e-07
    3.2999982834e+00    7.7160399314e-07
    3.3999238014e+00    6.6103899599e-07
    3.4999976158e+00    5.5602498605e-07
    3.5999677181e+00    4.7875602149e-07
    3.6998908520e+00    3.9822600684e-07
    3.7998950481e+00    4.3758799961e-07
    3.8999593258e+00    4.4335899929e-07
    3.9998872280e+00    6.0571301219e-07
    4.0999002457e+00    6.3133398953e-07
    4.1999154091e+00    8.4199899675e-07
    4.2999529839e+00    9.8264297321e-07
    4.3998851776e+00    1.3102099956e-06
    4.4998784065e+00    1.5059799807e-06
    4.5999293327e+00    1.6191600025e-06
    4.6999778748e+00    1.6371900529e-06
    4.7999606133e+00    1.6482000547e-06
    4.8998966217e+00    1.8117899572e-06
    4.9999694824e+00    1.9118099317e-06
    5.0999503136e+00    2.1911000658e-06
    5.1998300552e+00    2.3931700071e-06
    5.2998480797e+00    2.6088100640e-06
    5.3998847008e+00    2.6755599265e-06
    5.4998626709e+00    2.8118699902e-06
    5.5999817848e+00    2.8538900096e-06
    5.6998472214e+00    2.9824300327e-06
    5.7998046875e+00    3.2173400086e-06
    5.8998994827e+00    3.4164299905e-06
    5.9999914169e+00    3.6066398934e-06
    6.0998306274e+00    3.7784900542e-06
    6.1999139786e+00    4.0555401029e-06
    6.2998967171e+00    4.4109201554e-06
    6.3998079300e+00    4.8658398555e-06
    6.4998803139e+00    5.2662499002e-06
    6.5999507904e+00    5.6292901718e-06
    6.6999664307e+00    5.8906298364e-06
    6.7998299599e+00    6.1537398324e-06
    6.8998317719e+00    6.2205699578e-06
    6.9998917580e+00    6.3234401750e-06
    7.0998682976e+00    6.4946998464e-06
    7.1999130249e+00    6.7609298640e-06
    7.2999601364e+00    6.9478501246e-06
    7.3999619484e+00    7.0664100349e-06
    7.4998159409e+00    7.1941199167e-06
    7.5999779701e+00    7.2713201007e-06
    7.6999573708e+00    7.4810100159e-06
    7.7999353409e+00    7.6080700637e-06
    7.8999133110e+00    7.7597997006e-06
    7.9999518394e+00    7.8871898950e-06
    8.0999116898e+00    8.0752097347e-06
    8.1999921799e+00    8.1684402176e-06
    8.2998600006e+00    8.4026896729e-06
    8.3999414444e+00    8.6595200628e-06
    8.4999418259e+00    8.9843997557e-06
    8.5998668671e+00    9.3541802926e-06
    8.6999950409e+00    9.6381399999e-06
    8.7998943329e+00    9.9492699519e-06
    8.8998794556e+00    1.0080199900e-05
    8.9998931885e+00    1.0244900295e-05
    9.0998735428e+00    1.0391399883e-05
    9.1998090744e+00    1.0563199794e-05
    9.2998924255e+00    1.0725199900e-05
    9.3998374939e+00    1.0954499885e-05
    9.4999208450e+00    1.1206900126e-05
    9.5998888016e+00    1.1380299838e-05
    9.6999607086e+00    1.1607799934e-05
    9.7999601364e+00    1.1836699741e-05
    9.8999509811e+00    1.2154099750e-05
    9.9999437332e+00    1.2424199667e-05
    1.0099899292e+01    1.2692399650e-05
    1.0199932098e+01    1.2987099581e-05
    1.0299875259e+01    1.3256500097e-05
    1.0399922371e+01    1.3479299923e-05
    1.0499888420e+01    1.3813099940e-05
    1.0599976540e+01    1.3897099961e-05
    1.0699834824e+01    1.4209699657e-05
    1.0799839020e+01    1.5075799638e-05
    1.0899987221e+01    1.5755800632e-05
    1.0999872208e+01    1.5980400349e-05
    1.1099974632e+01    1.5899899154e-05
    1.1199816704e+01    1.5773299310e-05
    1.1299883842e+01    1.5518600776e-05
    1.1399881363e+01    1.5360499674e-05
    1.1499829292e+01    1.5130000065e-05
    1.1599976540e+01    1.5288400391e-05
    1.1699942589e+01    1.5344499843e-05
    1.1799819946e+01    1.5743300537e-05
    1.1899915695e+01    1.5911800801e-05
    1.1999942780e+01    1.6399200831e-05
    1.2099864960e+01    1.7004700567e-05
    1.2199995041e+01    1.7802600269e-05
    1.2300000191e+01    1.8505999833e-05
    1.2399901390e+01    1.8867200197e-05
    1.2499962807e+01    1.9470600819e-05
    1.2599871635e+01    1.9975199393e-05
    1.2699990273e+01    2.0526600565e-05
    1.2799981117e+01    2.1074600227e-05
    1.2899868011e+01    2.1960500817e-05
    1.2999883652e+01    2.2702499336e-05
    1.3099851608e+01    2.3490500098e-05
    1.3199937820e+01    2.3963999411e-05
    1.3299961090e+01    2.4322800527e-05
    1.3399948120e+01    2.4613200367e-05
    1.3499955177e+01    2.4858300094e-05
    1.3599972725e+01    2.5149800422e-05
    1.3699863434e+01    2.5359100619e-05
    1.3799963951e+01    2.5766899853e-05
    1.3899989128e+01    2.6251800591e-05
    1.3999843597e+01    2.6849100323e-05
    1.4099994659e+01    2.7423799111e-05
    1.4199995995e+01    2.8152899176e-05
    1.4299977303e+01    2.8988899430e-05
    1.4399853706e+01    2.9939899832e-05
    1.4499971390e+01    3.0692801374e-05
    1.4599962234e+01    3.1323801522e-05
    1.4699860573e+01    3.1750998460e-05
    1.4799954414e+01    3.2261999877e-05
    1.4899956703e+01    3.2833198929e-05
    1.4999971390e+01    3.3526499465e-05
    1.5099837303e+01    3.4214099287e-05
    1.5200016975e+01    3.5117798689e-05
    1.5299937248e+01    3.5789500544e-05
    1.5399894714e+01    3.6380999518e-05
    1.5499953270e+01    3.6935900425e-05
    1.5599922180e+01    3.7456800783e-05
    1.5699946404e+01    3.8186401071e-05
    1.5799880981e+01    3.8906800910e-05
    1.5899893761e+01    3.9647398808e-05
    1.6000009537e+01    4.0312701458e-05
    1.6100021362e+01    4.1142298869e-05
    1.6199943542e+01    4.2018600652e-05
    1.6299993515e+01    4.3165200623e-05
    1.6399923325e+01    4.4362499466e-05
    1.6499935150e+01    4.5584900363e-05
    1.6600019455e+01    4.6653898607e-05
    1.6699966431e+01    4.7578898375e-05
    1.6799919128e+01    4.8434700147e-05
    1.6899942398e+01    4.8942198191e-05
    1.6999977112e+01    4.9648500863e-05
    1.7099969864e+01    5.0386799558e-05
    1.7200016022e+01    5.1219798479e-05
    1.7299913406e+01    5.1873801567e-05
    1.7399948120e+01    5.2540999604e-05
    1.7499986649e+01    5.3164400015e-05
    1.7599855423e+01    5.3849998949e-05
    1.7699888229e+01    5.4635798733e-05
    1.7799867630e+01    5.5274900660e-05
    1.7900030136e+01    5.5978998716e-05
    1.8000001907e+01    5.6599699747e-05
    1.8100002289e+01    5.7345201640e-05
    1.8199903488e+01    5.8005098253e-05
    1.8299930573e+01    5.8841600548e-05
    1.8399866104e+01    5.9761798184e-05
    1.8499961853e+01    6.0878901422e-05
    1.8600009918e+01    6.1940700107e-05
    1.8699945450e+01    6.2893101131e-05
    1.8799982071e+01    6.3871797465e-05
    1.8899885178e+01    6.4618099714e-05
    1.8999877930e+01    6.5409600211e-05
    1.9099937439e+01    6.6133397922e-05
    1.9199964523e+01    6.6959102696e-05
    1.9299915314e+01    6.7667999247e-05
    1.9399930954e+01    6.8580899097e-05
    1.9499971390e+01    6.9461297244e-05
    1.9599996567e+01    7.0295100159e-05
    1.9699876785e+01    7.1187598223e-05
    1.9799945831e+01    7.2249400546e-05
    1.9899951935e+01    7.3268398410e-05
    1.9999975204e+01    7.4325296737e-05
    2.0099910736e+01    7.5324896898e-05
    2.0200038910e+01    7.6356001955e-05
    2.0299928665e+01    7.7382399468e-05
    2.0399969101e+01    7.8257602581e-05
    2.0499897003e+01    7.9423502029e-05
    2.0599882126e+01    8.0276200606e-05
    2.0699890137e+01    8.1471000158e-05
    2.0800008774e+01    8.3166596596e-05
    2.0900033951e+01    8.4634899395e-05
    2.0999982834e+01    8.5518600827e-05
    2.1099977493e+01    8.6227497377e-05
    2.1199924469e+01    8.6795000243e-05
    2.1299985886e+01    8.7141997938e-05
    2.1399898529e+01    8.7672196969e-05
    2.1500028610e+01    8.8134598627e-05
    2.1599893570e+01    8.9001099695e-05
    2.1700010300e+01    8.9712702902e-05
    2.1799985886e+01    9.0853900474e-05
    2.1899875641e+01    9.1857596999e-05
    2.1999879837e+01    9.3328897492e-05
    2.2100011826e+01    9.4762297522e-05
    2.2199956894e+01    9.6419702459e-05
    2.2300016403e+01    9.7977303085e-05
    2.2400018692e+01    9.9170101748e-05
    2.2499933243e+01    1.0060399654e-04
    2.2600017548e+01    1.0198599921e-04
    2.2699880600e+01    1.0344600014e-04
    2.2799909592e+01    1.0487999680e-04
    2.2900049210e+01    1.0667100287e-04
    2.2999948502e+01    1.0831099644e-04
    2.3099882126e+01    1.0996800120e-04
    2.3199964523e+01    1.1129800259e-04
    2.3299911499e+01    1.1250899843e-04
    2.3400043488e+01    1.1365800310e-04
    2.3499912262e+01    1.1468400044e-04
    2.3599950790e+01    1.1580499995e-04
    2.3699897766e+01    1.1683299817e-04
    2.3799978256e+01    1.1808099953e-04
    2.3899904251e+01    1.1937799718e-04
    2.4000043869e+01    1.2094699923e-04
    2.4100038528e+01    1.2241699733e-04
    2.4200052261e+01    1.2412900105e-04
    2.4300033569e+01    1.2588199752e-04
    2.4399972916e+01    1.2771399633e-04
    2.4500045776e+01    1.2937000429e-04
    2.4599969864e+01    1.3078200573e-04
    2.4699985504e+01    1.3205199502e-04
    2.4800001144e+01    1.3341900194e-04
    2.4899925232e+01    1.3486499665e-04
    2.4999992371e+01    1.3636999938e-04
    2.5100019455e+01    1.3804799528e-04
    2.5199989319e+01    1.3964799291e-04
    2.5299991608e+01    1.4112600184e-04
    2.5399894714e+01    1.4267899678e-04
    2.5499933243e+01    1.4403399837e-04
    2.5600042343e+01    1.4539400581e-04
    2.5699977875e+01    1.4696500148e-04
    2.5799924850e+01    1.4857899805e-04
    2.5899940491e+01    1.5010600328e-04
    2.5999990463e+01    1.5168500249e-04
    2.6100011826e+01    1.5337599325e-04
    2.6199951172e+01    1.5528699441e-04
    2.6299898148e+01    1.5738999355e-04
    2.6399993896e+01    1.5958999575e-04
    2.6500017166e+01    1.6182799300e-04
    2.6599876404e+01    1.6376099666e-04
    2.6700063705e+01    1.6559299547e-04
    2.6800020218e+01    1.6732100630e-04
    2.6900028229e+01    1.6879200120e-04
    2.6999944687e+01    1.7032299365e-04
    2.7100065231e+01    1.7203000607e-04
    2.7199987411e+01    1.7377399490e-04
    2.7299985886e+01    1.7525799922e-04
    2.7399879456e+01    1.7680099700e-04
    2.7500011444e+01    1.7833900347e-04
    2.7599903107e+01    1.7996900715e-04
    2.7700067520e+01    1.8165299844e-04
    2.7800014496e+01    1.8330500461e-04
    2.7899932861e+01    1.8484900647e-04
    2.7999940872e+01    1.8635099696e-04
    2.8099967957e+01    1.8797900702e-04
    2.8200038910e+01    1.8952299433e-04
    2.8299932480e+01    1.9132399757e-04
    2.8400028229e+01    1.9322900334e-04
    2.8500000000e+01    1.9535499450e-04
    2.8600059509e+01    1.9735799287e-04
    2.8700017929e+01    1.9931199495e-04
    2.8800045013e+01    2.0114899962e-04
    2.8900045395e+01    2.0290000248e-04
    2.8999914169e+01    2.0451800083e-04
    2.9100065231e+01    2.0621900330e-04
    2.9199949265e+01    2.0794400189e-04
    2.9299966812e+01    2.0958999812e-04
    2.9400009155e+01    2.1142199694e-04
    2.9499992371e+01    2.1314100013e-04
    2.9599905014e+01    2.1504600591e-04
    2.9699943542e+01    2.1693599410e-04
    2.9800020218e+01    2.1904900495e-04
    2.9900011063e+01    2.2106000688e-04
    3.0000030518e+01    2.2311399516e-04
    3.0099977493e+01    2.2501799685e-04
    3.0200006485e+01    2.2706699383e-04
    3.0299949646e+01    2.2904700018e-04
    3.0400007248e+01    2.3089800379e-04
    3.0499969482e+01    2.3317799787e-04
    3.0599927902e+01    2.3472499743e-04
    3.0699987411e+01    2.3688400688e-04
    3.0800060272e+01    2.4011000642e-04
    3.0900039673e+01    2.4323399703e-04
    3.0999963760e+01    2.4510099320e-04
    3.1100059509e+01    2.4643799406e-04
    3.1200065613e+01    2.4741300149e-04
    3.1300043106e+01    2.4812298943e-04
    3.1400012970e+01    2.4898699485e-04
    3.1500053406e+01    2.4982998730e-04
    3.1599956512e+01    2.5143599487e-04
    3.1700004578e+01    2.5283801369e-04
    3.1799985886e+01    2.5514699519e-04
    3.1900049210e+01    2.5700998958e-04
    3.2000019073e+01    2.5963300141e-04
    3.2100021362e+01    2.6221800363e-04
    3.2200027466e+01    2.6534800418e-04
    3.2299896240e+01    2.6816499303e-04
    3.2399921417e+01    2.7047100593e-04
    3.2500053406e+01    2.7302099625e-04
    3.2599964142e+01    2.7547200443e-04
    3.2699958801e+01    2.7806899743e-04
    3.2799972534e+01    2.8061101330e-04
    3.2899932861e+01    2.8389898944e-04
    3.2999946594e+01    2.8683998971e-04
    3.3099956512e+01    2.9003398959e-04
    3.3200050354e+01    2.9241599259e-04
    3.3299980164e+01    2.9458600329e-04
    3.3399986267e+01    2.9640100547e-04
    3.3500026703e+01    2.9816100141e-04
    3.3599929810e+01    2.9997000820e-04
    3.3699920654e+01    3.0179700116e-04
    3.3799945831e+01    3.0403400888e-04
    3.3899971008e+01    3.0633498682e-04
    3.4000022888e+01    3.0921498546e-04
    3.4099967957e+01    3.1166701228e-04
    3.4200031281e+01    3.1473301351e-04
    3.4299991608e+01    3.1775998650e-04
    3.4399997711e+01    3.2121199183e-04
    3.4499969482e+01    3.2416998874e-04
    3.4599987030e+01    3.2682099845e-04
    3.4700038910e+01    3.2898198697e-04
    3.4799896240e+01    3.3132900717e-04
    3.4899944305e+01    3.3388100564e-04
    3.5000022888e+01    3.3652299317e-04
    3.5099899292e+01    3.3961801091e-04
    3.5200019836e+01    3.4261200926e-04
    3.5299957275e+01    3.4552600118e-04
    3.5400020599e+01    3.4811001387e-04
    3.5499973297e+01    3.5058098729e-04
    3.5599994659e+01    3.5289800144e-04
    3.5699958801e+01    3.5576499067e-04
    3.5799915314e+01    3.5861000651e-04
    3.5899986267e+01    3.6150499363e-04
    3.6000007629e+01    3.6429800093e-04
    3.6099834442e+01    3.6732800072e-04
    3.6199829102e+01    3.7071399856e-04
    3.6299858093e+01    3.7450800301e-04
    3.6399887085e+01    3.7852500100e-04
    3.6499965668e+01    3.8250698708e-04
    3.6599861145e+01    3.8622700959e-04
    3.6699977875e+01    3.8949999725e-04
    3.6799884796e+01    3.9268401451e-04
    3.6899868011e+01    3.9501400897e-04
    3.7000000000e+01    3.9773699245e-04
    3.7099826813e+01    4.0071000694e-04
    3.7199993134e+01    4.0394000825e-04
    3.7299999237e+01    4.0651299059e-04
    3.7399833679e+01    4.0931798867e-04
    3.7499885559e+01    4.1204699664e-04
    3.7599887848e+01    4.1470400174e-04
    3.7699905396e+01    4.1782000335e-04
    3.7799926758e+01    4.2049700278e-04
    3.7899852753e+01    4.2331998702e-04
    3.7999881744e+01    4.2578700231e-04
    3.8099922180e+01    4.2882800335e-04
    3.8199855804e+01    4.3149001431e-04
    3.8299934387e+01    4.3460101006e-04
    3.8399871826e+01    4.3784899754e-04
    3.8499889374e+01    4.4156701188e-04
    3.8599884033e+01    4.4523901306e-04
    3.8699882507e+01    4.4858301408e-04
    3.8799812317e+01    4.5202800538e-04
    3.8899814606e+01    4.5483800932e-04
    3.8999797821e+01    4.5770400902e-04
    3.9099895477e+01    4.6034299885e-04
    3.9199844360e+01    4.6344101429e-04
    3.9299861908e+01    4.6608599951e-04
    3.9399944305e+01    4.6925400966e-04
    3.9499946594e+01    4.7234399244e-04
    3.9599903107e+01    4.7550900490e-04
    3.9699886322e+01    4.7870801063e-04
    3.9799957275e+01    4.8212098773e-04
    3.9899921417e+01    4.8571900697e-04
    3.9999809265e+01    4.8899801914e-04
    4.0099941254e+01    4.9252097961e-04
    4.0199787140e+01    4.9580802443e-04
    4.0299869537e+01    4.9923802726e-04
    4.0399929047e+01    5.0224899314e-04
    4.0499782562e+01    5.0601799740e-04
    4.0599948883e+01    5.0886499230e-04
    4.0699897766e+01    5.1255401922e-04
    4.0799831390e+01    5.1779701607e-04
    4.0899837494e+01    5.2247702843e-04
    4.0999752045e+01    5.2568298997e-04
    4.1099769592e+01    5.2794098156e-04
    4.1199775696e+01    5.3001102060e-04
    4.1299812317e+01    5.3133501206e-04
    4.1399841309e+01    5.3327297792e-04
    4.1499851227e+01    5.3500302602e-04
    4.1599895477e+01    5.3784000920e-04
    4.1699802399e+01    5.4041302064e-04
    4.1799865723e+01    5.4400198860e-04
    4.1899848938e+01    5.4726802045e-04
    4.1999832153e+01    5.5150297703e-04
    4.2099906921e+01    5.5601098575e-04
    4.2199810028e+01    5.6086102268e-04
    4.2299758911e+01    5.6555902120e-04
    4.2399814606e+01    5.6916498579e-04
    4.2499809265e+01    5.7349097915e-04
    4.2599796295e+01    5.7751097484e-04
    4.2699745178e+01    5.8180902852e-04
    4.2799892426e+01    5.8612402063e-04
    4.2899875641e+01    5.9148302535e-04
    4.2999862671e+01    5.9629598400e-04
    4.3099845886e+01    6.0117500834e-04
    4.3199832916e+01    6.0525600566e-04
    4.3299884796e+01    6.0876499629e-04
    4.3399837494e+01    6.1216502218e-04
    4.3499855042e+01    6.1525497586e-04
    4.3599899292e+01    6.1856600223e-04
    4.3699829102e+01    6.2156998320e-04
    4.3799827576e+01    6.2548602000e-04
    4.3899833679e+01    6.2934600282e-04
    4.3999832153e+01    6.3405797118e-04
    4.4099826813e+01    6.3830701401e-04
    4.4199737549e+01    6.4325897256e-04
    4.4299892426e+01    6.4834597288e-04
    4.4399868011e+01    6.5369997174e-04
    4.4499702454e+01    6.5860297764e-04
    4.4599742889e+01    6.6267297370e-04
    4.4699775696e+01    6.6656398121e-04
    4.4799800873e+01    6.7034299718e-04
    4.4899864197e+01    6.7470502108e-04
    4.4999713898e+01    6.7897100234e-04
    4.5099708557e+01    6.8397499854e-04
    4.5199810028e+01    6.8870902760e-04
    4.5299716949e+01    6.9327600067e-04
    4.5399738312e+01    6.9757702295e-04
    4.5499870300e+01    7.0155097637e-04
    4.5599754333e+01    7.0559902815e-04
    4.5699707031e+01    7.0998602314e-04
    4.5799831390e+01    7.1478902828e-04
    4.5899711609e+01    7.1913702413e-04
    4.5999748230e+01    7.2390399873e-04
    4.6099834442e+01    7.2860100772e-04
    4.6199802399e+01    7.3415902443e-04
    4.6299800873e+01    7.3998601874e-04
    4.6399692535e+01    7.4634200428e-04
    4.6499713898e+01    7.5252901297e-04
    4.6599819183e+01    7.5821101200e-04
    4.6699840546e+01    7.6331297169e-04
    4.6799701691e+01    7.6816498768e-04
    4.6899787903e+01    7.7236397192e-04
    4.6999794006e+01    7.7652098844e-04
    4.7099784851e+01    7.8152801143e-04
    4.7199695587e+01    7.8628998017e-04
    4.7299804688e+01    7.9069897765e-04
    4.7399776459e+01    7.9499499407e-04
    4.7499843597e+01    7.9954601824e-04
    4.7599708557e+01    8.0381601583e-04
    4.7699691772e+01    8.0866599455e-04
    4.7799755096e+01    8.1312202383e-04
    4.7899799347e+01    8.1751897233e-04
    4.7999759674e+01    8.2175101852e-04
    4.8099727631e+01    8.2616799045e-04
    4.8199680328e+01    8.3077698946e-04
    4.8299709320e+01    8.3543098299e-04
    4.8399784088e+01    8.4092898760e-04
    4.8499725342e+01    8.4651599173e-04
    4.8599765778e+01    8.5234898143e-04
    4.8699726105e+01    8.5736898473e-04
    4.8799701691e+01    8.6277001537e-04
    4.8899768829e+01    8.6735002697e-04
    4.8999675751e+01    8.7180797709e-04
    4.9099800110e+01    8.7636400713e-04
    4.9199691772e+01    8.8098499691e-04
    4.9299644470e+01    8.8557100389e-04
    4.9399677277e+01    8.9022802422e-04
    4.9499786377e+01    8.9550402481e-04
    4.9599704742e+01    9.0021599317e-04
    4.9699722290e+01    9.0561102843e-04
    4.9799629211e+01    9.1089098714e-04
    4.9899761200e+01    9.1658497695e-04
    4.9999683380e+01    9.2183501692e-04
    5.0099693298e+01    9.2727300944e-04
    5.0199775696e+01    9.3271600781e-04
    5.0299724579e+01    9.3786598882e-04
    5.0399742126e+01    9.4306102255e-04
    5.0499668121e+01    9.4863097183e-04
    5.0599678040e+01    9.5385697205e-04
    5.0699630737e+01    9.5935101854e-04
    5.0799720764e+01    9.6728600329e-04
    5.0899765015e+01    9.7406300483e-04
    5.0999656677e+01    9.7932002973e-04
    5.1099712372e+01    9.8326802254e-04
    5.1199718475e+01    9.8697096109e-04
    5.1299747467e+01    9.8989601247e-04
    5.1399620056e+01    9.9317298736e-04
    5.1499671936e+01    9.9672703072e-04
    5.1599685669e+01    1.0009800317e-03
    5.1699718475e+01    1.0056799510e-03
    5.1799606323e+01    1.0109699797e-03
    5.1899761200e+01    1.0165499989e-03
    5.1999633789e+01    1.0227699531e-03
    5.2099731445e+01    1.0297399713e-03
    5.2199714661e+01    1.0368400253e-03
    5.2299598694e+01    1.0437599849e-03
    5.2399673462e+01    1.0495500173e-03
    5.2499603271e+01    1.0559499497e-03
    5.2599750519e+01    1.0624399874e-03
    5.2699607849e+01    1.0687100003e-03
    5.2799686432e+01    1.0756100528e-03
    5.2899692535e+01    1.0829799576e-03
    5.2999664307e+01    1.0904499795e-03
    5.3099590302e+01    1.0974600445e-03
    5.3199596405e+01    1.1038800003e-03
    5.3299671173e+01    1.1092399945e-03
    5.3399654388e+01    1.1146599427e-03
    5.3499603271e+01    1.1196100386e-03
    5.3599712372e+01    1.1246399954e-03
    5.3699672699e+01    1.1297500459e-03
    5.3799583435e+01    1.1354599847e-03
    5.3899574280e+01    1.1416400084e-03
    5.3999687195e+01    1.1483200360e-03
    5.4099624634e+01    1.1551700300e-03
    5.4199634552e+01    1.1622200254e-03
    5.4299663544e+01    1.1698500020e-03
    5.4399547577e+01    1.1773699662e-03
    5.4499645233e+01    1.1846299749e-03
    5.4599685669e+01    1.1907999869e-03
    5.4699588776e+01    1.1966900202e-03
    5.4799594879e+01    1.2025999604e-03
    5.4899650574e+01    1.2087599607e-03
    5.4999568939e+01    1.2153099524e-03
    5.5099613190e+01    1.2222699588e-03
    5.5199722290e+01    1.2295099441e-03
    5.5299694061e+01    1.2358200038e-03
    5.5399608612e+01    1.2424100423e-03
    5.5499637604e+01    1.2481700396e-03
    5.5599674225e+01    1.2543000048e-03
    5.5699668884e+01    1.2607700191e-03
    5.5799541473e+01    1.2675599428e-03
    5.5899627686e+01    1.2741299579e-03
    5.5999656677e+01    1.2808099855e-03
    5.6099613190e+01    1.2879599817e-03
    5.6199653625e+01    1.2956199935e-03
    5.6299560547e+01    1.3043000363e-03
    5.6399532318e+01    1.3127999846e-03
    5.6499553680e+01    1.3217600062e-03
    5.6599662781e+01    1.3296400430e-03
    5.6699607849e+01    1.3371199602e-03
    5.6799545288e+01    1.3440699549e-03
    5.6899665833e+01    1.3503000373e-03
    5.6999614716e+01    1.3566099806e-03
    5.7099521637e+01    1.3636000222e-03
    5.7199523926e+01    1.3708299957e-03
    5.7299674988e+01    1.3770000078e-03
    5.7399566650e+01    1.3836900471e-03
    5.7499595642e+01    1.3899699552e-03
    5.7599620819e+01    1.3966599945e-03
    5.7699558258e+01    1.4034400228e-03
    5.7799518585e+01    1.4101200504e-03
    5.7899627686e+01    1.4164199820e-03
    5.7999576569e+01    1.4226200292e-03
    5.8099639893e+01    1.4292399865e-03
    5.8199581146e+01    1.4358200133e-03
    5.8299652100e+01    1.4429299626e-03
    5.8399593353e+01    1.4503899729e-03
    5.8499515533e+01    1.4586299658e-03
    5.8599624634e+01    1.4665400377e-03
    5.8699584961e+01    1.4741600025e-03
    5.8799510956e+01    1.4814999886e-03
    5.8899551392e+01    1.4884399716e-03
    5.8999591827e+01    1.4947300078e-03
    5.9099605560e+01    1.5014200471e-03
    5.9199497223e+01    1.5081500169e-03
    5.9299488068e+01    1.5147100203e-03
    5.9399654388e+01    1.5216900501e-03
    5.9499633789e+01    1.5288500581e-03
    5.9599586487e+01    1.5360000543e-03
    5.9699630737e+01    1.5433300287e-03
    5.9799552917e+01    1.5512000537e-03
    5.9899524689e+01    1.5588500537e-03
    5.9999519348e+01    1.5665900428e-03
    6.0099643707e+01    1.5740999952e-03
    6.0199581146e+01    1.5818700194e-03
    6.0299583435e+01    1.5892100055e-03
    6.0399501801e+01    1.5965499915e-03
    6.0499507904e+01    1.6046400415e-03
    6.0599502563e+01    1.6118399799e-03
    6.0699542999e+01    1.6198999947e-03
    6.0799564362e+01    1.6301800497e-03
    6.0899490356e+01    1.6397499712e-03
    6.0999588013e+01    1.6467500245e-03
    6.1099559784e+01    1.6528000124e-03
    6.1199512482e+01    1.6581499949e-03
    6.1299606323e+01    1.6628899612e-03
    6.1399570465e+01    1.6678799875e-03
    6.1499546051e+01    1.6731199576e-03
    6.1599517822e+01    1.6793799587e-03
    6.1699516296e+01    1.6857699957e-03
    6.1799499512e+01    1.6934700543e-03
    6.1899562836e+01    1.7009800067e-03
    6.1999618530e+01    1.7097099917e-03
    6.2099491119e+01    1.7187199555e-03
    6.2199600220e+01    1.7283799825e-03
    6.2299610138e+01    1.7375099706e-03
    6.2399501801e+01    1.7455399502e-03
    6.2499546051e+01    1.7540700501e-03
    6.2599575043e+01    1.7628100468e-03
    6.2699577332e+01    1.7713500420e-03
    6.2799491882e+01    1.7803800292e-03
    6.2899452209e+01    1.7903699772e-03
    6.2999519348e+01    1.7998999683e-03
    6.3099445343e+01    1.8092800165e-03
    6.3199558258e+01    1.8177500460e-03
    6.3299438477e+01    1.8253399758e-03
    6.3399513245e+01    1.8325400306e-03
    6.3499568939e+01    1.8395100487e-03
    6.3599418640e+01    1.8462600419e-03
    6.3699485779e+01    1.8533100374e-03
    6.3799503326e+01    1.8609999679e-03
    6.3899452209e+01    1.8692200538e-03
    6.3999488831e+01    1.8782699481e-03
    6.4099487305e+01    1.8871000502e-03
    6.4199447632e+01    1.8965300405e-03
    6.4299552917e+01    1.9062700449e-03
    6.4399536133e+01    1.9163299585e-03
    6.4499488831e+01    1.9257300301e-03
    6.4599418640e+01    1.9340999424e-03
    6.4699417114e+01    1.9418300362e-03
    6.4799423218e+01    1.9497099565e-03
    6.4899421692e+01    1.9579599611e-03
    6.4999542236e+01    1.9664799329e-03
    6.5099555969e+01    1.9756199326e-03
    6.5199523926e+01    1.9847399089e-03
    6.5299377441e+01    1.9932799041e-03
    6.5399513245e+01    2.0016999915e-03
    6.5499412537e+01    2.0096800290e-03
    6.5599411011e+01    2.0173999947e-03
    6.5699424744e+01    2.0259099547e-03
    6.5799400330e+01    2.0347600803e-03
    6.5899452209e+01    2.0433599129e-03
    6.5999427795e+01    2.0521199331e-03
    6.6099388123e+01    2.0612399094e-03
    6.6199417114e+01    2.0712700207e-03
    6.6299415588e+01    2.0821299404e-03
    6.6399398804e+01    2.0932999905e-03
    6.6499412537e+01    2.1044600289e-03
    6.6599380493e+01    2.1147299558e-03
    6.6699378967e+01    2.1242299117e-03
    6.6799461365e+01    2.1334399935e-03
    6.6899375916e+01    2.1415699739e-03
    6.6999488831e+01    2.1496899426e-03
    6.7099540710e+01    2.1587500814e-03
    6.7199363708e+01    2.1678199992e-03
    6.7299507141e+01    2.1759599913e-03
    6.7399497986e+01    2.1844101138e-03
    6.7499420166e+01    2.1927999333e-03
    6.7599533081e+01    2.2011699621e-03
    6.7699516296e+01    2.2100999486e-03
    6.7799362183e+01    2.2185200360e-03
    6.7899444580e+01    2.2267899476e-03
    6.7999511719e+01    2.2348200437e-03
    6.8099472046e+01    2.2434398998e-03
    6.8199531555e+01    2.2518599872e-03
    6.8299430847e+01    2.2608900908e-03
    6.8399414062e+01    2.2703900468e-03
    6.8499496460e+01    2.2807000205e-03
    6.8599418640e+01    2.2907000966e-03
    6.8699386597e+01    2.3002100643e-03
    6.8799392700e+01    2.3096399382e-03
    6.8899421692e+01    2.3183398880e-03
    6.8999366760e+01    2.3265099153e-03
    6.9099372864e+01    2.3348899558e-03
    6.9199440002e+01    2.3434099276e-03
    6.9299400330e+01    2.3514600471e-03
    6.9399444580e+01    2.3603399750e-03
    6.9499412537e+01    2.3694899864e-03
    6.9599327087e+01    2.3783599027e-03
    6.9699478149e+01    2.3875099141e-03
    6.9799331665e+01    2.3972000927e-03
    6.9899452209e+01    2.4069200736e-03
    6.9999389648e+01    2.4164700881e-03
    7.0099426270e+01    2.4260499049e-03
    7.0199493408e+01    2.4355999194e-03
    7.0299446106e+01    2.4448400363e-03
    7.0399475098e+01    2.4539299775e-03
    7.0499389648e+01    2.4638799950e-03
    7.0599334717e+01    2.4728800636e-03
    7.0699302673e+01    2.4828200694e-03
    7.0799377441e+01    2.4950900115e-03
    7.0899337769e+01    2.5063799694e-03
    7.0999313354e+01    2.5151600130e-03
    7.1099380493e+01    2.5228499435e-03
    7.1199310303e+01    2.5299401022e-03
    7.1299301147e+01    2.5362600572e-03
    7.1399375916e+01    2.5428798981e-03
    7.1499404907e+01    2.5498101022e-03
    7.1599403381e+01    2.5576699991e-03
    7.1699432373e+01    2.5657499209e-03
    7.1799438477e+01    2.5750200730e-03
    7.1899360657e+01    2.5842399336e-03
    7.1999351501e+01    2.5947298855e-03
    7.2099395752e+01    2.6056200732e-03
    7.2199386597e+01    2.6170099154e-03
    7.2299392700e+01    2.6278500445e-03
    7.2399284363e+01    2.6374200825e-03
    7.2499351501e+01    2.6476799976e-03
    7.2599441528e+01    2.6581299026e-03
    7.2699371338e+01    2.6683199685e-03
    7.2799301147e+01    2.6790900156e-03
    7.2899337769e+01    2.6907001156e-03
    7.2999397278e+01    2.7019400150e-03
    7.3099411011e+01    2.7131000534e-03
    7.3199302673e+01    2.7230998967e-03
    7.3299270630e+01    2.7322799433e-03
    7.3399269104e+01    2.7411500923e-03
    7.3499389648e+01    2.7496099938e-03
    7.3599426270e+01    2.7579700109e-03
    7.3699432373e+01    2.7665900998e-03
    7.3799377441e+01    2.7758600190e-03
    7.3899391174e+01    2.7855900116e-03
    7.3999351501e+01    2.7962399181e-03
    7.4099319458e+01    2.8068299871e-03
    7.4199348450e+01    2.8178500943e-03
    7.4299362183e+01    2.8292299248e-03
    7.4399276733e+01    2.8409298975e-03
    7.4499359131e+01    2.8519900516e-03
    7.4599411011e+01    2.8617400676e-03
    7.4699378967e+01    2.8710199986e-03
    7.4799385071e+01    2.8802899178e-03
    7.4899284363e+01    2.8900199104e-03
    7.4999252319e+01    2.8998199850e-03
    7.5099349976e+01    2.9105599970e-03
    7.5199287415e+01    2.9209998902e-03
    7.5299339294e+01    2.9309100937e-03
    7.5399238586e+01    2.9407199472e-03
    7.5499366760e+01    2.9499800876e-03
    7.5599395752e+01    2.9590900522e-03
    7.5699287415e+01    2.9689099174e-03
    7.5799400330e+01    2.9792799614e-03
    7.5899253845e+01    2.9889401048e-03
    7.5999336243e+01    2.9991199262e-03
    7.6099342346e+01    3.0095700640e-03
    7.6199371338e+01    3.0210600235e-03
    7.6299293518e+01    3.0333199538e-03
    7.6399307251e+01    3.0459701084e-03
    7.6499382019e+01    3.0585099012e-03
    7.6599235535e+01    3.0701400246e-03
    7.6699325562e+01    3.0809699092e-03
    7.6799224854e+01    3.0914200470e-03
    7.6899253845e+01    3.1008499209e-03
    7.6999343872e+01    3.1100800261e-03
    7.7099334717e+01    3.1204600818e-03
    7.7199234009e+01    3.1306599267e-03
    7.7299263000e+01    3.1400299631e-03
    7.7399253845e+01    3.1496300362e-03
    7.7499359131e+01    3.1593900640e-03
    7.7599250793e+01    3.1689500902e-03
    7.7699203491e+01    3.1791999936e-03
    7.7799331665e+01    3.1888799276e-03
    7.7899253845e+01    3.1982799992e-03
    7.7999282837e+01    3.2074500341e-03
    7.8099273682e+01    3.2171800267e-03
    7.8199310303e+01    3.2269100193e-03
    7.8299217224e+01    3.2369201072e-03
    7.8399223328e+01    3.2477800269e-03
    7.8499313354e+01    3.2590799965e-03
    7.8599311829e+01    3.2704500481e-03
    7.8699195862e+01    3.2809299883e-03
    7.8799255371e+01    3.2916399650e-03
    7.8899185181e+01    3.3013799693e-03
    7.8999282837e+01    3.3106200863e-03
    7.9099205017e+01    3.3200099133e-03
    7.9199302673e+01    3.3294700552e-03
    7.9299232483e+01    3.3386601135e-03
    7.9399223328e+01    3.3485200256e-03
    7.9499259949e+01    3.3587899525e-03
    7.9599235535e+01    3.3686300740e-03
    7.9699226379e+01    3.3790399320e-03
    7.9799232483e+01    3.3897100948e-03
    7.9899238586e+01    3.4005700145e-03
    7.9999221802e+01    3.4111898858e-03
    8.0099304199e+01    3.4217999782e-03
    8.0199310303e+01    3.4323099535e-03
    8.0299293518e+01    3.4426399507e-03
    8.0399322510e+01    3.4527399112e-03
    8.0499328613e+01    3.4636599012e-03
    8.0599273682e+01    3.4737898968e-03
    8.0699256897e+01    3.4846300259e-03
    8.0799240112e+01    3.4981500357e-03
    8.0899208069e+01    3.5104800481e-03
    8.0999267578e+01    3.5203499720e-03
    8.1099227905e+01    3.5288101062e-03
    8.1199195862e+01    3.5367698874e-03
    8.1299148560e+01    3.5438600462e-03
    8.1399139404e+01    3.5512500908e-03
    8.1499137878e+01    3.5589400213e-03
    8.1599281311e+01    3.5674900282e-03
    8.1699157715e+01    3.5763899796e-03
    8.1799186707e+01    3.5866100807e-03
    8.1899269104e+01    3.5967899021e-03
    8.1999237061e+01    3.6080400459e-03
    8.2099151611e+01    3.6198599264e-03
    8.2199302673e+01    3.6319999490e-03
    8.2299301147e+01    3.6438999232e-03
    8.2399291992e+01    3.6542399321e-03
    8.2499130249e+01    3.6652300041e-03
    8.2599143982e+01    3.6764100660e-03
    8.2699134827e+01    3.6873400677e-03
    8.2799156189e+01    3.6988600623e-03
    8.2899230957e+01    3.7111900747e-03
    8.2999198914e+01    3.7232399918e-03
    8.3099220276e+01    3.7350798957e-03
    8.3199157715e+01    3.7459400482e-03
    8.3299232483e+01    3.7555899471e-03
    8.3399177551e+01    3.7651099265e-03
    8.3499122620e+01    3.7740499247e-03
    8.3599105835e+01    3.7829799112e-03
    8.3699195862e+01    3.7921399344e-03
    8.3799148560e+01    3.8020398933e-03
    8.3899253845e+01    3.8123601116e-03
    8.3999259949e+01    3.8236700930e-03
    8.4099105835e+01    3.8348599337e-03
    8.4199127197e+01    3.8464700337e-03
    8.4299171448e+01    3.8585399743e-03
    8.4399276733e+01    3.8709200453e-03
    8.4499244690e+01    3.8826600648e-03
    8.4599136353e+01    3.8928398862e-03
    8.4699180603e+01    3.9025400765e-03
    8.4799186707e+01    3.9121699519e-03
    8.4899238586e+01    3.9225099608e-03
    8.4999252319e+01    3.9326199330e-03
    8.5099166870e+01    3.9438498206e-03
    8.5199203491e+01    3.9547700435e-03
    8.5299133301e+01    3.9651198313e-03
    8.5399215698e+01    3.9754197933e-03
    8.5499084473e+01    3.9850599132e-03
    8.5599105835e+01    3.9944900200e-03
    8.5699226379e+01    4.0046600625e-03
    8.5799163818e+01    4.0154899471e-03
    8.5899246216e+01    4.0255300701e-03
    8.5999076843e+01    4.0359999985e-03
    8.6099128723e+01    4.0466799401e-03
    8.6199073792e+01    4.0586199611e-03
    8.6299217224e+01    4.0712198243e-03
    8.6399215698e+01    4.0844301693e-03
    8.6499237061e+01    4.0972698480e-03
    8.6599082947e+01    4.1093002073e-03
    8.6699096680e+01    4.1204798035e-03
    8.6799194336e+01    4.1312100366e-03
    8.6899200439e+01    4.1409102269e-03
    8.6999214172e+01    4.1501601227e-03
    8.7099174500e+01    4.1608400643e-03
    8.7199073792e+01    4.1711898521e-03
    8.7299118042e+01    4.1809701361e-03
    8.7399047852e+01    4.1905501857e-03
    8.7499076843e+01    4.2006201111e-03
    8.7599090576e+01    4.2103999294e-03
    8.7699226379e+01    4.2209001258e-03
    8.7799179077e+01    4.2307199910e-03
    8.7899223328e+01    4.2402897961e-03
    8.7999160767e+01    4.2496798560e-03
    8.8099220276e+01    4.2594601400e-03
    8.8199180603e+01    4.2694299482e-03
    8.8299087524e+01    4.2794100009e-03
    8.8399131775e+01    4.2905099690e-03
    8.8499206543e+01    4.3019298464e-03
    8.8599098206e+01    4.3135900050e-03
    8.8699096680e+01    4.3241698295e-03
    8.8799209595e+01    4.3349601328e-03
    8.8899154663e+01    4.3447897770e-03
    8.8999183655e+01    4.3539698236e-03
    8.9099166870e+01    4.3633701280e-03
    8.9199157715e+01    4.3727098964e-03
    8.9299041748e+01    4.3819998391e-03
    8.9399047852e+01    4.3915701099e-03
    8.9499176025e+01    4.4020800851e-03
    8.9599075317e+01    4.4116699137e-03
    8.9699188232e+01    4.4222101569e-03
    8.9799171448e+01    4.4327401556e-03
    8.9899032593e+01    4.4436599128e-03
    8.9999038696e+01    4.4541899115e-03
    9.0099159241e+01    4.4647101313e-03
    9.0199005127e+01    4.4752201065e-03
    9.0299125671e+01    4.4852700084e-03
    9.0399063110e+01    4.4953799807e-03
    9.0499130249e+01    4.5060501434e-03
    9.0599159241e+01    4.5158998109e-03
    9.0699081421e+01    4.5264801010e-03
    9.0799171448e+01    4.5405901037e-03
    9.0899009705e+01    4.5530400239e-03
    9.0999168396e+01    4.5628501102e-03
    9.1099151611e+01    4.5706201345e-03
    9.1199073792e+01    4.5779198408e-03
    9.1299057007e+01    4.5841601677e-03
    9.1398994446e+01    4.5907502063e-03
    9.1499046326e+01    4.5976601541e-03
    9.1599113464e+01    4.6056797728e-03
    9.1699127197e+01    4.6141701750e-03
    9.1799171448e+01    4.6239900403e-03
    9.1899078369e+01    4.6338099055e-03
    9.1999114990e+01    4.6447399072e-03
    9.2099098206e+01    4.6565299854e-03
    9.2199127197e+01    4.6685901470e-03
    9.2299110413e+01    4.6804999001e-03
    9.2399101257e+01    4.6903798357e-03
    9.2499023438e+01    4.7009899281e-03
    9.2599098206e+01    4.7117699869e-03
    9.2699005127e+01    4.7223200090e-03
    9.2799041748e+01    4.7334400006e-03
    9.2899116516e+01    4.7455900349e-03
    9.2999008179e+01    4.7575901262e-03
    9.3099113464e+01    4.7692297958e-03
    9.3199012756e+01    4.7796498984e-03
    9.3299034119e+01    4.7885198146e-03
    9.3399032593e+01    4.7972300090e-03
    9.3499137878e+01    4.8054098152e-03
    9.3599136353e+01    4.8134801909e-03
    9.3699119568e+01    4.8218402080e-03
    9.3798965454e+01    4.8311301507e-03
    9.3899009705e+01    4.8407898284e-03
    9.3998992920e+01    4.8516099341e-03
    9.4099067688e+01    4.8622097820e-03
    9.4199058533e+01    4.8733497970e-03
    9.4298950195e+01    4.8849801533e-03
    9.4398979187e+01    4.8972200602e-03
    9.4499099731e+01    4.9085398205e-03
    9.4599098206e+01    4.9180299975e-03
    9.4699066162e+01    4.9269301817e-03
    9.4798995972e+01    4.9358098768e-03
    9.4898948669e+01    4.9453801475e-03
    9.4998939514e+01    4.9549099058e-03
    9.5099014282e+01    4.9656098709e-03
    9.5198974609e+01    4.9761300907e-03
    9.5298995972e+01    4.9858698621e-03
    9.5399063110e+01    4.9954801798e-03
    9.5499069214e+01    5.0043100491e-03
    9.5598960876e+01    5.0128200091e-03
    9.5698982239e+01    5.0223101862e-03
    9.5799026489e+01    5.0325100310e-03
    9.5899078369e+01    5.0418497995e-03
    9.5998947144e+01    5.0515402108e-03
    9.6098976135e+01    5.0615100190e-03
    9.6198974609e+01    5.0729499198e-03
    9.6299003601e+01    5.0852401182e-03
    9.6399070740e+01    5.0980700180e-03
    9.6498947144e+01    5.1106698811e-03
    9.6598953247e+01    5.1221600734e-03
    9.6698928833e+01    5.1327398978e-03
    9.6799049377e+01    5.1426901482e-03
    9.6898971558e+01    5.1513998769e-03
    9.6999076843e+01    5.1596402191e-03
    9.7098937988e+01    5.1695699804e-03
    9.7198974609e+01    5.1793297753e-03
    9.7298912048e+01    5.1880697720e-03
    9.7399055481e+01    5.1968400367e-03
    9.7499008179e+01    5.2058799192e-03
    9.7598922729e+01    5.2147200331e-03
    9.7698928833e+01    5.2242400125e-03
    9.7799018860e+01    5.2332398482e-03
    9.7899002075e+01    5.2417600527e-03
    9.7998908997e+01    5.2501298487e-03
    9.8098945618e+01    5.2589001134e-03
    9.8198989868e+01    5.2678398788e-03
    9.8298927307e+01    5.2769300528e-03
    9.8399032593e+01    5.2872197703e-03
    9.8498947144e+01    5.2979798056e-03
    9.8599029541e+01    5.3090797737e-03
    9.8698898315e+01    5.3188800812e-03
    9.8798881531e+01    5.3288098425e-03
    9.8899024963e+01    5.3376997821e-03
    9.8998886108e+01    5.3456001915e-03
    9.9098922729e+01    5.3539602086e-03
    9.9199020386e+01    5.3621497937e-03
    9.9299049377e+01    5.3705000319e-03
    9.9398948669e+01    5.3790197708e-03
    9.9498939514e+01    5.3885700181e-03
    9.9598899841e+01    5.3970301524e-03
    9.9698875427e+01    5.4065301083e-03
    9.9798973083e+01    5.4161502048e-03
    9.9898933411e+01    5.4261698388e-03
    9.9998931885e+01    5.4358099587e-03
    1.0009902954e+02    5.4453499615e-03
    1.0019895935e+02    5.4548499174e-03
    1.0029888916e+02    5.4637701251e-03
    1.0039891815e+02    5.4728700779e-03
    1.0049889374e+02    5.4824901745e-03
    1.0059890747e+02    5.4912199266e-03
    1.0069886017e+02    5.5009000935e-03
    1.0079886627e+02    5.5149700493e-03
    1.0089900970e+02    5.5267699063e-03
    1.0099894714e+02    5.5354698561e-03
    1.0109899139e+02    5.5416501127e-03
    1.0119901276e+02    5.5473498069e-03
    1.0129894257e+02    5.5518299341e-03
    1.0139893341e+02    5.5566797964e-03
    1.0149890137e+02    5.5618900806e-03
    1.0159886932e+02    5.5685001425e-03
    1.0169893646e+02    5.5757700466e-03
    1.0179895020e+02    5.5844602175e-03
    1.0189888000e+02    5.5930898525e-03
    1.0199893188e+02    5.6031402200e-03
    1.0209889221e+02    5.6142797694e-03
    1.0219882965e+02    5.6256898679e-03
    1.0229891968e+02    5.6369798258e-03
    1.0239894867e+02    5.6457198225e-03
    1.0249891663e+02    5.6553701870e-03
    1.0259889984e+02    5.6651500054e-03
    1.0269891357e+02    5.6747398339e-03
    1.0279884338e+02    5.6849801913e-03
    1.0289882660e+02    5.6965001859e-03
    1.0299896240e+02    5.7079298422e-03
    1.0309884644e+02    5.7187201455e-03
    1.0319883728e+02    5.7282298803e-03
    1.0329885864e+02    5.7358001359e-03
    1.0339890289e+02    5.7433298789e-03
    1.0349893188e+02    5.7499399409e-03
    1.0359889221e+02    5.7567497715e-03
    1.0369889832e+02    5.7637197897e-03
    1.0379881287e+02    5.7718800381e-03
    1.0389884186e+02    5.7804198004e-03
    1.0399883270e+02    5.7901698165e-03
    1.0409895325e+02    5.7998797856e-03
    1.0419892883e+02    5.8101001196e-03
    1.0429884338e+02    5.8212201111e-03
    1.0439891815e+02    5.8327200823e-03
    1.0449884796e+02    5.8432701044e-03
    1.0459883881e+02    5.8514499106e-03
    1.0469892883e+02    5.8593600988e-03
    1.0479882050e+02    5.8669098653e-03
    1.0489888000e+02    5.8754300699e-03
    1.0499884796e+02    5.8839600533e-03
    1.0509893036e+02    5.8937999420e-03
    1.0519892883e+02    5.9035099111e-03
    1.0529891205e+02    5.9122000821e-03
    1.0539888000e+02    5.9208101593e-03
    1.0549889374e+02    5.9282900766e-03
    1.0559893799e+02    5.9357201681e-03
    1.0569888306e+02    5.9440401383e-03
    1.0579888153e+02    5.9533501044e-03
    1.0589882660e+02    5.9614400379e-03
    1.0599890137e+02    5.9700598940e-03
    1.0609880829e+02    5.9790099040e-03
    1.0619891357e+02    5.9897000901e-03
    1.0629891968e+02    6.0015302151e-03
    1.0639891815e+02    6.0138697736e-03
    1.0649886322e+02    6.0263001360e-03
    1.0659889984e+02    6.0370499268e-03
    1.0669886780e+02    6.0469601303e-03
    1.0679878998e+02    6.0559101403e-03
    1.0689890289e+02    6.0634901747e-03
    1.0699884033e+02    6.0705500655e-03
    1.0709887695e+02    6.0796597973e-03
    1.0719886017e+02    6.0885199346e-03
    1.0729892731e+02    6.0961102135e-03
    1.0739888000e+02    6.1039398424e-03
    1.0749880981e+02    6.1117699370e-03
    1.0759884644e+02    6.1196498573e-03
    1.0769880676e+02    6.1282799579e-03
    1.0779876709e+02    6.1363698915e-03
    1.0789891052e+02    6.1438498087e-03
    1.0799880981e+02    6.1511299573e-03
    1.0809876251e+02    6.1588902026e-03
    1.0819879150e+02    6.1667901464e-03
    1.0829882812e+02    6.1750500463e-03
    1.0839884949e+02    6.1845798045e-03
    1.0849874878e+02    6.1949901283e-03
    1.0859873199e+02    6.2055601738e-03
    1.0869891357e+02    6.2148999423e-03
    1.0879885101e+02    6.2240199186e-03
    1.0889880371e+02    6.2320302241e-03
    1.0899874878e+02    6.2389601953e-03
    1.0909882355e+02    6.2463399954e-03
    1.0919873810e+02    6.2528499402e-03
    1.0929882050e+02    6.2588602304e-03
    1.0939888763e+02    6.2641701661e-03
    1.0949877930e+02    6.2695997767e-03
    1.0959877777e+02    6.2733101659e-03
    1.0969877625e+02    6.2769101933e-03
    1.0979876709e+02    6.2803397886e-03
    1.0989875793e+02    6.2825698406e-03
    1.0999880219e+02    6.2844101340e-03
    1.1009886169e+02    6.2849097885e-03
    1.1019870758e+02    6.2854201533e-03
    1.1029881287e+02    6.2848702073e-03
    1.1039881897e+02    6.2845698558e-03
    1.1049880981e+02    6.2850601971e-03
    1.1059874725e+02    6.2849200331e-03
    1.1069873810e+02    6.2865498476e-03
    1.1079885101e+02    6.2936102040e-03
    1.1089878082e+02    6.2988200225e-03
    1.1099881744e+02    6.3006998971e-03
    1.1109870911e+02    6.3003101386e-03
    1.1119877625e+02    6.2995399348e-03
    1.1129882050e+02    6.2976400368e-03
    1.1139884186e+02    6.2964400277e-03
    1.1149875641e+02    6.2954900786e-03
    1.1159871674e+02    6.2965401448e-03
    1.1169876862e+02    6.2974100001e-03
    1.1179882050e+02    6.3000400551e-03
    1.1189884186e+02    6.3016298227e-03
    1.1199886322e+02    6.3046398573e-03
    1.1209867859e+02    6.3079898246e-03
    1.1219873810e+02    6.3117300160e-03
    1.1229868317e+02    6.3145598397e-03
    1.1239874268e+02    6.3145300373e-03
    1.1249874115e+02    6.3152001239e-03
    1.1259877014e+02    6.3161901198e-03
    1.1269883728e+02    6.3170897774e-03
    1.1279879761e+02    6.3191200607e-03
    1.1289877319e+02    6.3233198598e-03
    1.1299874878e+02    6.3275299035e-03
    1.1309880829e+02    6.3318898901e-03
    1.1319882965e+02    6.3349599950e-03
    1.1329881287e+02    6.3367998227e-03
    1.1339878845e+02    6.3383202069e-03
    1.1349877930e+02    6.3397199847e-03
    1.1359870148e+02    6.3408901915e-03
    1.1369879150e+02    6.3427998684e-03
    1.1379875946e+02    6.3452301547e-03
    1.1389871216e+02    6.3478099182e-03
    1.1399874115e+02    6.3510099426e-03
    1.1409877014e+02    6.3528697938e-03
    1.1419879913e+02    6.3548400067e-03
    1.1429881287e+02    6.3563399017e-03
    1.1439880371e+02    6.3569699414e-03
    1.1449871063e+02    6.3542299904e-03
    1.1459874725e+02    6.3474499620e-03
    1.1469879913e+02    6.3374000601e-03
    1.1479876709e+02    6.3257799484e-03
    1.1489865112e+02    6.3126701862e-03
    1.1499873352e+02    6.2982500531e-03
    1.1509873962e+02    6.2832101248e-03
    1.1519866180e+02    6.2671001069e-03
    1.1529866028e+02    6.2483698130e-03
    1.1539875031e+02    6.2284898013e-03
    1.1549871063e+02    6.2073701993e-03
    1.1559868622e+02    6.1858198605e-03
    1.1569869232e+02    6.1664301902e-03
    1.1579863739e+02    6.1483001336e-03
    1.1589862823e+02    6.1306101270e-03
    1.1599868774e+02    6.1145098880e-03
    1.1609874725e+02    6.1009498313e-03
    1.1619870758e+02    6.0905502178e-03
    1.1629866028e+02    6.0835299082e-03
    1.1639874268e+02    6.0785799287e-03
    1.1649867249e+02    6.0752099380e-03
    1.1659861755e+02    6.0715698637e-03
    1.1669870758e+02    6.0677998699e-03
    1.1679865265e+02    6.0642100871e-03
    1.1689875031e+02    6.0591199435e-03
    1.1699867249e+02    6.0541601852e-03
    1.1709877014e+02    6.0507399030e-03
    1.1719859314e+02    6.0470700264e-03
    1.1729872131e+02    6.0403798707e-03
    1.1739877319e+02    6.0333199799e-03
    1.1749864197e+02    6.0242800973e-03
    1.1759870148e+02    6.0139298439e-03
    1.1769869995e+02    6.0026100837e-03
    1.1779873657e+02    5.9890998527e-03
    1.1789877319e+02    5.9728501365e-03
    1.1799870300e+02    5.9545398690e-03
    1.1809868622e+02    5.9355502017e-03
    1.1819867706e+02    5.9152399190e-03
    1.1829869080e+02    5.8949100785e-03
    1.1839862061e+02    5.8751800098e-03
    1.1849871826e+02    5.8570299298e-03
    1.1859860992e+02    5.8387001045e-03
    1.1869872284e+02    5.8204499073e-03
    1.1879862213e+02    5.8021498844e-03
    1.1889861298e+02    5.7838098146e-03
    1.1899871063e+02    5.7647498325e-03
    1.1909858704e+02    5.7471501641e-03
    1.1919867706e+02    5.7297600433e-03
    1.1929872131e+02    5.7125398889e-03
    1.1939861298e+02    5.6957597844e-03
    1.1949868774e+02    5.6790900417e-03
    1.1959864044e+02    5.6605199352e-03
    1.1969863129e+02    5.6415600702e-03
    1.1979869843e+02    5.6220199913e-03
    1.1989866638e+02    5.6013502181e-03
    1.1999858093e+02    5.5789500475e-03
    1.2009867859e+02    5.5549298413e-03
    1.2019856262e+02    5.5297100917e-03
    1.2029869843e+02    5.5031101219e-03
    1.2039855957e+02    5.4755602032e-03
    1.2049855804e+02    5.4494198412e-03
    1.2059868622e+02    5.4216100834e-03
    1.2069870758e+02    5.3965500556e-03
    1.2079866791e+02    5.3773601539e-03
    1.2089855194e+02    5.3570698947e-03
    1.2099855042e+02    5.3337002173e-03
    1.2109855652e+02    5.3093298338e-03
    1.2119862366e+02    5.2857799456e-03
    1.2129860687e+02    5.2622901276e-03
    1.2139871216e+02    5.2405400202e-03
    1.2149852753e+02    5.2199601196e-03
    1.2159870148e+02    5.2025499754e-03
    1.2169860077e+02    5.1851500757e-03
    1.2179860687e+02    5.1708300598e-03
    1.2189859009e+02    5.1548001356e-03
    1.2199865723e+02    5.1415702328e-03
    1.2209867859e+02    5.1277200691e-03
    1.2219856262e+02    5.1155998372e-03
    1.2229859161e+02    5.1008700393e-03
    1.2239865875e+02    5.0845798105e-03
    1.2249858856e+02    5.0676302053e-03
    1.2259868622e+02    5.0525600091e-03
    1.2269857788e+02    5.0356499851e-03
    1.2279862213e+02    5.0213700160e-03
    1.2289856720e+02    5.0078900531e-03
    1.2299864960e+02    4.9954899587e-03
    1.2309861755e+02    4.9819499254e-03
    1.2319857025e+02    4.9675297923e-03
    1.2329866791e+02    4.9508400261e-03
    1.2339864349e+02    4.9337297678e-03
    1.2349857330e+02    4.9160998315e-03
    1.2359851074e+02    4.8972498626e-03
    1.2369857788e+02    4.8790602013e-03
    1.2379863739e+02    4.8603601754e-03
    1.2389861298e+02    4.8426501453e-03
    1.2399857330e+02    4.8242001794e-03
    1.2409866333e+02    4.8061800189e-03
    1.2419859314e+02    4.7873398289e-03
    1.2429862976e+02    4.7702197917e-03
    1.2439855957e+02    4.7524902038e-03
    1.2449858093e+02    4.7341599129e-03
    1.2459860992e+02    4.7123897821e-03
    1.2469847870e+02    4.6912198886e-03
    1.2479860687e+02    4.6695601195e-03
    1.2489862823e+02    4.6501099132e-03
    1.2499848175e+02    4.6308799647e-03
    1.2509848785e+02    4.6142297797e-03
    1.2519853210e+02    4.5977900736e-03
    1.2529847717e+02    4.5808898285e-03
    1.2539849854e+02    4.5639402233e-03
    1.2549852753e+02    4.5466599986e-03
    1.2559858704e+02    4.5291101560e-03
    1.2569860840e+02    4.5130602084e-03
    1.2579850769e+02    4.4979900122e-03
    1.2589858246e+02    4.4812802225e-03
    1.2599852753e+02    4.4655599631e-03
    1.2609851837e+02    4.4498899952e-03
    1.2619860077e+02    4.4373800047e-03
    1.2629859924e+02    4.4259298593e-03
    1.2639849854e+02    4.4170101173e-03
    1.2649848175e+02    4.4073499739e-03
    1.2659853363e+02    4.3980102055e-03
    1.2669847870e+02    4.3867700733e-03
    1.2679846954e+02    4.3769301847e-03
    1.2689852905e+02    4.3644797988e-03
    1.2699861908e+02    4.3535199948e-03
    1.2709854126e+02    4.3442700990e-03
    1.2719860840e+02    4.3363901787e-03
    1.2729846954e+02    4.3257800862e-03
    1.2739855194e+02    4.3166098185e-03
    1.2749859619e+02    4.3062600307e-03
    1.2759858704e+02    4.2959298007e-03
    1.2769860077e+02    4.2854798958e-03
    1.2779853821e+02    4.2736199684e-03
    1.2789846802e+02    4.2601400055e-03
    1.2799845123e+02    4.2452202179e-03
    1.2809846497e+02    4.2307600379e-03
    1.2819851685e+02    4.2149899527e-03
    1.2829855347e+02    4.2001698166e-03
    1.2839849854e+02    4.1857901961e-03
    1.2849847412e+02    4.1737700813e-03
    1.2859855652e+02    4.1604600847e-03
    1.2869859314e+02    4.1479901411e-03
    1.2879861450e+02    4.1340799071e-03
    1.2889855957e+02    4.1208998300e-03
    1.2899859619e+02    4.1056498885e-03
    1.2909864807e+02    4.0928698145e-03
    1.2919850159e+02    4.0796501562e-03
    1.2929866028e+02    4.0678498335e-03
    1.2939849854e+02    4.0563000366e-03
    1.2949856567e+02    4.0469998494e-03
    1.2959854126e+02    4.0357601829e-03
    1.2969856262e+02    4.0264101699e-03
    1.2979859924e+02    4.0174601600e-03
    1.2989860535e+02    4.0090698749e-03
    1.2999867249e+02    3.9999699220e-03
    1.3009855652e+02    3.9910101332e-03
    1.3019866943e+02    3.9818598889e-03
    1.3029856873e+02    3.9723301306e-03
    1.3039860535e+02    3.9630001411e-03
    1.3049873352e+02    3.9554801770e-03
    1.3059861755e+02    3.9470200427e-03
    1.3069860840e+02    3.9408700541e-03
    1.3079870605e+02    3.9415499195e-03
    1.3089869690e+02    3.9394199848e-03
    1.3099877930e+02    3.9338101633e-03
    1.3109866333e+02    3.9247199893e-03
    1.3119879150e+02    3.9162100293e-03
    1.3129873657e+02    3.9048700128e-03
    1.3139869690e+02    3.8950399030e-03
    1.3149873352e+02    3.8838700857e-03
    1.3159877014e+02    3.8758299779e-03
    1.3169868469e+02    3.8658399135e-03
    1.3179873657e+02    3.8598100655e-03
    1.3189866638e+02    3.8509001024e-03
    1.3199873352e+02    3.8458900526e-03
    1.3209867859e+02    3.8404299412e-03
    1.3219885254e+02    3.8380799815e-03
    1.3229873657e+02    3.8342399057e-03
    1.3239875793e+02    3.8301700260e-03
    1.3249885559e+02    3.8271800149e-03
    1.3259869385e+02    3.8275299594e-03
    1.3269874573e+02    3.8280698936e-03
    1.3279879761e+02    3.8319500163e-03
    1.3289883423e+02    3.8390699774e-03
    1.3299884033e+02    3.8469899446e-03
    1.3309878540e+02    3.8558701053e-03
    1.3319885254e+02    3.8629800547e-03
    1.3329884338e+02    3.8696799893e-03
    1.3339892578e+02    3.8745400961e-03
    1.3349884033e+02    3.8806400262e-03
    1.3359878540e+02    3.8838000037e-03
    1.3369877625e+02    3.8890999276e-03
    1.3379888916e+02    3.8926301058e-03
    1.3389889526e+02    3.8977600634e-03
    1.3399887085e+02    3.9008199237e-03
    1.3409890747e+02    3.9048299659e-03
    1.3419897461e+02    3.9065899327e-03
    1.3429887390e+02    3.9098798297e-03
    1.3439880371e+02    3.9121201262e-03
    1.3449896240e+02    3.9130998775e-03
    1.3459886169e+02    3.9103799500e-03
    1.3469900513e+02    3.9075599052e-03
    1.3479890442e+02    3.9052900393e-03
    1.3489892578e+02    3.9047100581e-03
    1.3499890137e+02    3.9058199618e-03
    1.3509890747e+02    3.9091301151e-03
    1.3519891357e+02    3.9142798632e-03
    1.3529893494e+02    3.9179502055e-03
    1.3539889526e+02    3.9233299904e-03
    1.3549890137e+02    3.9270101115e-03
    1.3559887695e+02    3.9322501980e-03
    1.3569897461e+02    3.9373100735e-03
    1.3579901123e+02    3.9450200275e-03
    1.3589898682e+02    3.9495001547e-03
    1.3599890137e+02    3.9557297714e-03
    1.3609898376e+02    3.9610802196e-03
    1.3619894409e+02    3.9698500186e-03
    1.3629898071e+02    3.9786798880e-03
    1.3639910889e+02    3.9896601811e-03
    1.3649894714e+02    3.9992202073e-03
    1.3659907532e+02    4.0080100298e-03
    1.3669912720e+02    4.0149497800e-03
    1.3679899597e+02    4.0217097849e-03
    1.3689895630e+02    4.0268199518e-03
    1.3699903870e+02    4.0319100954e-03
    1.3709899902e+02    4.0406701155e-03
    1.3719905090e+02    4.0495600551e-03
    1.3729899597e+02    4.0584402159e-03
    1.3739915466e+02    4.0673399344e-03
    1.3749913025e+02    4.0783202276e-03
    1.3759915161e+02    4.0884898044e-03
    1.3769909668e+02    4.1012899019e-03
    1.3779910278e+02    4.1119800881e-03
    1.3789910889e+02    4.1234199889e-03
    1.3799906921e+02    4.1331001557e-03
    1.3809921265e+02    4.1448199190e-03
    1.3819921875e+02    4.1550598107e-03
    1.3829916382e+02    4.1665001772e-03
    1.3839907837e+02    4.1791000403e-03
    1.3849917603e+02    4.1929199360e-03
    1.3859916687e+02    4.2058401741e-03
    1.3869920349e+02    4.2178300209e-03
    1.3879908752e+02    4.2287800461e-03
    1.3889912415e+02    4.2374101467e-03
    1.3899908447e+02    4.2447899468e-03
    1.3909922791e+02    4.2514000088e-03
    1.3919911194e+02    4.2586801574e-03
    1.3929922485e+02    4.2645097710e-03
    1.3939927673e+02    4.2719598860e-03
    1.3949929810e+02    4.2786798440e-03
    1.3959913635e+02    4.2850398459e-03
    1.3969929504e+02    4.2912601493e-03
    1.3979917908e+02    4.2993999086e-03
    1.3989920044e+02    4.3063499033e-03
    1.3999916077e+02    4.3139602058e-03
    1.4009925842e+02    4.3210098520e-03
    1.4019923401e+02    4.3286299333e-03
    1.4029917908e+02    4.3356199749e-03
    1.4039918518e+02    4.3435199186e-03
    1.4049929810e+02    4.3536699377e-03
    1.4059925842e+02    4.3629100546e-03
    1.4069934082e+02    4.3758600950e-03
    1.4079927063e+02    4.3945698999e-03
    1.4089927673e+02    4.4110799208e-03
    1.4099934387e+02    4.4232602231e-03
    1.4109927368e+02    4.4336197898e-03
    1.4119932556e+02    4.4427700341e-03
    1.4129925537e+02    4.4506699778e-03
    1.4139933777e+02    4.4583701529e-03
    1.4149928284e+02    4.4665201567e-03
    1.4159936523e+02    4.4760201126e-03
    1.4169929504e+02    4.4853198342e-03
    1.4179933167e+02    4.4964198023e-03
    1.4189935303e+02    4.5064100996e-03
    1.4199931335e+02    4.5182597823e-03
    1.4209941101e+02    4.5306198299e-03
    1.4219935608e+02    4.5439200476e-03
    1.4229931641e+02    4.5559098944e-03
    1.4239945984e+02    4.5667500235e-03
    1.4249943542e+02    4.5789699070e-03
    1.4259944153e+02    4.5930198394e-03
    1.4269938660e+02    4.6072998084e-03
    1.4279943848e+02    4.6244198456e-03
    1.4289932251e+02    4.6443301253e-03
    1.4299949646e+02    4.6653100289e-03
    1.4309941101e+02    4.6865898184e-03
    1.4319949341e+02    4.7058798373e-03
    1.4329942322e+02    4.7242902219e-03
    1.4339950562e+02    4.7419802286e-03
    1.4349949646e+02    4.7598201782e-03
    1.4359938049e+02    4.7766100615e-03
    1.4369952393e+02    4.7949100845e-03
    1.4379948425e+02    4.8139598221e-03
    1.4389949036e+02    4.8333602026e-03
    1.4399946594e+02    4.8531298526e-03
    1.4409941101e+02    4.8723598011e-03
    1.4419946289e+02    4.8914100043e-03
    1.4429953003e+02    4.9104099162e-03
    1.4439956665e+02    4.9285199493e-03
    1.4449946594e+02    4.9429801293e-03
    1.4459945679e+02    4.9533699639e-03
    1.4469944763e+02    4.9619497731e-03
    1.4479957581e+02    4.9701100215e-03
    1.4489962769e+02    4.9776798114e-03
    1.4499945068e+02    4.9859997816e-03
    1.4509954834e+02    4.9960599281e-03
    1.4519961548e+02    5.0053298473e-03
    1.4529960632e+02    5.0142700784e-03
    1.4539959717e+02    5.0229597837e-03
    1.4549951172e+02    5.0315801054e-03
    1.4559948730e+02    5.0409999676e-03
    1.4569955444e+02    5.0526699051e-03
    1.4579965210e+02    5.0651598722e-03
    1.4589964294e+02    5.0780298188e-03
    1.4599964905e+02    5.0914599560e-03
    1.4609959412e+02    5.1072901115e-03
    1.4619966125e+02    5.1255198196e-03
    1.4629966736e+02    5.1464000717e-03
    1.4639953613e+02    5.1682498306e-03
    1.4649963379e+02    5.1904502325e-03
    1.4659959412e+02    5.2108298987e-03
    1.4669969177e+02    5.2304300480e-03
    1.4679971313e+02    5.2487901412e-03
    1.4689965820e+02    5.2657597698e-03
    1.4699966431e+02    5.2827801555e-03
    1.4709962463e+02    5.3018699400e-03
    1.4719961548e+02    5.3207599558e-03
    1.4729971313e+02    5.3381999023e-03
    1.4739970398e+02    5.3560598753e-03
    1.4749960327e+02    5.3728800267e-03
    1.4759959412e+02    5.3898701444e-03
    1.4769967651e+02    5.4064397700e-03
    1.4779972839e+02    5.4211900569e-03
    1.4789979553e+02    5.4341698997e-03
    1.4799966431e+02    5.4468400776e-03
    1.4809965515e+02    5.4586501792e-03
    1.4819970703e+02    5.4706297815e-03
    1.4829981995e+02    5.4825600237e-03
    1.4839965820e+02    5.4969401099e-03
    1.4849980164e+02    5.5116298608e-03
    1.4859980774e+02    5.5268900469e-03
    1.4869973755e+02    5.5415099487e-03
    1.4879968262e+02    5.5556301959e-03
    1.4889970398e+02    5.5683199316e-03
    1.4899977112e+02    5.5808401667e-03
    1.4909977722e+02    5.5936900899e-03
    1.4919973755e+02    5.6064599194e-03
    1.4929983521e+02    5.6204600260e-03
    1.4939976501e+02    5.6348098442e-03
    1.4949981689e+02    5.6493100710e-03
    1.4959986877e+02    5.6620999239e-03
    1.4969989014e+02    5.6765298359e-03
    1.4979981995e+02    5.6899897754e-03
    1.4989985657e+02    5.7035097852e-03
    1.4999977112e+02    5.7150498033e-03
    1.5009980774e+02    5.7264501229e-03
    1.5019978333e+02    5.7359100319e-03
    1.5029983521e+02    5.7453000918e-03
    1.5039993286e+02    5.7538300753e-03
    1.5049981689e+02    5.7644499466e-03
    1.5059982300e+02    5.7728202082e-03
    1.5069981384e+02    5.7849502191e-03
    1.5079986572e+02    5.8018700220e-03
    1.5089996338e+02    5.8159898035e-03
    1.5099995422e+02    5.8269700967e-03
    1.5109996033e+02    5.8361301199e-03
    1.5119987488e+02    5.8450098149e-03
    1.5129997253e+02    5.8522401378e-03
    1.5139984131e+02    5.8613200672e-03
    1.5149986267e+02    5.8698398061e-03
    1.5159991455e+02    5.8822501451e-03
    1.5169996643e+02    5.8937300928e-03
    1.5179989624e+02    5.9087597765e-03
    1.5189994812e+02    5.9217000380e-03
    1.5199995422e+02    5.9385201894e-03
    1.5209996033e+02    5.9538502246e-03
    1.5219998169e+02    5.9710401110e-03
    1.5229997253e+02    5.9858202003e-03
    1.5239997864e+02    5.9999898076e-03
    1.5249992371e+02    6.0142800212e-03
    1.5260000610e+02    6.0297697783e-03
    1.5269993591e+02    6.0450201854e-03
    1.5280009460e+02    6.0621798038e-03
    1.5289999390e+02    6.0820500366e-03
    1.5299998474e+02    6.1015901156e-03
    1.5309999084e+02    6.1216400936e-03
    1.5319996643e+02    6.1379298568e-03
    1.5330006409e+02    6.1553199776e-03
    1.5339997864e+02    6.1692302115e-03
    1.5350001526e+02    6.1841798015e-03
    1.5360005188e+02    6.1956900172e-03
    1.5370013428e+02    6.2102498487e-03
    1.5380017090e+02    6.2227500603e-03
    1.5390007019e+02    6.2369201332e-03
    1.5400004578e+02    6.2491898425e-03
    1.5410003662e+02    6.2623401172e-03
    1.5420008850e+02    6.2742098235e-03
    1.5430006409e+02    6.2872101553e-03
    1.5440019226e+02    6.2992000021e-03
    1.5450003052e+02    6.3081397675e-03
    1.5460011292e+02    6.3146799803e-03
    1.5470007324e+02    6.3202599995e-03
    1.5480012512e+02    6.3268099912e-03
    1.5490022278e+02    6.3324901275e-03
    1.5500024414e+02    6.3410801813e-03
    1.5510014343e+02    6.3504897989e-03
    1.5520019531e+02    6.3607799821e-03
    1.5530018616e+02    6.3695302233e-03
    1.5540008545e+02    6.3796602190e-03
    1.5550024414e+02    6.3872202300e-03
    1.5560023499e+02    6.3973302022e-03
    1.5570021057e+02    6.4067700878e-03
    1.5580010986e+02    6.4175301231e-03
    1.5590017700e+02    6.4264000393e-03
    1.5600024414e+02    6.4367698506e-03
    1.5610029602e+02    6.4470800571e-03
    1.5620025635e+02    6.4602098428e-03
    1.5630024719e+02    6.4737098292e-03
    1.5640020752e+02    6.4887697808e-03
    1.5650024414e+02    6.5026399679e-03
    1.5660021973e+02    6.5153199248e-03
    1.5670025635e+02    6.5268501639e-03
    1.5680030823e+02    6.5369601361e-03
    1.5690031433e+02    6.5464000218e-03
    1.5700024414e+02    6.5552801825e-03
    1.5710021973e+02    6.5668402240e-03
    1.5720030212e+02    6.5771299414e-03
    1.5730026245e+02    6.5881297924e-03
    1.5740025330e+02    6.5976800397e-03
    1.5750027466e+02    6.6081201658e-03
    1.5760028076e+02    6.6169202328e-03
    1.5770037842e+02    6.6274399869e-03
    1.5780035400e+02    6.6341999918e-03
    1.5790037537e+02    6.6412701271e-03
    1.5800024414e+02    6.6466899589e-03
    1.5810035706e+02    6.6523598507e-03
    1.5820031738e+02    6.6568898037e-03
    1.5830044556e+02    6.6621000879e-03
    1.5840039062e+02    6.6684898920e-03
    1.5850033569e+02    6.6747497767e-03
    1.5860043335e+02    6.6810902208e-03
    1.5870045471e+02    6.6860700026e-03
    1.5880041504e+02    6.6900798120e-03
    1.5890046692e+02    6.6913901828e-03
    1.5900047302e+02    6.6934102215e-03
    1.5910043335e+02    6.6938800737e-03
    1.5920048523e+02    6.6948900931e-03
    1.5930041504e+02    6.6960901022e-03
    1.5940039062e+02    6.6987299360e-03
    1.5950047302e+02    6.6995900124e-03
    1.5960043335e+02    6.7008999176e-03
    1.5970042419e+02    6.7025800236e-03
    1.5980044556e+02    6.7047597840e-03
    1.5990049744e+02    6.7061898299e-03
    1.6000050354e+02    6.7072901875e-03
    1.6010040283e+02    6.7079099827e-03
    1.6020037842e+02    6.7076901905e-03
    1.6030039978e+02    6.7076301202e-03
    1.6040049744e+02    6.7074801773e-03
    1.6050053406e+02    6.7095099948e-03
    1.6060058594e+02    6.7090601660e-03
    1.6070048523e+02    6.7133898847e-03
    1.6080049133e+02    6.7204399966e-03
    1.6090060425e+02    6.7254002206e-03
    1.6100056458e+02    6.7263701931e-03
    1.6110046387e+02    6.7259701900e-03
    1.6120057678e+02    6.7225298844e-03
    1.6130053711e+02    6.7186001688e-03
    1.6140049744e+02    6.7133698612e-03
    1.6150047302e+02    6.7082899623e-03
    1.6160058594e+02    6.7044300959e-03
    1.6170053101e+02    6.6996300593e-03
    1.6180052185e+02    6.6959299147e-03
    1.6190049744e+02    6.6902698018e-03
    1.6200065613e+02    6.6865799017e-03
    1.6210052490e+02    6.6816001199e-03
    1.6220053101e+02    6.6777598113e-03
    1.6230056763e+02    6.6719101742e-03
    1.6240063477e+02    6.6664200276e-03
    1.6250053406e+02    6.6612102091e-03
    1.6260067749e+02    6.6584399901e-03
    1.6270054626e+02    6.6554001532e-03
    1.6280070496e+02    6.6561601125e-03
    1.6290061951e+02    6.6585498862e-03
    1.6300067139e+02    6.6631902009e-03
    1.6310061646e+02    6.6663702019e-03
    1.6320060730e+02    6.6683199257e-03
    1.6330059814e+02    6.6689602099e-03
    1.6340063477e+02    6.6678598523e-03
    1.6350068665e+02    6.6646798514e-03
    1.6360063171e+02    6.6597699188e-03
    1.6370066833e+02    6.6540502012e-03
    1.6380072021e+02    6.6474000923e-03
    1.6390072632e+02    6.6392100416e-03
    1.6400071716e+02    6.6293100826e-03
    1.6410064697e+02    6.6182599403e-03
    1.6420063782e+02    6.6061899997e-03
    1.6430072021e+02    6.5943500958e-03
    1.6440071106e+02    6.5819201991e-03
    1.6450065613e+02    6.5668099560e-03
    1.6460070801e+02    6.5502701327e-03
    1.6470083618e+02    6.5342299640e-03
    1.6480068970e+02    6.5193800256e-03
    1.6490072632e+02    6.5058101900e-03
    1.6500082397e+02    6.4947297797e-03
    1.6510078430e+02    6.4863199368e-03
    1.6520083618e+02    6.4778397791e-03
    1.6530081177e+02    6.4696399495e-03
    1.6540074158e+02    6.4602401108e-03
    1.6550079346e+02    6.4502400346e-03
    1.6560081482e+02    6.4394799992e-03
    1.6570071411e+02    6.4281402156e-03
    1.6580085754e+02    6.4153298736e-03
    1.6590084839e+02    6.4011099748e-03
    1.6600079346e+02    6.3851601444e-03
    1.6610087585e+02    6.3696298748e-03
    1.6620080566e+02    6.3542299904e-03
    1.6630082703e+02    6.3391700387e-03
    1.6640077209e+02    6.3243699260e-03
    1.6650077820e+02    6.3081397675e-03
    1.6660089111e+02    6.2908600084e-03
    1.6670089722e+02    6.2726899050e-03
    1.6680081177e+02    6.2532201409e-03
    1.6690092468e+02    6.2338700518e-03
    1.6700082397e+02    6.2149697915e-03
    1.6710096741e+02    6.1983200721e-03
    1.6720083618e+02    6.1818598770e-03
    1.6730088806e+02    6.1659100465e-03
    1.6740093994e+02    6.1493101530e-03
    1.6750094604e+02    6.1332997866e-03
    1.6760084534e+02    6.1164000072e-03
    1.6770088196e+02    6.0996902175e-03
    1.6780085754e+02    6.0803000815e-03
    1.6790100098e+02    6.0607898049e-03
    1.6800091553e+02    6.0395901091e-03
    1.6810095215e+02    6.0174800456e-03
    1.6820097351e+02    5.9934197925e-03
    1.6830091858e+02    5.9718801640e-03
    1.6840100098e+02    5.9491498396e-03
    1.6850091553e+02    5.9264698066e-03
    1.6860095215e+02    5.9022097848e-03
    1.6870094299e+02    5.8778300881e-03
    1.6880099487e+02    5.8501199819e-03
    1.6890107727e+02    5.8215297759e-03
    1.6900109863e+02    5.7918201201e-03
    1.6910104370e+02    5.7611698285e-03
    1.6920100403e+02    5.7310401462e-03
    1.6930096436e+02    5.7016699575e-03
    1.6940095520e+02    5.6730001234e-03
    1.6950094604e+02    5.6431600824e-03
    1.6960098267e+02    5.6140199304e-03
    1.6970108032e+02    5.5858301930e-03
    1.6980099487e+02    5.5585000664e-03
    1.6990109253e+02    5.5302698165e-03
    1.7000100708e+02    5.5030500516e-03
    1.7010107422e+02    5.4746698588e-03
    1.7020101929e+02    5.4465201683e-03
    1.7030110168e+02    5.4174298421e-03
    1.7040118408e+02    5.3891600110e-03
    1.7050117493e+02    5.3609497845e-03
    1.7060102844e+02    5.3319698200e-03
    1.7070103455e+02    5.3046802059e-03
    1.7080108643e+02    5.2802800201e-03
    1.7090107727e+02    5.2521801554e-03
    1.7100103760e+02    5.2208900452e-03
    1.7110122681e+02    5.1862699911e-03
    1.7120114136e+02    5.1493700594e-03
    1.7130107117e+02    5.1103900187e-03
    1.7140122986e+02    5.0698299892e-03
    1.7150117493e+02    5.0299898721e-03
    1.7160116577e+02    4.9909199588e-03
    1.7170111084e+02    4.9513201229e-03
    1.7180110168e+02    4.9128299579e-03
    1.7190113831e+02    4.8738899641e-03
    1.7200114441e+02    4.8372698948e-03
    1.7210112000e+02    4.8007299192e-03
    1.7220124817e+02    4.7666500323e-03
    1.7230122375e+02    4.7317198478e-03
    1.7240118408e+02    4.6982099302e-03
    1.7250115967e+02    4.6660201624e-03
    1.7260125732e+02    4.6361000277e-03
    1.7270121765e+02    4.6055600978e-03
    1.7280128479e+02    4.5792898163e-03
    1.7290121460e+02    4.5535601676e-03
    1.7300120544e+02    4.5288498513e-03
    1.7310127258e+02    4.5014200732e-03
    1.7320126343e+02    4.4720098376e-03
    1.7330123901e+02    4.4390498661e-03
    1.7340136719e+02    4.4035199098e-03
    1.7350125122e+02    4.3646101840e-03
    1.7360122681e+02    4.3248198926e-03
    1.7370132446e+02    4.2824801058e-03
    1.7380130005e+02    4.2409198359e-03
    1.7390130615e+02    4.1966801509e-03
    1.7400138855e+02    4.1534998454e-03
    1.7410134888e+02    4.1087199934e-03
    1.7420135498e+02    4.0656197816e-03
    1.7430131531e+02    4.0233498439e-03
    1.7440138245e+02    3.9826598950e-03
    1.7450137329e+02    3.9402898401e-03
    1.7460137939e+02    3.8986098953e-03
    1.7470144653e+02    3.8574300706e-03
    1.7480131531e+02    3.8188199978e-03
    1.7490141296e+02    3.7812900264e-03
    1.7500131226e+02    3.7454098929e-03
    1.7510133362e+02    3.7114599254e-03
    1.7520135498e+02    3.6762999371e-03
    1.7530143738e+02    3.6402100231e-03
    1.7540148926e+02    3.6013300996e-03
    1.7550134277e+02    3.5613300279e-03
    1.7560150146e+02    3.5192300566e-03
    1.7570135498e+02    3.4764299635e-03
    1.7580134583e+02    3.4310200717e-03
    1.7590138245e+02    3.3852700144e-03
    1.7600149536e+02    3.3371199388e-03
    1.7610136414e+02    3.2914299518e-03
    1.7620141602e+02    3.2456500921e-03
    1.7630137634e+02    3.2026600093e-03
    1.7640150452e+02    3.1601400115e-03
    1.7650152588e+02    3.1193799805e-03
    1.7660145569e+02    3.0783300754e-03
    1.7670149231e+02    3.0385400169e-03
    1.7680145264e+02    2.9982300475e-03
    1.7690144348e+02    2.9597999528e-03
    1.7700144958e+02    2.9211901128e-03
    1.7710153198e+02    2.8854799457e-03
    1.7720158386e+02    2.8493599966e-03
    1.7730151367e+02    2.8137199115e-03
    1.7740153503e+02    2.7760299854e-03
    1.7750146484e+02    2.7384900022e-03
    1.7760145569e+02    2.6987299789e-03
    1.7770161438e+02    2.6579799596e-03
    1.7780151367e+02    2.6141400449e-03
    1.7790161133e+02    2.5700500701e-03
    1.7800149536e+02    2.5232399348e-03
    1.7810151672e+02    2.4758100044e-03
    1.7820158386e+02    2.4277099874e-03
    1.7830154419e+02    2.3801599164e-03
    1.7840161133e+02    2.3337400053e-03
    1.7850158691e+02    2.2876700386e-03
    1.7860151672e+02    2.2432499100e-03
    1.7870167542e+02    2.1986800712e-03
    1.7880162048e+02    2.1537600551e-03
    1.7890161133e+02    2.1087499335e-03
    1.7900164795e+02    2.0645300392e-03
    1.7910169983e+02    2.0198801067e-03
    1.7920173645e+02    1.9779400900e-03
    1.7930171204e+02    1.9360500155e-03
    1.7940173340e+02    1.8952999962e-03
    1.7950172424e+02    1.8535000272e-03
    1.7960163879e+02    1.8125800416e-03
    1.7970161438e+02    1.7717799637e-03
    1.7980163574e+02    1.7315699952e-03
    1.7990171814e+02    1.6898900503e-03
    1.8000169373e+02    1.6484999796e-03
    1.8010169983e+02    1.6055200249e-03
    1.8020170593e+02    1.5625699889e-03
    1.8030168152e+02    1.5182199422e-03
    1.8040162659e+02    1.4751399867e-03
    1.8050178528e+02    1.4323600335e-03
    1.8060171509e+02    1.3896300225e-03
    1.8070164490e+02    1.3486900134e-03
    1.8080169678e+02    1.3110899599e-03
    1.8090168762e+02    1.2713000178e-03
    1.8100175476e+02    1.2302099494e-03
    1.8110174561e+02    1.1868600268e-03
    1.8120179749e+02    1.1434099870e-03
    1.8130183411e+02    1.0982699459e-03
    1.8140180969e+02    1.0537100025e-03
    1.8150175476e+02    1.0096200276e-03
    1.8160176086e+02    9.6694502281e-04
    1.8170187378e+02    9.2428701464e-04
    1.8180172729e+02    8.8367902208e-04
    1.8190174866e+02    8.4228802007e-04
    1.8200172424e+02    8.0307997996e-04
    1.8210182190e+02    7.6394900680e-04
    1.8220178223e+02    7.2634901153e-04
    1.8230181885e+02    6.8763201125e-04
    1.8240179443e+02    6.4948201180e-04
    1.8250190735e+02    6.1258301139e-04
    1.8260176086e+02    5.7670101523e-04
    1.8270184326e+02    5.4058199748e-04
    1.8280178833e+02    5.0786900101e-04
    1.8290185547e+02    4.7630601330e-04
    1.8300178528e+02    4.4556899229e-04
    1.8310194397e+02    4.1362398770e-04
    1.8320190430e+02    3.8067300920e-04
    1.8330183411e+02    3.4636200871e-04
    1.8340191650e+02    3.1062899507e-04
    1.8350190735e+02    2.7429198963e-04
    1.8360188293e+02    2.3701500322e-04
    1.8370193481e+02    1.9998800417e-04
    1.8380186462e+02    1.6325700562e-04
    1.8390191650e+02    1.2676999904e-04
    1.8400201416e+02    9.0452696895e-05
    1.8410185242e+02    5.5226701079e-05
    1.8420190430e+02    2.0299599782e-05
    1.8430201721e+02   -1.2646100004e-05
    1.8440197754e+02   -4.5601100283e-05
    1.8450190735e+02   -7.9277502664e-05
    1.8460202026e+02   -1.1416999769e-04
    1.8470191956e+02   -1.4778399782e-04
    1.8480191040e+02   -1.8083199393e-04
    1.8490203857e+02   -2.1252399893e-04
    1.8500205994e+02   -2.4370300525e-04
    1.8510206604e+02   -2.7280498762e-04
    1.8520199585e+02   -3.0281199724e-04
    1.8530194092e+02   -3.3268998959e-04
    1.8540205383e+02   -3.6444098805e-04
    1.8550207520e+02   -3.9555301191e-04
    1.8560209656e+02   -4.2781699449e-04
    1.8570213318e+02   -4.5980801224e-04
    1.8580212402e+02   -4.9247202696e-04
    1.8590200806e+02   -5.2442302695e-04
    1.8600199890e+02   -5.5702298414e-04
    1.8610209656e+02   -5.8718299260e-04
    1.8620199585e+02   -6.1622698558e-04
    1.8630201721e+02   -6.4324401319e-04
    1.8640213013e+02   -6.6930899629e-04
    1.8650204468e+02   -6.9466297282e-04
    1.8660205078e+02   -7.2032999014e-04
    1.8670202637e+02   -7.4536801549e-04
    1.8680203247e+02   -7.7089102706e-04
    1.8690208435e+02   -7.9562998144e-04
    1.8700204468e+02   -8.1996398512e-04
    1.8710205078e+02   -8.4212399088e-04
    1.8720210266e+02   -8.6400099099e-04
    1.8730221558e+02   -8.8522298029e-04
    1.8740209961e+02   -9.0728601208e-04
    1.8750212097e+02   -9.2878099531e-04
    1.8760206604e+02   -9.5120299375e-04
    1.8770219421e+02   -9.7398599610e-04
    1.8780215454e+02   -9.9817605224e-04
    1.8790219116e+02   -1.0221400298e-03
    1.8800216675e+02   -1.0480199708e-03
    1.8810223389e+02   -1.0737599805e-03
    1.8820225525e+02   -1.0991899762e-03
    1.8830218506e+02   -1.1238600127e-03
    1.8840226746e+02   -1.1472200276e-03
    1.8850219727e+02   -1.1701500043e-03
    1.8860217285e+02   -1.1916100048e-03
    1.8870216370e+02   -1.2132299598e-03
    1.8880218506e+02   -1.2351600453e-03
    1.8890214539e+02   -1.2574900175e-03
    1.8900215149e+02   -1.2789500179e-03
    1.8910215759e+02   -1.3005799847e-03
    1.8920225525e+02   -1.3202199480e-03
    1.8930218506e+02   -1.3393999543e-03
    1.8940223694e+02   -1.3575799530e-03
    1.8950221252e+02   -1.3762599556e-03
    1.8960218811e+02   -1.3936499599e-03
    1.8970223999e+02   -1.4106599847e-03
    1.8980230713e+02   -1.4270599931e-03
    1.8990228271e+02   -1.4442000538e-03
    1.9000233459e+02   -1.4612500090e-03
    1.9010226440e+02   -1.4788999688e-03
    1.9020223999e+02   -1.4966300223e-03
    1.9030227661e+02   -1.5148799866e-03
    1.9040235901e+02   -1.5321599785e-03
    1.9050224304e+02   -1.5482000308e-03
    1.9060235596e+02   -1.5647800174e-03
    1.9070237732e+02   -1.5789299505e-03
    1.9080236816e+02   -1.5906300396e-03
    1.9090226746e+02   -1.6032099957e-03
    1.9100228882e+02   -1.6174400225e-03
    1.9110241699e+02   -1.6328500351e-03
    1.9120243835e+02   -1.6491899733e-03
    1.9130244446e+02   -1.6657999950e-03
    1.9140238953e+02   -1.6825100174e-03
    1.9150233459e+02   -1.6982400557e-03
    1.9160244751e+02   -1.7132300418e-03
    1.9170233154e+02   -1.7272699624e-03
    1.9180238342e+02   -1.7405099934e-03
    1.9190237427e+02   -1.7537999665e-03
    1.9200245667e+02   -1.7659500008e-03
    1.9210235596e+02   -1.7776000313e-03
    1.9220248413e+02   -1.7885100096e-03
    1.9230247498e+02   -1.7999999691e-03
    1.9240240479e+02   -1.8115499988e-03
    1.9250245667e+02   -1.8216000171e-03
    1.9260237122e+02   -1.8308099825e-03
    1.9270245361e+02   -1.8394100480e-03
    1.9280247498e+02   -1.8449700437e-03
    1.9290240479e+02   -1.8490599468e-03
    1.9300241089e+02   -1.8521699822e-03
    1.9310252380e+02   -1.8558000447e-03
    1.9320243835e+02   -1.8599700416e-03
    1.9330244446e+02   -1.8650699640e-03
    1.9340243530e+02   -1.8711800221e-03
    1.9350259399e+02   -1.8780600512e-03
    1.9360255432e+02   -1.8855800154e-03
    1.9370251465e+02   -1.8935400294e-03
    1.9380259705e+02   -1.9012199482e-03
    1.9390254211e+02   -1.9094600575e-03
    1.9400248718e+02   -1.9175800262e-03
    1.9410249329e+02   -1.9260300323e-03
    1.9420245361e+02   -1.9341999432e-03
    1.9430261230e+02   -1.9416400464e-03
    1.9440264893e+02   -1.9490600098e-03
[...]
    2.5130595398e+02   -1.0604400188e-02
    2.5140606689e+02   -1.0595900007e-02
    2.5150596619e+02   -1.0587500408e-02
    2.5160598755e+02   -1.0578899644e-02
    2.5170597839e+02   -1.0570400394e-02
    2.5180607605e+02   -1.0561300442e-02
    2.5190611267e+02   -1.0552500375e-02
    2.5200613403e+02   -1.0543599725e-02
    2.5210612488e+02   -1.0534700006e-02
    2.5220610046e+02   -1.0525899939e-02
    2.5230607605e+02   -1.0517500341e-02
    2.5240609741e+02   -1.0509800166e-02
    2.5250605774e+02   -1.0501599871e-02
    2.5260615540e+02   -1.0493500158e-02
    2.5270603943e+02   -1.0485599749e-02
    2.5280610657e+02   -1.0477700271e-02
    2.5290620422e+02   -1.0469299741e-02
    2.5300619507e+02   -1.0461299680e-02
    2.5310609436e+02   -1.0453199968e-02
    2.5320610046e+02   -1.0445499793e-02
    2.5330616760e+02   -1.0437999852e-02
    2.5340623474e+02   -1.0430599563e-02
    2.5350616455e+02   -1.0423500091e-02
    2.5360612488e+02   -1.0416399688e-02
    2.5370620728e+02   -1.0409399867e-02
    2.5380616760e+02   -1.0401999578e-02
    2.5390620422e+02   -1.0394699872e-02
    2.5400616455e+02   -1.0386999696e-02
    2.5410627747e+02   -1.0379600339e-02
    2.5420620728e+02   -1.0371699929e-02
    2.5430621338e+02   -1.0364100337e-02
    2.5440629578e+02   -1.0356499813e-02
    2.5450621033e+02   -1.0349200107e-02
    2.5460627747e+02   -1.0342299938e-02
    2.5470625305e+02   -1.0335399769e-02
    2.5480618286e+02   -1.0328699835e-02
    2.5490620422e+02   -1.0321900249e-02
    2.5500628662e+02   -1.0315200314e-02
    2.5510633850e+02   -1.0308099911e-02
    2.5520620728e+02   -1.0301399976e-02
    2.5530636597e+02   -1.0294900276e-02
    2.5540626526e+02   -1.0288399644e-02
    2.5550633240e+02   -1.0282100178e-02
    2.5560621643e+02   -1.0276099667e-02
    2.5570634460e+02   -1.0270199738e-02
    2.5580627441e+02   -1.0264200158e-02
    2.5590638733e+02   -1.0258600116e-02
    2.5600625610e+02   -1.0252799839e-02
    2.5610635376e+02   -1.0247100145e-02
    2.5620623779e+02   -1.0240999982e-02
    2.5630630493e+02   -1.0235100053e-02
    2.5640640259e+02   -1.0228900239e-02
    2.5650637817e+02   -1.0223099962e-02
    2.5660641479e+02   -1.0217499919e-02
    2.5670635986e+02   -1.0212199762e-02
    2.5680627441e+02   -1.0207099840e-02
    2.5690640259e+02   -1.0202299803e-02
    2.5700634766e+02   -1.0197799653e-02
    2.5710638428e+02   -1.0192999616e-02
    2.5720635986e+02   -1.0188600048e-02
    2.5730630493e+02   -1.0184199549e-02
    2.5740634155e+02   -1.0179700330e-02
    2.5750640869e+02   -1.0175299831e-02
    2.5760638428e+02   -1.0170999914e-02
    2.5770632935e+02   -1.0166699998e-02
    2.5780648804e+02   -1.0162600316e-02
    2.5790649414e+02   -1.0158799589e-02
    2.5800650024e+02   -1.0154999793e-02
    2.5810647583e+02   -1.0151299648e-02
    2.5820651245e+02   -1.0147499852e-02
    2.5830654907e+02   -1.0143900290e-02
    2.5840640259e+02   -1.0140099563e-02
    2.5850650024e+02   -1.0136400349e-02
    2.5860641479e+02   -1.0132799856e-02
    2.5870645142e+02   -1.0129299946e-02
    2.5880648804e+02   -1.0126000270e-02
    2.5890655518e+02   -1.0123100132e-02
    2.5900646973e+02   -1.0120499879e-02
    2.5910650635e+02   -1.0118000209e-02
    2.5920654297e+02   -1.0115600191e-02
    2.5930651855e+02   -1.0113299824e-02
    2.5940652466e+02   -1.0110800155e-02
    2.5950643921e+02   -1.0108400136e-02
    2.5960650635e+02   -1.0106099769e-02
    2.5970648193e+02   -1.0103600100e-02
    2.5980651855e+02   -1.0101100430e-02
    2.5990649414e+02   -1.0099000297e-02
    2.6000656128e+02   -1.0096799582e-02
    2.6010650635e+02   -1.0094800033e-02
    2.6020654297e+02   -1.0092900135e-02
    2.6030661011e+02   -1.0091199540e-02
    2.6040649414e+02   -1.0089600459e-02
    2.6050668335e+02   -1.0087800212e-02
    2.6060650635e+02   -1.0086200200e-02
    2.6070657349e+02   -1.0084499605e-02
    2.6080657959e+02   -1.0082599707e-02
    2.6090652466e+02   -1.0080900043e-02
    2.6100653076e+02   -1.0079699568e-02
    2.6110650635e+02   -1.0078500025e-02
    2.6120672607e+02   -1.0077400133e-02
    2.6130654907e+02   -1.0076600127e-02
    2.6140658569e+02   -1.0075699538e-02
    2.6150656128e+02   -1.0074900463e-02
    2.6160659790e+02   -1.0074100457e-02
    2.6170663452e+02   -1.0073199868e-02
    2.6180664062e+02   -1.0072199628e-02
    2.6190667725e+02   -1.0071299970e-02
    2.6200668335e+02   -1.0070400313e-02
    2.6210662842e+02   -1.0069400072e-02
    2.6220663452e+02   -1.0068500414e-02
    2.6230664062e+02   -1.0067899711e-02
    2.6240667725e+02   -1.0067500174e-02
    2.6250662231e+02   -1.0067000054e-02
    2.6260671997e+02   -1.0066700168e-02
    2.6270663452e+02   -1.0066400282e-02
    2.6280673218e+02   -1.0066100396e-02
    2.6290664673e+02   -1.0065799579e-02
    2.6300683594e+02   -1.0065600276e-02
    2.6310665894e+02   -1.0065499693e-02
    2.6320678711e+02   -1.0065499693e-02
    2.6330679321e+02   -1.0065900162e-02
    2.6340682983e+02   -1.0066400282e-02
    2.6350677490e+02   -1.0067200288e-02
    2.6360687256e+02   -1.0068000294e-02
    2.6370684814e+02   -1.0068899952e-02
    2.6380685425e+02   -1.0069799609e-02
    2.6390673828e+02   -1.0070799850e-02
    2.6400677490e+02   -1.0071599856e-02
    2.6410671997e+02   -1.0072500445e-02
    2.6420687866e+02   -1.0073400103e-02
    2.6430682373e+02   -1.0074299760e-02
    2.6440676880e+02   -1.0075300001e-02
    2.6450686646e+02   -1.0076499544e-02
    2.6460687256e+02   -1.0078099556e-02
    2.6470687866e+02   -1.0079699568e-02
    2.6480685425e+02   -1.0081700049e-02
    2.6490686035e+02   -1.0083500296e-02
    2.6500689697e+02   -1.0085499845e-02
    2.6510687256e+02   -1.0087399743e-02
    2.6520681763e+02   -1.0089600459e-02
    2.6530691528e+02   -1.0091999546e-02
    2.6540682983e+02   -1.0094299912e-02
    2.6550686646e+02   -1.0096900165e-02
    2.6560699463e+02   -1.0099500418e-02
    2.6570693970e+02   -1.0102200322e-02
    2.6580685425e+02   -1.0104999878e-02
    2.6590698242e+02   -1.0108199902e-02
    2.6600698853e+02   -1.0111199692e-02
    2.6610690308e+02   -1.0114300065e-02
    2.6620697021e+02   -1.0117299855e-02
    2.6630700684e+02   -1.0120299645e-02
    2.6640689087e+02   -1.0123499669e-02
    2.6650695801e+02   -1.0126800276e-02
    2.6660702515e+02   -1.0130399838e-02
    2.6670687866e+02   -1.0134099983e-02
    2.6680700684e+02   -1.0138100013e-02
    2.6690692139e+02   -1.0142300278e-02
    2.6700698853e+02   -1.0146699846e-02
    2.6710699463e+02   -1.0150900111e-02
    2.6720693970e+02   -1.0155299678e-02
    2.6730691528e+02   -1.0159799829e-02
    2.6740704346e+02   -1.0164299980e-02
    2.6750692749e+02   -1.0168699548e-02
    2.6760702515e+02   -1.0173300281e-02
    2.6770706177e+02   -1.0177900083e-02
    2.6780703735e+02   -1.0182700120e-02
    2.6790695190e+02   -1.0187599808e-02
    2.6800711060e+02   -1.0192500427e-02
    2.6810705566e+02   -1.0197499767e-02
    2.6820709229e+02   -1.0202599689e-02
    2.6830703735e+02   -1.0207899846e-02
    2.6840704346e+02   -1.0212900117e-02
    2.6850704956e+02   -1.0218000039e-02
    2.6860699463e+02   -1.0223199613e-02
    2.6870715332e+02   -1.0228600353e-02
    2.6880706787e+02   -1.0234099813e-02
    2.6890704346e+02   -1.0239699855e-02
    2.6900701904e+02   -1.0245500132e-02
    2.6910717773e+02   -1.0251400061e-02
    2.6920703125e+02   -1.0257500224e-02
    2.6930712891e+02   -1.0263600387e-02
    2.6940713501e+02   -1.0269800201e-02
    2.6950717163e+02   -1.0275799781e-02
    2.6960714722e+02   -1.0281999595e-02
    2.6970715332e+02   -1.0288200341e-02
    2.6980706787e+02   -1.0294400156e-02
    2.6990716553e+02   -1.0300599970e-02
    2.7000717163e+02   -1.0307099670e-02
    2.7010708618e+02   -1.0313600302e-02
    2.7020715332e+02   -1.0320199654e-02
    2.7030725098e+02   -1.0327000171e-02
    2.7040713501e+02   -1.0333700106e-02
    2.7050726318e+02   -1.0340699926e-02
    2.7060717773e+02   -1.0347300209e-02
    2.7070715332e+02   -1.0354300030e-02
    2.7080731201e+02   -1.0361500084e-02
    2.7090728760e+02   -1.0369099677e-02
    2.7100726318e+02   -1.0376299731e-02
    2.7110723877e+02   -1.0383600369e-02
    2.7120721436e+02   -1.0390900075e-02
    2.7130715942e+02   -1.0398199782e-02
    2.7140716553e+02   -1.0405899957e-02
    2.7150723267e+02   -1.0413399898e-02
    2.7160726929e+02   -1.0421499610e-02
    2.7170730591e+02   -1.0429300368e-02
    2.7180734253e+02   -1.0437600315e-02
    2.7190734863e+02   -1.0445499793e-02
    2.7200726318e+02   -1.0453900322e-02
    2.7210733032e+02   -1.0462200269e-02
    2.7220724487e+02   -1.0470899753e-02
    2.7230737305e+02   -1.0479699820e-02
    2.7240734863e+02   -1.0488400236e-02
    2.7250735474e+02   -1.0497399606e-02
    2.7260733032e+02   -1.0506199673e-02
    2.7270727539e+02   -1.0515400209e-02
    2.7280743408e+02   -1.0524399579e-02
    2.7290740967e+02   -1.0534100235e-02
    2.7300726318e+02   -1.0543500073e-02
    2.7310729980e+02   -1.0553300381e-02
    2.7320730591e+02   -1.0563000105e-02
    2.7330728149e+02   -1.0572600178e-02
    2.7340744019e+02   -1.0582399555e-02
    2.7350732422e+02   -1.0592300445e-02
    2.7360736084e+02   -1.0602500290e-02
    2.7370733643e+02   -1.0612599552e-02
    2.7380737305e+02   -1.0623100214e-02
    2.7390734863e+02   -1.0633399710e-02
    2.7400744629e+02   -1.0644099675e-02
    2.7410745239e+02   -1.0654499754e-02
    2.7420742798e+02   -1.0665300302e-02
    2.7430743408e+02   -1.0676199570e-02
    2.7440750122e+02   -1.0687300004e-02
    2.7450741577e+02   -1.0698400438e-02
    2.7460754395e+02   -1.0709599592e-02
    2.7470755005e+02   -1.0720900260e-02
    2.7480752563e+02   -1.0732199997e-02
    2.7490750122e+02   -1.0743799619e-02
    2.7500738525e+02   -1.0755199939e-02
    2.7510754395e+02   -1.0767100379e-02
    2.7520739746e+02   -1.0778900236e-02
    2.7530749512e+02   -1.0790900327e-02
    2.7540753174e+02   -1.0802700184e-02
    2.7550747681e+02   -1.0814700276e-02
    2.7560745239e+02   -1.0826599784e-02
    2.7570751953e+02   -1.0839000344e-02
    2.7580758667e+02   -1.0851300322e-02
    2.7590750122e+02   -1.0863699950e-02
    2.7600759888e+02   -1.0876299813e-02
    2.7610748291e+02   -1.0888800025e-02
    2.7620758057e+02   -1.0901600122e-02
    2.7630749512e+02   -1.0914199986e-02
    2.7640759277e+02   -1.0927299969e-02
    2.7650750732e+02   -1.0940100066e-02
    2.7660757446e+02   -1.0953400284e-02
    2.7670764160e+02   -1.0966300033e-02
    2.7680764771e+02   -1.0979499668e-02
    2.7690750122e+02   -1.0992500000e-02
    2.7700765991e+02   -1.1005699635e-02
    2.7710763550e+02   -1.1018999852e-02
    2.7720761108e+02   -1.1032399721e-02
    2.7730755615e+02   -1.1045900173e-02
    2.7740759277e+02   -1.1059099808e-02
    2.7750759888e+02   -1.1072699912e-02
    2.7760757446e+02   -1.1085899547e-02
    2.7770761108e+02   -1.1099699885e-02
    2.7780755615e+02   -1.1113200337e-02
    2.7790768433e+02   -1.1126999743e-02
    2.7800772095e+02   -1.1140800081e-02
    2.7810757446e+02   -1.1154700071e-02
    2.7820761108e+02   -1.1168600060e-02
    2.7830770874e+02   -1.1182500049e-02
    2.7840765381e+02   -1.1196600273e-02
    2.7850775146e+02   -1.1210899800e-02
    2.7860775757e+02   -1.1225299910e-02
    2.7870761108e+02   -1.1239600368e-02
    2.7880776978e+02   -1.1254100129e-02
    2.7890774536e+02   -1.1268399656e-02
    2.7900778198e+02   -1.1283000000e-02
    2.7910778809e+02   -1.1297499761e-02
    2.7920767212e+02   -1.1312199757e-02
    2.7930770874e+02   -1.1327000335e-02
    2.7940774536e+02   -1.1342000216e-02
    2.7950775146e+02   -1.1356900446e-02
    2.7960775757e+02   -1.1371900328e-02
    2.7970770264e+02   -1.1386999860e-02
    2.7980780029e+02   -1.1401999742e-02
    2.7990771484e+02   -1.1417300440e-02
    2.8000775146e+02   -1.1432600208e-02
    2.8010769653e+02   -1.1448199861e-02
    2.8020770264e+02   -1.1463600211e-02
    2.8030786133e+02   -1.1479199864e-02
    2.8040780640e+02   -1.1494699866e-02
    2.8050772095e+02   -1.1510600336e-02
    2.8060772705e+02   -1.1525999755e-02
    2.8070779419e+02   -1.1541999876e-02
    2.8080783081e+02   -1.1558800004e-02
    2.8090774536e+02   -1.1575300246e-02
    2.8100775146e+02   -1.1591400020e-02
    2.8110781860e+02   -1.1607199907e-02
    2.8120785522e+02   -1.1622999795e-02
    2.8130795288e+02   -1.1638499796e-02
    2.8140792847e+02   -1.1654400267e-02
    2.8150793457e+02   -1.1670299806e-02
    2.8160787964e+02   -1.1686800048e-02
    2.8170779419e+02   -1.1703199707e-02
    2.8180786133e+02   -1.1720100418e-02
    2.8190789795e+02   -1.1736599728e-02
    2.8200784302e+02   -1.1753600091e-02
    2.8210781860e+02   -1.1771099642e-02
    2.8220782471e+02   -1.1788600124e-02
    2.8230786133e+02   -1.1806299910e-02
    2.8240798950e+02   -1.1823499575e-02
    2.8250793457e+02   -1.1841200292e-02
    2.8260784912e+02   -1.1858499609e-02
    2.8270785522e+02   -1.1876200326e-02
    2.8280792236e+02   -1.1893999763e-02
    2.8290798950e+02   -1.1912199669e-02
    2.8300796509e+02   -1.1930299923e-02
    2.8310787964e+02   -1.1948400177e-02
    2.8320797729e+02   -1.1966300197e-02
    2.8330792236e+02   -1.1983900331e-02
    2.8340792847e+02   -1.2001500465e-02
    2.8350796509e+02   -1.2019099668e-02
    2.8360797119e+02   -1.2036999688e-02
    2.8370797729e+02   -1.2054500170e-02
    2.8380795288e+02   -1.2072499841e-02
    2.8390792847e+02   -1.2090500444e-02
    2.8400802612e+02   -1.2108899653e-02
    2.8410809326e+02   -1.2126999907e-02
    2.8420812988e+02   -1.2145499699e-02
    2.8430807495e+02   -1.2164100073e-02
    2.8440808105e+02   -1.2182899751e-02
    2.8450802612e+02   -1.2201500125e-02
    2.8460812378e+02   -1.2219999917e-02
    2.8470797729e+02   -1.2238199823e-02
    2.8480807495e+02   -1.2256599963e-02
    2.8490814209e+02   -1.2275099754e-02
    2.8500811768e+02   -1.2293799780e-02
    2.8510803223e+02   -1.2312600389e-02
    2.8520809937e+02   -1.2331499718e-02
    2.8530807495e+02   -1.2350300327e-02
    2.8540817261e+02   -1.2368899770e-02
    2.8550814819e+02   -1.2387500145e-02
    2.8560815430e+02   -1.2405999936e-02
    2.8570816040e+02   -1.2424900196e-02
    2.8580804443e+02   -1.2443699874e-02
    2.8590805054e+02   -1.2462600134e-02
    2.8600820923e+02   -1.2481500395e-02
    2.8610821533e+02   -1.2500500306e-02
    2.8620812988e+02   -1.2519700453e-02
    2.8630807495e+02   -1.2539000250e-02
    2.8640817261e+02   -1.2558899820e-02
    2.8650823975e+02   -1.2578300200e-02
    2.8660809326e+02   -1.2597899884e-02
    2.8670825195e+02   -1.2617199682e-02
    2.8680813599e+02   -1.2636399828e-02
    2.8690820312e+02   -1.2655099854e-02
    2.8700814819e+02   -1.2674099766e-02
    2.8710818481e+02   -1.2693399563e-02
    2.8720816040e+02   -1.2712599710e-02
    2.8730822754e+02   -1.2731700204e-02
    2.8740814209e+02   -1.2750700116e-02
    2.8750814819e+02   -1.2769799680e-02
    2.8760815430e+02   -1.2788699940e-02
    2.8770819092e+02   -1.2807999738e-02
    2.8780831909e+02   -1.2827199884e-02
    2.8790829468e+02   -1.2846400030e-02
    2.8800833130e+02   -1.2865399942e-02
    2.8810821533e+02   -1.2884699740e-02
    2.8820828247e+02   -1.2903999537e-02
    2.8830828857e+02   -1.2923199683e-02
    2.8840823364e+02   -1.2942800298e-02
    2.8850830078e+02   -1.2962699868e-02
    2.8860833740e+02   -1.2982700020e-02
    2.8870831299e+02   -1.3002200052e-02
    2.8880828857e+02   -1.3022099622e-02
    2.8890832520e+02   -1.3041400351e-02
    2.8900823975e+02   -1.3060799800e-02
    2.8910842896e+02   -1.3080299832e-02
    2.8920828247e+02   -1.3099799864e-02
    2.8930841064e+02   -1.3119299896e-02
    2.8940838623e+02   -1.3138899580e-02
    2.8950836182e+02   -1.3158700429e-02
    2.8960836792e+02   -1.3178099878e-02
    2.8970837402e+02   -1.3198000379e-02
    2.8980834961e+02   -1.3217800297e-02
    2.8990835571e+02   -1.3237800449e-02
    2.9000830078e+02   -1.3257400133e-02
    2.9010833740e+02   -1.3277400285e-02
    2.9020834351e+02   -1.3297200203e-02
    2.9030844116e+02   -1.3317000121e-02
    2.9040835571e+02   -1.3336700387e-02
    2.9050836182e+02   -1.3356599957e-02
    2.9060848999e+02   -1.3376199640e-02
    2.9070849609e+02   -1.3396199793e-02
    2.9080844116e+02   -1.3417299837e-02
    2.9090841675e+02   -1.3437800109e-02
    2.9100845337e+02   -1.3457500376e-02
    2.9110848999e+02   -1.3476599939e-02
    2.9120840454e+02   -1.3495599851e-02
    2.9130838013e+02   -1.3514200225e-02
    2.9140841675e+02   -1.3533099554e-02
    2.9150842285e+02   -1.3551900163e-02
    2.9160855103e+02   -1.3571400195e-02
    2.9170855713e+02   -1.3590699993e-02
    2.9180844116e+02   -1.3610599563e-02
    2.9190844727e+02   -1.3630200177e-02
    2.9200848389e+02   -1.3650299981e-02
    2.9210845947e+02   -1.3670899905e-02
    2.9220843506e+02   -1.3691499829e-02
    2.9230850220e+02   -1.3712000102e-02
    2.9240856934e+02   -1.3731700368e-02
    2.9250854492e+02   -1.3752000406e-02
    2.9260852051e+02   -1.3771999627e-02
    2.9270846558e+02   -1.3792200014e-02
    2.9280856323e+02   -1.3812400401e-02
    2.9290847778e+02   -1.3833199628e-02
    2.9300854492e+02   -1.3853699900e-02
    2.9310848999e+02   -1.3874099590e-02
    2.9320849609e+02   -1.3894000091e-02
    2.9330865479e+02   -1.3913399540e-02
    2.9340850830e+02   -1.3932899572e-02
    2.9350851440e+02   -1.3951900415e-02
    2.9360867310e+02   -1.3971400447e-02
    2.9370855713e+02   -1.3990400359e-02
    2.9380853271e+02   -1.4010000043e-02
    2.9390866089e+02   -1.4029500075e-02
    2.9400869751e+02   -1.4049399644e-02
    2.9410858154e+02   -1.4069199562e-02
    2.9420858765e+02   -1.4089199714e-02
    2.9430859375e+02   -1.4109499753e-02
    2.9440856934e+02   -1.4129799791e-02
    2.9450872803e+02   -1.4149799943e-02
    2.9460858154e+02   -1.4169099741e-02
    2.9470861816e+02   -1.4188599773e-02
    2.9480868530e+02   -1.4207899570e-02
    2.9490875244e+02   -1.4227599837e-02
    2.9500863647e+02   -1.4247099869e-02
    2.9510867310e+02   -1.4267000370e-02
    2.9520861816e+02   -1.4286899939e-02
    2.9530877686e+02   -1.4306499623e-02
    2.9540875244e+02   -1.4325999655e-02
    2.9550872803e+02   -1.4345100150e-02
    2.9560879517e+02   -1.4362200163e-02
    2.9570864868e+02   -1.4376900159e-02
    2.9580865479e+02   -1.4389500022e-02
    2.9590872192e+02   -1.4396999963e-02
    2.9600878906e+02   -1.4401500113e-02
    2.9610867310e+02   -1.4399800450e-02
    2.9620874023e+02   -1.4395699836e-02
    2.9630877686e+02   -1.4387199655e-02
    2.9640872192e+02   -1.4376600273e-02
    2.9650878906e+02   -1.4363800175e-02
    2.9660879517e+02   -1.4350400306e-02
    2.9670870972e+02   -1.4337300323e-02
    2.9680874634e+02   -1.4325199649e-02
    2.9690878296e+02   -1.4315200038e-02
    2.9700878906e+02   -1.4308099635e-02
    2.9710888672e+02   -1.4304599725e-02
    2.9720877075e+02   -1.4303600416e-02
    2.9730874634e+02   -1.4305500314e-02
    2.9740878296e+02   -1.4309099875e-02
    2.9750891113e+02   -1.4315200038e-02
    2.9760876465e+02   -1.4321600087e-02
    2.9770892334e+02   -1.4329600148e-02
    2.9780889893e+02   -1.4337600209e-02
    2.9790884399e+02   -1.4344899915e-02
    2.9800881958e+02   -1.4351200312e-02
    2.9810891724e+02   -1.4355399646e-02
    2.9820889282e+02   -1.4356900007e-02
    2.9830880737e+02   -1.4355800115e-02
    2.9840890503e+02   -1.4351700433e-02
    2.9850888062e+02   -1.4344300143e-02
    2.9860882568e+02   -1.4333900064e-02
    2.9870895386e+02   -1.4319700189e-02
    2.9880886841e+02   -1.4302600175e-02
    2.9890884399e+02   -1.4282800257e-02
    2.9900900269e+02   -1.4261499979e-02
    2.9910888672e+02   -1.4239000157e-02
    2.9920901489e+02   -1.4216599986e-02
    2.9930889893e+02   -1.4194499701e-02
    2.9940902710e+02   -1.4174000360e-02
    2.9950903320e+02   -1.4154500328e-02
    2.9960903931e+02   -1.4136699960e-02
    2.9970892334e+02   -1.4120000415e-02
    2.9980895996e+02   -1.4105100185e-02
    2.9990899658e+02   -1.4090199955e-02
endcurve
