Curveplot
LS-DYNA keyword deck by LS-PrePost
Abscissa
Ordinate
XY data
CHOP_EAMX_mo-1 #pts=3000
* Minval=    -1.7768981934e+01 at time=       299.9089965820
* Maxval=     3.6995010376e+01 at time=       196.8026275635
    0.0000000000e+00    0.0000000000e+00
    9.9978484213e-02    1.5629599802e-03
    1.9994476438e-01    3.1257364899e-03
    2.9985594749e-01    4.6876603737e-03
    3.9993065596e-01    6.2521989457e-03
    4.9983286858e-01    7.8137125820e-03
    5.9996074438e-01    9.3791177496e-03
    6.9996917248e-01    1.0944359004e-02
    7.9987239838e-01    1.2506475672e-02
    8.9996677637e-01    1.4068290591e-02
    9.9981802702e-01    1.5624367632e-02
    1.0999013186e+00    1.7184797674e-02
    1.1999312639e+00    1.8746258691e-02
    1.2999420166e+00    2.0310923457e-02
    1.3998707533e+00    2.1877693012e-02
    1.4999967813e+00    2.3450709879e-02
    1.5999176502e+00    2.5022342801e-02
    1.6998231411e+00    2.6594951749e-02
    1.7998125553e+00    2.8169421479e-02
    1.8998631239e+00    2.9744768515e-02
    1.9999403954e+00    3.1320352107e-02
    2.0999372005e+00    3.2892886549e-02
    2.1998307705e+00    3.4461889416e-02
    2.2999815941e+00    3.6031849682e-02
    2.3998348713e+00    3.7596132606e-02
    2.4998700619e+00    3.9161674678e-02
    2.5998649597e+00    4.0724936873e-02
    2.6998441219e+00    4.2286142707e-02
    2.7999923229e+00    4.3849065900e-02
    2.8998992443e+00    4.5405488461e-02
    2.9998807907e+00    4.6959958971e-02
    3.0998446941e+00    4.8511192203e-02
    3.1998353004e+00    5.0060164183e-02
    3.2999982834e+00    5.1611769944e-02
    3.3999238014e+00    5.3159799427e-02
    3.4999976158e+00    5.4711181670e-02
    3.5999677181e+00    5.6261062622e-02
    3.6998908520e+00    5.7811126113e-02
    3.7998950481e+00    5.9362236410e-02
    3.8999593258e+00    6.0913886875e-02
    3.9998872280e+00    6.2461543828e-02
    4.0999002457e+00    6.4008675516e-02
    4.1999154091e+00    6.5553769469e-02
    4.2999529839e+00    6.7095972598e-02
    4.3998851776e+00    6.8633310497e-02
    4.4998784065e+00    7.0167094469e-02
    4.5999293327e+00    7.1699365973e-02
    4.6999778748e+00    7.3229797184e-02
    4.7999606133e+00    7.4758693576e-02
    4.8998966217e+00    7.6284818351e-02
    4.9999694824e+00    7.7810823917e-02
    5.0999503136e+00    7.9332038760e-02
    5.1998300552e+00    8.0847740173e-02
    5.2998480797e+00    8.2362465560e-02
    5.3998847008e+00    8.3874858916e-02
    5.4998626709e+00    8.5384458303e-02
    5.5999817848e+00    8.6894273758e-02
    5.6998472214e+00    8.8398404419e-02
    5.7998046875e+00    8.9900523424e-02
    5.8998994827e+00    9.1401100159e-02
    5.9999914169e+00    9.2898145318e-02
    6.0998306274e+00    9.4388030469e-02
    6.1999139786e+00    9.5877692103e-02
    6.2998967171e+00    9.7360923886e-02
    6.3998079300e+00    9.8837010562e-02
    6.4998803139e+00    1.0031025857e-01
    6.5999507904e+00    1.0177630186e-01
    6.6999664307e+00    1.0323776305e-01
    6.7998299599e+00    1.0469237715e-01
    6.8998317719e+00    1.0614576936e-01
    6.9998917580e+00    1.0759852827e-01
    7.0998682976e+00    1.0904766619e-01
    7.1999130249e+00    1.1049380153e-01
    7.2999601364e+00    1.1193627119e-01
    7.3999619484e+00    1.1337640882e-01
    7.4998159409e+00    1.1481079459e-01
    7.5999779701e+00    1.1624658853e-01
    7.6999573708e+00    1.1767773330e-01
    7.7999353409e+00    1.1910609901e-01
    7.8999133110e+00    1.2053225935e-01
    7.9999518394e+00    1.2195657939e-01
    8.0999116898e+00    1.2337745726e-01
    8.1999921799e+00    1.2479626387e-01
    8.2998600006e+00    1.2621051073e-01
    8.3999414444e+00    1.2762252986e-01
    8.4999418259e+00    1.2903057039e-01
    8.5998668671e+00    1.3043129444e-01
    8.6999950409e+00    1.3183005154e-01
    8.7998943329e+00    1.3322207332e-01
    8.8998794556e+00    1.3461114466e-01
    8.9998931885e+00    1.3599753380e-01
    9.0998735428e+00    1.3738110662e-01
    9.1998090744e+00    1.3876193762e-01
    9.2998924255e+00    1.4014035463e-01
    9.3998374939e+00    1.4151519537e-01
    9.4999208450e+00    1.4288672805e-01
    9.5998888016e+00    1.4425432682e-01
    9.6999607086e+00    1.4561957121e-01
    9.7999601364e+00    1.4698120952e-01
    9.8999509811e+00    1.4833772182e-01
    9.9999437332e+00    1.4968988299e-01
    1.0099899292e+01    1.5352413058e-01
    1.0199932098e+01    1.5735906363e-01
    1.0299875259e+01    1.6118606925e-01
    1.0399922371e+01    1.6501289606e-01
    1.0499888420e+01    1.6883289814e-01
    1.0599976540e+01    1.7265379429e-01
    1.0699834824e+01    1.7646278441e-01
    1.0799839020e+01    1.8027038872e-01
    1.0899987221e+01    1.8407215178e-01
    1.0999872208e+01    1.8785782158e-01
    1.1099974632e+01    1.9164949656e-01
    1.1199816704e+01    1.9543154538e-01
    1.1299883842e+01    1.9922371209e-01
    1.1399881363e+01    2.0301479101e-01
    1.1499829292e+01    2.0680639148e-01
    1.1599976540e+01    2.1060410142e-01
    1.1699942589e+01    2.1439330280e-01
    1.1799819946e+01    2.1817511320e-01
    1.1899915695e+01    2.2196109593e-01
    1.1999942780e+01    2.2574049234e-01
    1.2099864960e+01    2.2950659692e-01
    1.2199995041e+01    2.3327100277e-01
    1.2300000191e+01    2.3702059686e-01
    1.2399901390e+01    2.4075888097e-01
    1.2499962807e+01    2.4449561536e-01
    1.2599871635e+01    2.4821850657e-01
    1.2699990273e+01    2.5194031000e-01
    1.2799981117e+01    2.5564977527e-01
    1.2899868011e+01    2.5934389234e-01
    1.2999883652e+01    2.6303237677e-01
    1.3099851608e+01    2.6670828462e-01
    1.3199937820e+01    2.7037900686e-01
    1.3299961090e+01    2.7404120564e-01
    1.3399948120e+01    2.7769681811e-01
    1.3499955177e+01    2.8134879470e-01
    1.3599972725e+01    2.8499561548e-01
    1.3699863434e+01    2.8863301873e-01
    1.3799963951e+01    2.9227429628e-01
    1.3899989128e+01    2.9590499401e-01
    1.3999843597e+01    2.9952180386e-01
    1.4099994659e+01    3.0313909054e-01
    1.4199995995e+01    3.0674138665e-01
    1.4299977303e+01    3.1033229828e-01
    1.4399853706e+01    3.1390619278e-01
    1.4499971390e+01    3.1747618318e-01
    1.4599962234e+01    3.2103171945e-01
    1.4699860573e+01    3.2457560301e-01
    1.4799954414e+01    3.2811999321e-01
    1.4899956703e+01    3.3165130019e-01
    1.4999971390e+01    3.3517429233e-01
    1.5099837303e+01    3.3868160844e-01
    1.5200016975e+01    3.4218770266e-01
    1.5299937248e+01    3.4567359090e-01
    1.5399894714e+01    3.4915229678e-01
    1.5499953270e+01    3.5262539983e-01
    1.5599922180e+01    3.5608670115e-01
    1.5699946404e+01    3.5954022408e-01
    1.5799880981e+01    3.6298060417e-01
    1.5899893761e+01    3.6641162634e-01
    1.6000009537e+01    3.6983639002e-01
    1.6100021362e+01    3.7324661016e-01
    1.6199943542e+01    3.7664070725e-01
    1.6299993515e+01    3.8002559543e-01
    1.6399923325e+01    3.8338911533e-01
    1.6499935150e+01    3.8674008846e-01
    1.6600019455e+01    3.9007711411e-01
    1.6699966431e+01    3.9339539409e-01
    1.6799919128e+01    3.9670109749e-01
    1.6899942398e+01    3.9999949932e-01
    1.6999977112e+01    4.0328970551e-01
    1.7099969864e+01    4.0656751394e-01
    1.7200016022e+01    4.0983569622e-01
    1.7299913406e+01    4.1308808327e-01
    1.7399948120e+01    4.1633659601e-01
    1.7499986649e+01    4.1957497597e-01
    1.7599855423e+01    4.2279830575e-01
    1.7699888229e+01    4.2601680756e-01
    1.7799867630e+01    4.2922309041e-01
    1.7900030136e+01    4.3242579699e-01
    1.8000001907e+01    4.3561288714e-01
    1.8100002289e+01    4.3879091740e-01
    1.8199903488e+01    4.4195660949e-01
    1.8299930573e+01    4.4511500001e-01
    1.8399866104e+01    4.4825899601e-01
    1.8499961853e+01    4.5139402151e-01
    1.8600009918e+01    4.5451247692e-01
    1.8699945450e+01    4.5761498809e-01
    1.8799982071e+01    4.6070730686e-01
    1.8899885178e+01    4.6378308535e-01
    1.8999877930e+01    4.6685117483e-01
    1.9099937439e+01    4.6991139650e-01
    1.9199964523e+01    4.7295889258e-01
    1.9299915314e+01    4.7599360347e-01
    1.9399930954e+01    4.7901952267e-01
    1.9499971390e+01    4.8203411698e-01
    1.9599996567e+01    4.8503723741e-01
    1.9699876785e+01    4.8802322149e-01
    1.9799945831e+01    4.9100232124e-01
    1.9899951935e+01    4.9396613240e-01
    1.9999975204e+01    4.9691602588e-01
    2.0099910736e+01    5.0253951550e-01
    2.0200038910e+01    5.0816041231e-01
    2.0299928665e+01    5.1375359297e-01
    2.0399969101e+01    5.1934349537e-01
    2.0499897003e+01    5.2491319180e-01
    2.0599882126e+01    5.3047239780e-01
    2.0699890137e+01    5.3601938486e-01
    2.0800008774e+01    5.4155439138e-01
    2.0900033951e+01    5.4706287384e-01
    2.0999982834e+01    5.5255222321e-01
    2.1099977493e+01    5.5803257227e-01
    2.1199924469e+01    5.6350082159e-01
    2.1299985886e+01    5.6896919012e-01
    2.1399898529e+01    5.7442277670e-01
    2.1500028610e+01    5.7988172770e-01
    2.1599893570e+01    5.8531636000e-01
    2.1700010300e+01    5.9075355530e-01
    2.1799985886e+01    5.9617108107e-01
    2.1899875641e+01    6.0157060623e-01
    2.1999879837e+01    6.0695952177e-01
    2.2100011826e+01    6.1233472824e-01
    2.2199956894e+01    6.1768060923e-01
    2.2300016403e+01    6.2301129103e-01
    2.2400018692e+01    6.2832188606e-01
    2.2499933243e+01    6.3360905647e-01
    2.2600017548e+01    6.3888645172e-01
    2.2699880600e+01    6.4413189888e-01
    2.2799909592e+01    6.4936798811e-01
    2.2900049210e+01    6.5458703041e-01
    2.2999948502e+01    6.5977102518e-01
    2.3099882126e+01    6.6493594646e-01
    2.3199964523e+01    6.7008799314e-01
    2.3299911499e+01    6.7521595955e-01
    2.3400043488e+01    6.8033802509e-01
    2.3499912262e+01    6.8543100357e-01
    2.3599950790e+01    6.9051694870e-01
    2.3699897766e+01    6.9558602571e-01
    2.3799978256e+01    7.0064496994e-01
    2.3899904251e+01    7.0568001270e-01
    2.4000043869e+01    7.1070599556e-01
    2.4100038528e+01    7.1570396423e-01
    2.4200052261e+01    7.2068095207e-01
    2.4300033569e+01    7.2563499212e-01
    2.4399972916e+01    7.3056101799e-01
    2.4500045776e+01    7.3547196388e-01
    2.4599969864e+01    7.4035501480e-01
    2.4699985504e+01    7.4522298574e-01
    2.4800001144e+01    7.5007301569e-01
    2.4899925232e+01    7.5490099192e-01
    2.4999992371e+01    7.5971597433e-01
    2.5100019455e+01    7.6450800896e-01
    2.5199989319e+01    7.6927500963e-01
    2.5299991608e+01    7.7402299643e-01
    2.5399894714e+01    7.7874600887e-01
    2.5499933243e+01    7.8345596790e-01
    2.5600042343e+01    7.8815203905e-01
    2.5699977875e+01    7.9281997681e-01
    2.5799924850e+01    7.9746603966e-01
    2.5899940491e+01    8.0209499598e-01
    2.5999990463e+01    8.0670499802e-01
    2.6100011826e+01    8.1129097939e-01
    2.6199951172e+01    8.1585001945e-01
    2.6299898148e+01    8.2038295269e-01
    2.6399993896e+01    8.2489502430e-01
    2.6500017166e+01    8.2937395573e-01
    2.6599876404e+01    8.3381593227e-01
    2.6700063705e+01    8.3825492859e-01
    2.6800020218e+01    8.4265506268e-01
    2.6900028229e+01    8.4703302383e-01
    2.6999944687e+01    8.5139399767e-01
    2.7100065231e+01    8.5573798418e-01
    2.7199987411e+01    8.6005395651e-01
    2.7299985886e+01    8.6435794830e-01
    2.7399879456e+01    8.6862403154e-01
    2.7500011444e+01    8.7289404869e-01
    2.7599903107e+01    8.7711900473e-01
    2.7700067520e+01    8.8134497404e-01
    2.7800014496e+01    8.8553595543e-01
    2.7899932861e+01    8.8970708847e-01
    2.7999940872e+01    8.9385503531e-01
    2.8099967957e+01    8.9799302816e-01
    2.8200038910e+01    9.0209800005e-01
    2.8299932480e+01    9.0618693829e-01
    2.8400028229e+01    9.1025596857e-01
    2.8500000000e+01    9.1429305077e-01
    2.8600059509e+01    9.1831004620e-01
    2.8700017929e+01    9.2229604721e-01
    2.8800045013e+01    9.2626601458e-01
    2.8900045395e+01    9.3020296097e-01
    2.8999914169e+01    9.3412095308e-01
    2.9100065231e+01    9.3802106380e-01
    2.9199949265e+01    9.4189500809e-01
    2.9299966812e+01    9.4574403763e-01
    2.9400009155e+01    9.4957995415e-01
    2.9499992371e+01    9.5338499546e-01
    2.9599905014e+01    9.5716804266e-01
    2.9699943542e+01    9.6092402935e-01
    2.9800020218e+01    9.6466302872e-01
    2.9900011063e+01    9.6837800741e-01
    3.0000030518e+01    9.7205698490e-01
    3.0099977493e+01    9.8169195652e-01
    3.0200006485e+01    9.9131894112e-01
    3.0299949646e+01    1.0009030104e+00
    3.0400007248e+01    1.0104689598e+00
    3.0499969482e+01    1.0200109482e+00
    3.0599927902e+01    1.0295180082e+00
    3.0699987411e+01    1.0390089750e+00
    3.0800060272e+01    1.0484769344e+00
    3.0900039673e+01    1.0578969717e+00
    3.0999963760e+01    1.0672669411e+00
    3.1100059509e+01    1.0766409636e+00
    3.1200065613e+01    1.0859889984e+00
    3.1300043106e+01    1.0953290462e+00
    3.1400012970e+01    1.1046469212e+00
    3.1500053406e+01    1.1139719486e+00
    3.1599956512e+01    1.1232539415e+00
    3.1700004578e+01    1.1325320005e+00
    3.1799985886e+01    1.1417880058e+00
    3.1900049210e+01    1.1510250568e+00
    3.2000019073e+01    1.1602170467e+00
    3.2100021362e+01    1.1693819761e+00
    3.2200027466e+01    1.1785119772e+00
    3.2299896240e+01    1.1875870228e+00
    3.2399921417e+01    1.1966450214e+00
    3.2500053406e+01    1.2056750059e+00
    3.2599964142e+01    1.2146589756e+00
    3.2699958801e+01    1.2236160040e+00
    3.2799972534e+01    1.2325389385e+00
    3.2899932861e+01    1.2414139509e+00
    3.2999946594e+01    1.2502570152e+00
    3.3099956512e+01    1.2590599060e+00
    3.3200050354e+01    1.2678320408e+00
    3.3299980164e+01    1.2765610218e+00
    3.3399986267e+01    1.2852679491e+00
    3.3500026703e+01    1.2939510345e+00
    3.3599929810e+01    1.3026019335e+00
    3.3699920654e+01    1.3112279177e+00
    3.3799945831e+01    1.3198329210e+00
    3.3899971008e+01    1.3284099102e+00
    3.4000022888e+01    1.3369590044e+00
    3.4099967957e+01    1.3454558849e+00
    3.4200031281e+01    1.3539309502e+00
    3.4299991608e+01    1.3623490334e+00
    3.4399997711e+01    1.3707319498e+00
    3.4499969482e+01    1.3790619373e+00
    3.4599987030e+01    1.3873629570e+00
    3.4700038910e+01    1.3956379890e+00
    3.4799896240e+01    1.4038619995e+00
    3.4899944305e+01    1.4120619297e+00
    3.5000022888e+01    1.4202359915e+00
    3.5099899292e+01    1.4283490181e+00
    3.5200019836e+01    1.4364399910e+00
    3.5299957275e+01    1.4444799423e+00
    3.5400020599e+01    1.4524970055e+00
    3.5499973297e+01    1.4604640007e+00
    3.5599994659e+01    1.4684050083e+00
    3.5699958801e+01    1.4763031006e+00
    3.5799915314e+01    1.4841709137e+00
    3.5899986267e+01    1.4919949770e+00
    3.6000007629e+01    1.4997808933e+00
    3.6099834442e+01    1.5075160265e+00
    3.6199829102e+01    1.5152179003e+00
    3.6299858093e+01    1.5228700638e+00
    3.6399887085e+01    1.5304689407e+00
    3.6499965668e+01    1.5380240679e+00
    3.6599861145e+01    1.5455049276e+00
    3.6699977875e+01    1.5529670715e+00
    3.6799884796e+01    1.5603568554e+00
    3.6899868011e+01    1.5677250624e+00
    3.7000000000e+01    1.5750609636e+00
    3.7099826813e+01    1.5823431015e+00
    3.7199993134e+01    1.5896039009e+00
    3.7299999237e+01    1.5968141556e+00
    3.7399833679e+01    1.6039679050e+00
    3.7499885559e+01    1.6111110449e+00
    3.7599887848e+01    1.6182088852e+00
    3.7699905396e+01    1.6252670288e+00
    3.7799926758e+01    1.6322859526e+00
    3.7899852753e+01    1.6392619610e+00
    3.7999881744e+01    1.6462068558e+00
    3.8099922180e+01    1.6531131268e+00
    3.8199855804e+01    1.6599749327e+00
    3.8299934387e+01    1.6668109894e+00
    3.8399871826e+01    1.6735908985e+00
    3.8499889374e+01    1.6803309917e+00
    3.8599884033e+01    1.6870119572e+00
    3.8699882507e+01    1.6936581135e+00
    3.8799812317e+01    1.7002518177e+00
    3.8899814606e+01    1.7068090439e+00
    3.8999797821e+01    1.7133188248e+00
    3.9099895477e+01    1.7198140621e+00
    3.9199844360e+01    1.7262489796e+00
    3.9299861908e+01    1.7326490879e+00
    3.9399944305e+01    1.7390179634e+00
    3.9499946594e+01    1.7453280687e+00
    3.9599903107e+01    1.7516099215e+00
    3.9699886322e+01    1.7578380108e+00
    3.9799957275e+01    1.7640349865e+00
    3.9899921417e+01    1.7701730728e+00
    3.9999809265e+01    1.7762699127e+00
    4.0099941254e+01    1.7901071310e+00
    4.0199787140e+01    1.8038860559e+00
    4.0299869537e+01    1.8176441193e+00
    4.0399929047e+01    1.8313601017e+00
    4.0499782562e+01    1.8449959755e+00
    4.0599948883e+01    1.8586339951e+00
    4.0699897766e+01    1.8722059727e+00
    4.0799831390e+01    1.8857101202e+00
    4.0899837494e+01    1.8991650343e+00
    4.0999752045e+01    1.9125530720e+00
    4.1099769592e+01    1.9259169102e+00
    4.1199775696e+01    1.9392399788e+00
    4.1299812317e+01    1.9525549412e+00
    4.1399841309e+01    1.9658368826e+00
    4.1499851227e+01    1.9790940285e+00
    4.1599895477e+01    1.9923170805e+00
    4.1699802399e+01    2.0054919720e+00
    4.1799865723e+01    2.0186450481e+00
    4.1899848938e+01    2.0317358971e+00
    4.1999832153e+01    2.0447778702e+00
    4.2099906921e+01    2.0577728748e+00
    4.2199810028e+01    2.0706901550e+00
    4.2299758911e+01    2.0835480690e+00
    4.2399814606e+01    2.0963549614e+00
    4.2499809265e+01    2.1091098785e+00
    4.2599796295e+01    2.1217970848e+00
    4.2699745178e+01    2.1344299316e+00
    4.2799892426e+01    2.1470198631e+00
    4.2899875641e+01    2.1595349312e+00
    4.2999862671e+01    2.1719720364e+00
    4.3099845886e+01    2.1843440533e+00
    4.3199832916e+01    2.1966528893e+00
    4.3299884796e+01    2.2089269161e+00
    4.3399837494e+01    2.2211380005e+00
    4.3499855042e+01    2.2333078384e+00
    4.3599899292e+01    2.2454299927e+00
    4.3699829102e+01    2.2575001717e+00
    4.3799827576e+01    2.2695300579e+00
    4.3899833679e+01    2.2815098763e+00
    4.3999832153e+01    2.2934198380e+00
    4.4099826813e+01    2.3052799702e+00
    4.4199737549e+01    2.3170499802e+00
    4.4299892426e+01    2.3287997246e+00
    4.4399868011e+01    2.3404400349e+00
    4.4499702454e+01    2.3519999981e+00
    4.4599742889e+01    2.3635301590e+00
    4.4699775696e+01    2.3749899864e+00
    4.4799800873e+01    2.3863999844e+00
    4.4899864197e+01    2.3977599144e+00
    4.4999713898e+01    2.4090399742e+00
    4.5099708557e+01    2.4202599525e+00
    4.5199810028e+01    2.4314298630e+00
    4.5299716949e+01    2.4425101280e+00
    4.5399738312e+01    2.4535498619e+00
    4.5499870300e+01    2.4645500183e+00
    4.5599754333e+01    2.4754500389e+00
    4.5699707031e+01    2.4863100052e+00
    4.5799831390e+01    2.4971199036e+00
    4.5899711609e+01    2.5078401566e+00
    4.5999748230e+01    2.5185098648e+00
    4.6099834442e+01    2.5291299820e+00
    4.6199802399e+01    2.5396499634e+00
    4.6299800873e+01    2.5501098633e+00
    4.6399692535e+01    2.5604701042e+00
    4.6499713898e+01    2.5707600117e+00
    4.6599819183e+01    2.5809800625e+00
    4.6699840546e+01    2.5911200047e+00
    4.6799701691e+01    2.6011800766e+00
    4.6899787903e+01    2.6111898422e+00
    4.6999794006e+01    2.6211400032e+00
    4.7099784851e+01    2.6310200691e+00
    4.7199695587e+01    2.6408300400e+00
    4.7299804688e+01    2.6505999565e+00
    4.7399776459e+01    2.6602902412e+00
    4.7499843597e+01    2.6699399948e+00
    4.7599708557e+01    2.6795001030e+00
    4.7699691772e+01    2.6890099049e+00
    4.7799755096e+01    2.6984701157e+00
    4.7899799347e+01    2.7078599930e+00
    4.7999759674e+01    2.7171900272e+00
    4.8099727631e+01    2.7264602184e+00
    4.8199680328e+01    2.7356700897e+00
    4.8299709320e+01    2.7448201180e+00
    4.8399784088e+01    2.7539000511e+00
    4.8499725342e+01    2.7629001141e+00
    4.8599765778e+01    2.7718398571e+00
    4.8699726105e+01    2.7807002068e+00
    4.8799701691e+01    2.7894902229e+00
    4.8899768829e+01    2.7982199192e+00
    4.8999675751e+01    2.8068699837e+00
    4.9099800110e+01    2.8154897690e+00
    4.9199691772e+01    2.8240199089e+00
    4.9299644470e+01    2.8324999809e+00
    4.9399677277e+01    2.8409199715e+00
    4.9499786377e+01    2.8492798805e+00
    4.9599704742e+01    2.8575599194e+00
    4.9699722290e+01    2.8657701015e+00
    4.9799629211e+01    2.8739099503e+00
    4.9899761200e+01    2.8819999695e+00
    4.9999683380e+01    2.8899898529e+00
    5.0099693298e+01    2.9074902534e+00
    5.0199775696e+01    2.9249701500e+00
    5.0299724579e+01    2.9423499107e+00
    5.0399742126e+01    2.9596798420e+00
    5.0499668121e+01    2.9769101143e+00
    5.0599678040e+01    2.9940900803e+00
    5.0699630737e+01    3.0111899376e+00
    5.0799720764e+01    3.0282297134e+00
    5.0899765015e+01    3.0451598167e+00
    5.0999656677e+01    3.0620002747e+00
    5.1099712372e+01    3.0787901878e+00
    5.1199718475e+01    3.0955300331e+00
    5.1299747467e+01    3.1122198105e+00
    5.1399620056e+01    3.1288399696e+00
    5.1499671936e+01    3.1454401016e+00
    5.1599685669e+01    3.1619899273e+00
    5.1699718475e+01    3.1784796715e+00
    5.1799606323e+01    3.1948800087e+00
    5.1899761200e+01    3.2112500668e+00
    5.1999633789e+01    3.2274999619e+00
    5.2099731445e+01    3.2436900139e+00
    5.2199714661e+01    3.2597799301e+00
    5.2299598694e+01    3.2757501602e+00
    5.2399673462e+01    3.2916798592e+00
    5.2499603271e+01    3.3074898720e+00
    5.2599750519e+01    3.3232498169e+00
    5.2699607849e+01    3.3388800621e+00
    5.2799686432e+01    3.3544600010e+00
    5.2899692535e+01    3.3699300289e+00
    5.2999664307e+01    3.3852999210e+00
    5.3099590302e+01    3.4005601406e+00
    5.3199596405e+01    3.4157500267e+00
    5.3299671173e+01    3.4308700562e+00
    5.3399654388e+01    3.4458999634e+00
    5.3499603271e+01    3.4608502388e+00
    5.3599712372e+01    3.4757502079e+00
    5.3699672699e+01    3.4905600548e+00
    5.3799583435e+01    3.5052998066e+00
    5.3899574280e+01    3.5199601650e+00
    5.3999687195e+01    3.5345702171e+00
    5.4099624634e+01    3.5490400791e+00
    5.4199634552e+01    3.5634398460e+00
    5.4299663544e+01    3.5777497292e+00
    5.4399547577e+01    3.5919301510e+00
    5.4499645233e+01    3.6060299873e+00
    5.4599685669e+01    3.6200499535e+00
    5.4699588776e+01    3.6339597702e+00
    5.4799594879e+01    3.6478102207e+00
    5.4899650574e+01    3.6615800858e+00
    5.4999568939e+01    3.6752400398e+00
    5.5099613190e+01    3.6888298988e+00
    5.5199722290e+01    3.7023298740e+00
    5.5299694061e+01    3.7157301903e+00
    5.5399608612e+01    3.7290301323e+00
    5.5499637604e+01    3.7422499657e+00
    5.5599674225e+01    3.7554099560e+00
    5.5699668884e+01    3.7684602737e+00
    5.5799541473e+01    3.7814199924e+00
    5.5899627686e+01    3.7943098545e+00
    5.5999656677e+01    3.8071098328e+00
    5.6099613190e+01    3.8198001385e+00
    5.6199653625e+01    3.8324000835e+00
    5.6299560547e+01    3.8448798656e+00
    5.6399532318e+01    3.8572399616e+00
    5.6499553680e+01    3.8695001602e+00
    5.6599662781e+01    3.8816602230e+00
    5.6699607849e+01    3.8937001228e+00
    5.6799545288e+01    3.9056398869e+00
    5.6899665833e+01    3.9175198078e+00
    5.6999614716e+01    3.9292802811e+00
    5.7099521637e+01    3.9409599304e+00
    5.7199523926e+01    3.9525499344e+00
    5.7299674988e+01    3.9640698433e+00
    5.7399566650e+01    3.9754703045e+00
    5.7499595642e+01    3.9868102074e+00
    5.7599620819e+01    3.9980599880e+00
    5.7699558258e+01    4.0092096329e+00
    5.7799518585e+01    4.0202603340e+00
    5.7899627686e+01    4.0312500000e+00
    5.7999576569e+01    4.0421500206e+00
    5.8099639893e+01    4.0529699326e+00
    5.8199581146e+01    4.0636897087e+00
    5.8299652100e+01    4.0743203163e+00
    5.8399593353e+01    4.0848503113e+00
    5.8499515533e+01    4.0952701569e+00
    5.8599624634e+01    4.1056098938e+00
    5.8699584961e+01    4.1158504486e+00
    5.8799510956e+01    4.1259698868e+00
    5.8899551392e+01    4.1360101700e+00
    5.8999591827e+01    4.1459598541e+00
    5.9099605560e+01    4.1558299065e+00
    5.9199497223e+01    4.1655902863e+00
    5.9299488068e+01    4.1752800941e+00
    5.9399654388e+01    4.1848897934e+00
    5.9499633789e+01    4.1943998337e+00
    5.9599586487e+01    4.2038002014e+00
    5.9699630737e+01    4.2131299973e+00
    5.9799552917e+01    4.2223396301e+00
    5.9899524689e+01    4.2314500809e+00
    5.9999519348e+01    4.2404699326e+00
    6.0099643707e+01    4.2606000900e+00
    6.0199581146e+01    4.2806196213e+00
    6.0299583435e+01    4.3005695343e+00
    6.0399501801e+01    4.3204097748e+00
    6.0499507904e+01    4.3401699066e+00
    6.0599502563e+01    4.3598098755e+00
    6.0699542999e+01    4.3793797493e+00
    6.0799564362e+01    4.3988199234e+00
    6.0899490356e+01    4.4181098938e+00
    6.0999588013e+01    4.4373302460e+00
    6.1099559784e+01    4.4564399719e+00
    6.1199512482e+01    4.4754695892e+00
    6.1299606323e+01    4.4944601059e+00
    6.1399570465e+01    4.5133600235e+00
    6.1499546051e+01    4.5321898460e+00
    6.1599517822e+01    4.5509400368e+00
    6.1699516296e+01    4.5696201324e+00
    6.1799499512e+01    4.5881996155e+00
    6.1899562836e+01    4.6066904068e+00
    6.1999618530e+01    4.6250796318e+00
    6.2099491119e+01    4.6433200836e+00
    6.2199600220e+01    4.6614704132e+00
    6.2299610138e+01    4.6794900894e+00
    6.2399501801e+01    4.6973795891e+00
    6.2499546051e+01    4.7151703835e+00
    6.2599575043e+01    4.7328500748e+00
    6.2699577332e+01    4.7504100800e+00
    6.2799491882e+01    4.7678394318e+00
    6.2899452209e+01    4.7851500511e+00
    6.2999519348e+01    4.8023505211e+00
    6.3099445343e+01    4.8193898201e+00
    6.3199558258e+01    4.8363499641e+00
    6.3299438477e+01    4.8531603813e+00
    6.3399513245e+01    4.8699202538e+00
    6.3499568939e+01    4.8865599632e+00
    6.3599418640e+01    4.9030795097e+00
    6.3699485779e+01    4.9195399284e+00
    6.3799503326e+01    4.9358901978e+00
    6.3899452209e+01    4.9521203041e+00
    6.3999488831e+01    4.9682602882e+00
    6.4099487305e+01    4.9842705727e+00
    6.4199447632e+01    5.0001401901e+00
    6.4299552917e+01    5.0159096718e+00
    6.4399536133e+01    5.0315394402e+00
    6.4499488831e+01    5.0470204353e+00
    6.4599418640e+01    5.0623903275e+00
    6.4699417114e+01    5.0776600838e+00
    6.4799423218e+01    5.0928196907e+00
    6.4899421692e+01    5.1078705788e+00
    6.4999542236e+01    5.1228199005e+00
    6.5099555969e+01    5.1376399994e+00
    6.5199523926e+01    5.1523399353e+00
    6.5299377441e+01    5.1668896675e+00
    6.5399513245e+01    5.1813697815e+00
    6.5499412537e+01    5.1956996918e+00
    6.5599411011e+01    5.2099504471e+00
    6.5699424744e+01    5.2240800858e+00
    6.5799400330e+01    5.2380995750e+00
    6.5899452209e+01    5.2520198822e+00
    6.5999427795e+01    5.2657604218e+00
    6.6099388123e+01    5.2793803215e+00
    6.6199417114e+01    5.2929501534e+00
    6.6299415588e+01    5.3062901497e+00
    6.6399398804e+01    5.3195900917e+00
    6.6499412537e+01    5.3326396942e+00
    6.6599380493e+01    5.3456497192e+00
    6.6699378967e+01    5.3584194183e+00
    6.6799461365e+01    5.3711395264e+00
    6.6899375916e+01    5.3837003708e+00
    6.6999488831e+01    5.3961901665e+00
    6.7099540710e+01    5.4084701538e+00
    6.7199363708e+01    5.4207000732e+00
    6.7299507141e+01    5.4328198433e+00
    6.7399497986e+01    5.4448800087e+00
    6.7499420166e+01    5.4567394257e+00
    6.7599533081e+01    5.4685297012e+00
    6.7699516296e+01    5.4801502228e+00
    6.7799362183e+01    5.4916901588e+00
    6.7899444580e+01    5.5031499863e+00
    6.7999511719e+01    5.5144000053e+00
    6.8099472046e+01    5.5256700516e+00
    6.8199531555e+01    5.5366997719e+00
    6.8299430847e+01    5.5476593971e+00
    6.8399414062e+01    5.5585694313e+00
    6.8499496460e+01    5.5692205429e+00
    6.8599418640e+01    5.5798902512e+00
    6.8699386597e+01    5.5903201103e+00
    6.8799392700e+01    5.6006097794e+00
    6.8899421692e+01    5.6108698845e+00
    6.8999366760e+01    5.6209397316e+00
    6.9099372864e+01    5.6309795380e+00
    6.9199440002e+01    5.6407904625e+00
    6.9299400330e+01    5.6506204605e+00
    6.9399444580e+01    5.6602201462e+00
    6.9499412537e+01    5.6697101593e+00
    6.9599327087e+01    5.6792001724e+00
    6.9699478149e+01    5.6884999275e+00
    6.9799331665e+01    5.6975693703e+00
    6.9899452209e+01    5.7066297531e+00
    6.9999389648e+01    5.7156205177e+00
    7.0099426270e+01    5.7354502678e+00
    7.0199493408e+01    5.7551398277e+00
    7.0299446106e+01    5.7748503685e+00
    7.0399475098e+01    5.7943000793e+00
    7.0499389648e+01    5.8136696815e+00
    7.0599334717e+01    5.8329005241e+00
    7.0699302673e+01    5.8520998955e+00
    7.0799377441e+01    5.8711299896e+00
    7.0899337769e+01    5.8899302483e+00
    7.0999313354e+01    5.9085998535e+00
    7.1099380493e+01    5.9272298813e+00
    7.1199310303e+01    5.9457006454e+00
    7.1299301147e+01    5.9640603065e+00
    7.1399375916e+01    5.9823999405e+00
    7.1499404907e+01    6.0006694794e+00
    7.1599403381e+01    6.0187401772e+00
    7.1699432373e+01    6.0367999077e+00
    7.1799438477e+01    6.0546498299e+00
    7.1899360657e+01    6.0725002289e+00
    7.1999351501e+01    6.0900998116e+00
    7.2099395752e+01    6.1076397896e+00
    7.2199386597e+01    6.1249504089e+00
    7.2299392700e+01    6.1421999931e+00
    7.2399284363e+01    6.1591596603e+00
    7.2499351501e+01    6.1761202812e+00
    7.2599441528e+01    6.1929302216e+00
    7.2699371338e+01    6.2095499039e+00
    7.2799301147e+01    6.2260403633e+00
    7.2899337769e+01    6.2424302101e+00
    7.2999397278e+01    6.2586698532e+00
    7.3099411011e+01    6.2746706009e+00
    7.3199302673e+01    6.2905702591e+00
    7.3299270630e+01    6.3064198494e+00
    7.3399269104e+01    6.3220205307e+00
    7.3499389648e+01    6.3375701904e+00
    7.3599426270e+01    6.3530201912e+00
    7.3699432373e+01    6.3682694435e+00
    7.3799377441e+01    6.3834199905e+00
    7.3899391174e+01    6.3985099792e+00
    7.3999351501e+01    6.4133796692e+00
    7.4099319458e+01    6.4281101227e+00
    7.4199348450e+01    6.4427599907e+00
    7.4299362183e+01    6.4572696686e+00
    7.4399276733e+01    6.4715604782e+00
    7.4499359131e+01    6.4857301712e+00
    7.4599411011e+01    6.4996795654e+00
    7.4699378967e+01    6.5136194229e+00
    7.4799385071e+01    6.5273199081e+00
    7.4899284363e+01    6.5409297943e+00
    7.4999252319e+01    6.5543804169e+00
    7.5099349976e+01    6.5677399635e+00
    7.5199287415e+01    6.5809197426e+00
    7.5299339294e+01    6.5940103531e+00
    7.5399238586e+01    6.6069302559e+00
    7.5499366760e+01    6.6197299957e+00
    7.5599395752e+01    6.6324396133e+00
    7.5699287415e+01    6.6449699402e+00
    7.5799400330e+01    6.6573696136e+00
    7.5899253845e+01    6.6695404053e+00
    7.5999336243e+01    6.6816806793e+00
    7.6099342346e+01    6.6936998367e+00
    7.6199371338e+01    6.7054700851e+00
    7.6299293518e+01    6.7171201706e+00
    7.6399307251e+01    6.7286596298e+00
    7.6499382019e+01    6.7400197983e+00
    7.6599235535e+01    6.7511901855e+00
    7.6699325562e+01    6.7622299194e+00
    7.6799224854e+01    6.7729892731e+00
    7.6899253845e+01    6.7837600708e+00
    7.6999343872e+01    6.7943801880e+00
    7.7099334717e+01    6.8048095703e+00
    7.7199234009e+01    6.8151302338e+00
    7.7299263000e+01    6.8253602982e+00
    7.7399253845e+01    6.8353796005e+00
    7.7499359131e+01    6.8453197479e+00
    7.7599250793e+01    6.8551101685e+00
    7.7699203491e+01    6.8647499084e+00
    7.7799331665e+01    6.8743801117e+00
    7.7899253845e+01    6.8837699890e+00
    7.7999282837e+01    6.8929796219e+00
    7.8099273682e+01    6.9021892548e+00
    7.8199310303e+01    6.9111404419e+00
    7.8299217224e+01    6.9200105667e+00
    7.8399223328e+01    6.9288005829e+00
    7.8499313354e+01    6.9374103546e+00
    7.8599311829e+01    6.9457988739e+00
    7.8699195862e+01    6.9541091919e+00
    7.8799255371e+01    6.9622898102e+00
    7.8899185181e+01    6.9702901840e+00
    7.8999282837e+01    6.9781799316e+00
    7.9099205017e+01    6.9859304428e+00
    7.9199302673e+01    6.9935703278e+00
    7.9299232483e+01    7.0010604858e+00
    7.9399223328e+01    7.0083990097e+00
    7.9499259949e+01    7.0156688690e+00
    7.9599235535e+01    7.0227394104e+00
    7.9699226379e+01    7.0297698975e+00
    7.9799232483e+01    7.0365505219e+00
    7.9899238586e+01    7.0432901382e+00
    7.9999221802e+01    7.0497903824e+00
    8.0099304199e+01    7.0679101944e+00
    8.0199310303e+01    7.0859193802e+00
    8.0299293518e+01    7.1038007736e+00
    8.0399322510e+01    7.1215000153e+00
    8.0499328613e+01    7.1391000748e+00
    8.0599273682e+01    7.1564998627e+00
    8.0699256897e+01    7.1737995148e+00
    8.0799240112e+01    7.1910009384e+00
    8.0899208069e+01    7.2079000473e+00
    8.0999267578e+01    7.2247991562e+00
    8.1099227905e+01    7.2415008545e+00
    8.1199195862e+01    7.2581005096e+00
    8.1299148560e+01    7.2746000290e+00
    8.1399139404e+01    7.2909002304e+00
    8.1499137878e+01    7.3071994781e+00
    8.1599281311e+01    7.3234004974e+00
    8.1699157715e+01    7.3394002914e+00
    8.1799186707e+01    7.3554010391e+00
    8.1899269104e+01    7.3712005615e+00
    8.1999237061e+01    7.3867998123e+00
    8.2099151611e+01    7.4021997452e+00
    8.2199302673e+01    7.4176006317e+00
    8.2299301147e+01    7.4328002930e+00
    8.2399291992e+01    7.4477996826e+00
    8.2499130249e+01    7.4625997543e+00
    8.2599143982e+01    7.4772987366e+00
    8.2699134827e+01    7.4919004440e+00
    8.2799156189e+01    7.5062999725e+00
    8.2899230957e+01    7.5206003189e+00
    8.2999198914e+01    7.5346012115e+00
    8.3099220276e+01    7.5485992432e+00
    8.3199157715e+01    7.5622997284e+00
    8.3299232483e+01    7.5760002136e+00
    8.3399177551e+01    7.5894002914e+00
    8.3499122620e+01    7.6028003693e+00
    8.3599105835e+01    7.6159992218e+00
    8.3699195862e+01    7.6290006638e+00
    8.3799148560e+01    7.6420001984e+00
    8.3899253845e+01    7.6549005508e+00
    8.3999259949e+01    7.6676006317e+00
    8.4099105835e+01    7.6801004410e+00
    8.4199127197e+01    7.6923999786e+00
    8.4299171448e+01    7.7045993805e+00
    8.4399276733e+01    7.7166996002e+00
    8.4499244690e+01    7.7285003662e+00
    8.4599136353e+01    7.7402000427e+00
    8.4699180603e+01    7.7517986298e+00
    8.4799186707e+01    7.7632007599e+00
    8.4899238586e+01    7.7744998932e+00
    8.4999252319e+01    7.7856988907e+00
    8.5099166870e+01    7.7967004776e+00
    8.5199203491e+01    7.8076000214e+00
    8.5299133301e+01    7.8182001114e+00
    8.5399215698e+01    7.8288011551e+00
    8.5499084473e+01    7.8391990662e+00
    8.5599105835e+01    7.8495006561e+00
    8.5699226379e+01    7.8596992493e+00
    8.5799163818e+01    7.8698005676e+00
    8.5899246216e+01    7.8796005249e+00
    8.5999076843e+01    7.8893003464e+00
    8.6099128723e+01    7.8987998962e+00
    8.6199073792e+01    7.9082994461e+00
    8.6299217224e+01    7.9174995422e+00
    8.6399215698e+01    7.9265995026e+00
    8.6499237061e+01    7.9355001450e+00
    8.6599082947e+01    7.9442005157e+00
    8.6699096680e+01    7.9527006149e+00
    8.6799194336e+01    7.9612007141e+00
    8.6899200439e+01    7.9695005417e+00
    8.6999214172e+01    7.9776000977e+00
    8.7099174500e+01    7.9855003357e+00
    8.7199073792e+01    7.9933996201e+00
    8.7299118042e+01    8.0011005402e+00
    8.7399047852e+01    8.0085992813e+00
    8.7499076843e+01    8.0160999298e+00
    8.7599090576e+01    8.0233993530e+00
    8.7699226379e+01    8.0304994583e+00
    8.7799179077e+01    8.0375003815e+00
    8.7899223328e+01    8.0442991257e+00
    8.7999160767e+01    8.0511007309e+00
    8.8099220276e+01    8.0577001572e+00
    8.8199180603e+01    8.0641994476e+00
    8.8299087524e+01    8.0705986023e+00
    8.8399131775e+01    8.0768003464e+00
    8.8499206543e+01    8.0827999115e+00
    8.8599098206e+01    8.0886993408e+00
    8.8699096680e+01    8.0943994522e+00
    8.8799209595e+01    8.1000003815e+00
    8.8899154663e+01    8.1054992676e+00
    8.8999183655e+01    8.1108007431e+00
    8.9099166870e+01    8.1160001755e+00
    8.9199157715e+01    8.1209993362e+00
    8.9299041748e+01    8.1259002686e+00
    8.9399047852e+01    8.1306991577e+00
    8.9499176025e+01    8.1353998184e+00
    8.9599075317e+01    8.1399002075e+00
    8.9699188232e+01    8.1443004608e+00
    8.9799171448e+01    8.1485004425e+00
    8.9899032593e+01    8.1526002884e+00
    8.9999038696e+01    8.1564998627e+00
    9.0099159241e+01    8.1747989655e+00
    9.0199005127e+01    8.1928987503e+00
    9.0299125671e+01    8.2109994888e+00
    9.0399063110e+01    8.2288999557e+00
    9.0499130249e+01    8.2467002869e+00
    9.0599159241e+01    8.2641992569e+00
    9.0699081421e+01    8.2817010880e+00
    9.0799171448e+01    8.2991008759e+00
    9.0899009705e+01    8.3162012100e+00
    9.0999168396e+01    8.3332004547e+00
    9.1099151611e+01    8.3500995636e+00
    9.1199073792e+01    8.3668003082e+00
    9.1299057007e+01    8.3834991455e+00
    9.1398994446e+01    8.4001007080e+00
    9.1499046326e+01    8.4166011810e+00
    9.1599113464e+01    8.4329013824e+00
    9.1699127197e+01    8.4491004944e+00
    9.1799171448e+01    8.4652996063e+00
    9.1899078369e+01    8.4811992645e+00
    9.1999114990e+01    8.4971008301e+00
    9.2099098206e+01    8.5126991272e+00
    9.2199127197e+01    8.5282993317e+00
    9.2299110413e+01    8.5436000824e+00
    9.2399101257e+01    8.5587997437e+00
    9.2499023438e+01    8.5738010406e+00
    9.2599098206e+01    8.5887012482e+00
    9.2699005127e+01    8.6035003662e+00
    9.2799041748e+01    8.6180000305e+00
    9.2899116516e+01    8.6324996948e+00
    9.2999008179e+01    8.6466999054e+00
    9.3099113464e+01    8.6608009338e+00
    9.3199012756e+01    8.6746997833e+00
    9.3299034119e+01    8.6885013580e+00
    9.3399032593e+01    8.7020988464e+00
    9.3499137878e+01    8.7155990601e+00
    9.3599136353e+01    8.7290992737e+00
    9.3699119568e+01    8.7423992157e+00
    9.3798965454e+01    8.7554988861e+00
    9.3899009705e+01    8.7684993744e+00
    9.3998992920e+01    8.7814006805e+00
    9.4099067688e+01    8.7940998077e+00
    9.4199058533e+01    8.8066005707e+00
    9.4298950195e+01    8.8190002441e+00
    9.4398979187e+01    8.8311996460e+00
    9.4499099731e+01    8.8432998657e+00
    9.4599098206e+01    8.8551006317e+00
    9.4699066162e+01    8.8668994904e+00
    9.4798995972e+01    8.8784999847e+00
    9.4898948669e+01    8.8899993896e+00
    9.4998939514e+01    8.9013004303e+00
    9.5099014282e+01    8.9125003815e+00
    9.5198974609e+01    8.9235000610e+00
    9.5298995972e+01    8.9344005585e+00
    9.5399063110e+01    8.9450988770e+00
    9.5499069214e+01    8.9557991028e+00
    9.5598960876e+01    8.9661998749e+00
    9.5698982239e+01    8.9765987396e+00
    9.5799026489e+01    8.9867992401e+00
    9.5899078369e+01    8.9967002869e+00
    9.5998947144e+01    9.0067005157e+00
    9.6098976135e+01    9.0164012909e+00
    9.6198974609e+01    9.0259990692e+00
    9.6299003601e+01    9.0352993011e+00
    9.6399070740e+01    9.0445995331e+00
    9.6498947144e+01    9.0536003113e+00
    9.6598953247e+01    9.0625000000e+00
    9.6698928833e+01    9.0711994171e+00
    9.6799049377e+01    9.0797004700e+00
    9.6898971558e+01    9.0882015228e+00
    9.6999076843e+01    9.0963993073e+00
    9.7098937988e+01    9.1044998169e+00
    9.7198974609e+01    9.1124992371e+00
    9.7298912048e+01    9.1203994751e+00
    9.7399055481e+01    9.1281013489e+00
    9.7499008179e+01    9.1357002258e+00
    9.7598922729e+01    9.1431007385e+00
    9.7698928833e+01    9.1504001617e+00
    9.7799018860e+01    9.1576004028e+00
    9.7899002075e+01    9.1646995544e+00
    9.7998908997e+01    9.1716003418e+00
    9.8098945618e+01    9.1784000397e+00
    9.8198989868e+01    9.1851005554e+00
    9.8298927307e+01    9.1915988922e+00
    9.8399032593e+01    9.1979999542e+00
    9.8498947144e+01    9.2040996552e+00
    9.8599029541e+01    9.2101993561e+00
    9.8698898315e+01    9.2162017822e+00
    9.8798881531e+01    9.2219009399e+00
    9.8899024963e+01    9.2275009155e+00
    9.8998886108e+01    9.2330989838e+00
    9.9098922729e+01    9.2383995056e+00
    9.9199020386e+01    9.2436008453e+00
    9.9299049377e+01    9.2488002777e+00
    9.9398948669e+01    9.2537994385e+00
    9.9498939514e+01    9.2587013245e+00
    9.9598899841e+01    9.2633991241e+00
    9.9698875427e+01    9.2679996490e+00
    9.9798973083e+01    9.2723999023e+00
    9.9898933411e+01    9.2767009735e+00
    9.9998931885e+01    9.2808990479e+00
    1.0009902954e+02    9.3023986816e+00
    1.0019895935e+02    9.3238010406e+00
    1.0029888916e+02    9.3451004028e+00
    1.0039891815e+02    9.3663997650e+00
    1.0049889374e+02    9.3874015808e+00
    1.0059890747e+02    9.4083003998e+00
    1.0069886017e+02    9.4291000366e+00
    1.0079886627e+02    9.4496994019e+00
    1.0089900970e+02    9.4701995850e+00
    1.0099894714e+02    9.4905014038e+00
    1.0109899139e+02    9.5106983185e+00
    1.0119901276e+02    9.5307006836e+00
    1.0129894257e+02    9.5506992340e+00
    1.0139893341e+02    9.5706024170e+00
    1.0149890137e+02    9.5903987885e+00
    1.0159886932e+02    9.6101016998e+00
    1.0169893646e+02    9.6297988892e+00
    1.0179895020e+02    9.6492004395e+00
    1.0189888000e+02    9.6686000824e+00
    1.0199893188e+02    9.6879005432e+00
    1.0209889221e+02    9.7068004608e+00
    1.0219882965e+02    9.7257022858e+00
    1.0229891968e+02    9.7444000244e+00
    1.0239894867e+02    9.7630996704e+00
    1.0249891663e+02    9.7814979553e+00
    1.0259889984e+02    9.7996997833e+00
    1.0269891357e+02    9.8177986145e+00
    1.0279884338e+02    9.8358001709e+00
    1.0289882660e+02    9.8534984589e+00
    1.0299896240e+02    9.8710994720e+00
    1.0309884644e+02    9.8885993958e+00
    1.0319883728e+02    9.9059009552e+00
    1.0329885864e+02    9.9229984283e+00
    1.0339890289e+02    9.9400005341e+00
    1.0349893188e+02    9.9568977356e+00
    1.0359889221e+02    9.9736995697e+00
    1.0369889832e+02    9.9904022217e+00
    1.0379881287e+02    1.0006900787e+01
    1.0389884186e+02    1.0023302078e+01
    1.0399883270e+02    1.0039499283e+01
    1.0409895325e+02    1.0055601120e+01
    1.0419892883e+02    1.0071498871e+01
    1.0429884338e+02    1.0087301254e+01
    1.0439891815e+02    1.0102899551e+01
    1.0449884796e+02    1.0118202209e+01
    1.0459883881e+02    1.0133499146e+01
    1.0469892883e+02    1.0148700714e+01
    1.0479882050e+02    1.0163599014e+01
    1.0489888000e+02    1.0178501129e+01
    1.0499884796e+02    1.0193099976e+01
    1.0509893036e+02    1.0207799911e+01
    1.0519892883e+02    1.0222202301e+01
    1.0529891205e+02    1.0236400604e+01
    1.0539888000e+02    1.0250497818e+01
    1.0549889374e+02    1.0264499664e+01
    1.0559893799e+02    1.0278301239e+01
    1.0569888306e+02    1.0292098999e+01
    1.0579888153e+02    1.0305601120e+01
    1.0589882660e+02    1.0319000244e+01
    1.0599890137e+02    1.0332199097e+01
    1.0609880829e+02    1.0345399857e+01
    1.0619891357e+02    1.0358301163e+01
    1.0629891968e+02    1.0371099472e+01
    1.0639891815e+02    1.0383701324e+01
    1.0649886322e+02    1.0395999908e+01
    1.0659889984e+02    1.0408300400e+01
    1.0669886780e+02    1.0420299530e+01
    1.0679878998e+02    1.0432197571e+01
    1.0689890289e+02    1.0443998337e+01
    1.0699884033e+02    1.0455602646e+01
    1.0709887695e+02    1.0467098236e+01
    1.0719886017e+02    1.0478401184e+01
    1.0729892731e+02    1.0489599228e+01
    1.0739888000e+02    1.0500699997e+01
    1.0749880981e+02    1.0511600494e+01
    1.0759884644e+02    1.0522399902e+01
    1.0769880676e+02    1.0533098221e+01
    1.0779876709e+02    1.0543701172e+01
    1.0789891052e+02    1.0553998947e+01
    1.0799880981e+02    1.0564399719e+01
    1.0809876251e+02    1.0574598312e+01
    1.0819879150e+02    1.0584501266e+01
    1.0829882812e+02    1.0594497681e+01
    1.0839884949e+02    1.0604200363e+01
    1.0849874878e+02    1.0613698959e+01
    1.0859873199e+02    1.0623300552e+01
    1.0869891357e+02    1.0632501602e+01
    1.0879885101e+02    1.0641599655e+01
    1.0889880371e+02    1.0650701523e+01
    1.0899874878e+02    1.0659599304e+01
    1.0909882355e+02    1.0668300629e+01
    1.0919873810e+02    1.0676900864e+01
    1.0929882050e+02    1.0685401917e+01
    1.0939888763e+02    1.0693798065e+01
    1.0949877930e+02    1.0702102661e+01
    1.0959877777e+02    1.0710199356e+01
    1.0969877625e+02    1.0718400955e+01
    1.0979876709e+02    1.0726299286e+01
    1.0989875793e+02    1.0734102249e+01
    1.0999880219e+02    1.0741899490e+01
    1.1009886169e+02    1.0770698547e+01
    1.1019870758e+02    1.0799499512e+01
    1.1029881287e+02    1.0828401566e+01
    1.1039881897e+02    1.0857198715e+01
    1.1049880981e+02    1.0885902405e+01
    1.1059874725e+02    1.0914400101e+01
    1.1069873810e+02    1.0942899704e+01
    1.1079885101e+02    1.0971302032e+01
    1.1089878082e+02    1.0999599457e+01
    1.1099881744e+02    1.1027599335e+01
    1.1109870911e+02    1.1055698395e+01
    1.1119877625e+02    1.1083599091e+01
    1.1129882050e+02    1.1111497879e+01
    1.1139884186e+02    1.1139400482e+01
    1.1149875641e+02    1.1167200089e+01
    1.1159871674e+02    1.1194898605e+01
    1.1169876862e+02    1.1222501755e+01
    1.1179882050e+02    1.1250099182e+01
    1.1189884186e+02    1.1277502060e+01
    1.1199886322e+02    1.1304800034e+01
    1.1209867859e+02    1.1331901550e+01
    1.1219873810e+02    1.1359001160e+01
    1.1229868317e+02    1.1385799408e+01
    1.1239874268e+02    1.1412597656e+01
    1.1249874115e+02    1.1439300537e+01
    1.1259877014e+02    1.1465702057e+01
    1.1269883728e+02    1.1492099762e+01
    1.1279879761e+02    1.1518402100e+01
    1.1289877319e+02    1.1544498444e+01
    1.1299874878e+02    1.1570400238e+01
    1.1309880829e+02    1.1596199036e+01
    1.1319882965e+02    1.1621898651e+01
    1.1329881287e+02    1.1647300720e+01
    1.1339878845e+02    1.1672698975e+01
    1.1349877930e+02    1.1697898865e+01
    1.1359870148e+02    1.1723098755e+01
    1.1369879150e+02    1.1748100281e+01
    1.1379875946e+02    1.1773097992e+01
    1.1389871216e+02    1.1797901154e+01
    1.1399874115e+02    1.1822498322e+01
    1.1409877014e+02    1.1847000122e+01
    1.1419879913e+02    1.1871501923e+01
    1.1429881287e+02    1.1895698547e+01
    1.1439880371e+02    1.1919799805e+01
    1.1449871063e+02    1.1943801880e+01
    1.1459874725e+02    1.1967597961e+01
    1.1469879913e+02    1.1991500854e+01
    1.1479876709e+02    1.2015300751e+01
    1.1489865112e+02    1.2039001465e+01
    1.1499873352e+02    1.2062702179e+01
    1.1509873962e+02    1.2086498260e+01
    1.1519866180e+02    1.2110099792e+01
    1.1529866028e+02    1.2133800507e+01
    1.1539875031e+02    1.2157501221e+01
    1.1549871063e+02    1.2181198120e+01
    1.1559868622e+02    1.2204799652e+01
    1.1569869232e+02    1.2228599548e+01
    1.1579863739e+02    1.2252300262e+01
    1.1589862823e+02    1.2276100159e+01
    1.1599868774e+02    1.2299800873e+01
    1.1609874725e+02    1.2323402405e+01
    1.1619870758e+02    1.2347099304e+01
    1.1629866028e+02    1.2370601654e+01
    1.1639874268e+02    1.2394100189e+01
    1.1649867249e+02    1.2417400360e+01
    1.1659861755e+02    1.2440498352e+01
    1.1669870758e+02    1.2463600159e+01
    1.1679865265e+02    1.2486698151e+01
    1.1689875031e+02    1.2509601593e+01
    1.1699867249e+02    1.2532402039e+01
    1.1709877014e+02    1.2555099487e+01
    1.1719859314e+02    1.2577598572e+01
    1.1729872131e+02    1.2600101471e+01
    1.1739877319e+02    1.2622497559e+01
    1.1749864197e+02    1.2644798279e+01
    1.1759870148e+02    1.2667098999e+01
    1.1769869995e+02    1.2689197540e+01
    1.1779873657e+02    1.2711299896e+01
    1.1789877319e+02    1.2733398438e+01
    1.1799870300e+02    1.2755298615e+01
    1.1809868622e+02    1.2777301788e+01
    1.1819867706e+02    1.2799301147e+01
    1.1829869080e+02    1.2821296692e+01
    1.1839862061e+02    1.2843101501e+01
    1.1849871826e+02    1.2865097046e+01
    1.1859860992e+02    1.2886898041e+01
    1.1869872284e+02    1.2908798218e+01
    1.1879862213e+02    1.2930599213e+01
    1.1889861298e+02    1.2952297211e+01
    1.1899871063e+02    1.2974201202e+01
    1.1909858704e+02    1.2995899200e+01
    1.1919867706e+02    1.3017799377e+01
    1.1929872131e+02    1.3039501190e+01
    1.1939861298e+02    1.3061298370e+01
    1.1949868774e+02    1.3083000183e+01
    1.1959864044e+02    1.3104698181e+01
    1.1969863129e+02    1.3126399994e+01
    1.1979869843e+02    1.3148101807e+01
    1.1989866638e+02    1.3169898987e+01
    1.1999858093e+02    1.3191497803e+01
    1.2009867859e+02    1.3236598969e+01
    1.2019856262e+02    1.3281799316e+01
    1.2029869843e+02    1.3327201843e+01
    1.2039855957e+02    1.3372398376e+01
    1.2049855804e+02    1.3417900085e+01
    1.2059868622e+02    1.3463397980e+01
    1.2069870758e+02    1.3508899689e+01
    1.2079866791e+02    1.3554298401e+01
    1.2089855194e+02    1.3599601746e+01
    1.2099855042e+02    1.3645000458e+01
    1.2109855652e+02    1.3690402985e+01
    1.2119862366e+02    1.3735797882e+01
    1.2129860687e+02    1.3781299591e+01
    1.2139871216e+02    1.3826900482e+01
    1.2149852753e+02    1.3872299194e+01
    1.2159870148e+02    1.3917800903e+01
    1.2169860077e+02    1.3963298798e+01
    1.2179860687e+02    1.4008800507e+01
    1.2189859009e+02    1.4054100037e+01
    1.2199865723e+02    1.4099502563e+01
    1.2209867859e+02    1.4144802094e+01
    1.2219856262e+02    1.4189899445e+01
    1.2229859161e+02    1.4235000610e+01
    1.2239865875e+02    1.4280097961e+01
    1.2249858856e+02    1.4325000763e+01
    1.2259868622e+02    1.4369998932e+01
    1.2269857788e+02    1.4414802551e+01
    1.2279862213e+02    1.4459602356e+01
    1.2289856720e+02    1.4504402161e+01
    1.2299864960e+02    1.4549098969e+01
    1.2309861755e+02    1.4593601227e+01
    1.2319857025e+02    1.4638099670e+01
    1.2329866791e+02    1.4682598114e+01
    1.2339864349e+02    1.4726997375e+01
    1.2349857330e+02    1.4771400452e+01
    1.2359851074e+02    1.4815799713e+01
    1.2369857788e+02    1.4860301971e+01
    1.2379863739e+02    1.4904602051e+01
    1.2389861298e+02    1.4949001312e+01
    1.2399857330e+02    1.4993297577e+01
    1.2409866333e+02    1.5037601471e+01
    1.2419859314e+02    1.5081798553e+01
    1.2429862976e+02    1.5125999451e+01
    1.2439855957e+02    1.5170101166e+01
    1.2449858093e+02    1.5214099884e+01
    1.2459860992e+02    1.5258201599e+01
    1.2469847870e+02    1.5302196503e+01
    1.2479860687e+02    1.5346302032e+01
    1.2489862823e+02    1.5390399933e+01
    1.2499848175e+02    1.5434299469e+01
    1.2509848785e+02    1.5478298187e+01
    1.2519853210e+02    1.5522399902e+01
    1.2529847717e+02    1.5566299438e+01
    1.2539849854e+02    1.5610198975e+01
    1.2549852753e+02    1.5653999329e+01
    1.2559858704e+02    1.5697898865e+01
    1.2569860840e+02    1.5741699219e+01
    1.2579850769e+02    1.5785396576e+01
    1.2589858246e+02    1.5829101562e+01
    1.2599852753e+02    1.5872798920e+01
    1.2609851837e+02    1.5916297913e+01
    1.2619860077e+02    1.5959899902e+01
    1.2629859924e+02    1.6003299713e+01
    1.2639849854e+02    1.6046600342e+01
    1.2649848175e+02    1.6089900970e+01
    1.2659853363e+02    1.6132900238e+01
    1.2669847870e+02    1.6175899506e+01
    1.2679846954e+02    1.6218898773e+01
    1.2689852905e+02    1.6261798859e+01
    1.2699861908e+02    1.6304702759e+01
    1.2709854126e+02    1.6347297668e+01
    1.2719860840e+02    1.6389999390e+01
    1.2729846954e+02    1.6432498932e+01
    1.2739855194e+02    1.6474899292e+01
    1.2749859619e+02    1.6517299652e+01
    1.2759858704e+02    1.6559600830e+01
    1.2769860077e+02    1.6601799011e+01
    1.2779853821e+02    1.6643901825e+01
    1.2789846802e+02    1.6685897827e+01
    1.2799845123e+02    1.6727798462e+01
    1.2809846497e+02    1.6769699097e+01
    1.2819851685e+02    1.6811595917e+01
    1.2829855347e+02    1.6853401184e+01
    1.2839849854e+02    1.6895198822e+01
    1.2849847412e+02    1.6936801910e+01
    1.2859855652e+02    1.6978397369e+01
    1.2869859314e+02    1.7019901276e+01
    1.2879861450e+02    1.7061397552e+01
    1.2889855957e+02    1.7102802277e+01
    1.2899859619e+02    1.7144199371e+01
    1.2909864807e+02    1.7185501099e+01
    1.2919850159e+02    1.7226799011e+01
    1.2929866028e+02    1.7268001556e+01
    1.2939849854e+02    1.7309101105e+01
    1.2949856567e+02    1.7350196838e+01
    1.2959854126e+02    1.7391201019e+01
    1.2969856262e+02    1.7432197571e+01
    1.2979859924e+02    1.7472900391e+01
    1.2989860535e+02    1.7513698578e+01
    1.2999867249e+02    1.7554203033e+01
    1.3009855652e+02    1.7619998932e+01
    1.3019866943e+02    1.7686096191e+01
    1.3029856873e+02    1.7751998901e+01
    1.3039860535e+02    1.7817901611e+01
    1.3049873352e+02    1.7883796692e+01
    1.3059861755e+02    1.7949298859e+01
    1.3069860840e+02    1.8014900208e+01
    1.3079870605e+02    1.8080299377e+01
    1.3089869690e+02    1.8145500183e+01
    1.3099877930e+02    1.8210700989e+01
    1.3109866333e+02    1.8275604248e+01
    1.3119879150e+02    1.8340503693e+01
    1.3129873657e+02    1.8405303955e+01
    1.3139869690e+02    1.8470096588e+01
    1.3149873352e+02    1.8534904480e+01
    1.3159877014e+02    1.8599494934e+01
    1.3169868469e+02    1.8663997650e+01
    1.3179873657e+02    1.8728397369e+01
    1.3189866638e+02    1.8792697906e+01
    1.3199873352e+02    1.8856899261e+01
    1.3209867859e+02    1.8920902252e+01
    1.3219885254e+02    1.8984798431e+01
    1.3229873657e+02    1.9048500061e+01
    1.3239875793e+02    1.9111999512e+01
    1.3249885559e+02    1.9175498962e+01
    1.3259869385e+02    1.9238502502e+01
    1.3269874573e+02    1.9301601410e+01
    1.3279879761e+02    1.9364501953e+01
    1.3289883423e+02    1.9427204132e+01
    1.3299884033e+02    1.9489501953e+01
    1.3309878540e+02    1.9551704407e+01
    1.3319885254e+02    1.9613704681e+01
    1.3329884338e+02    1.9675296783e+01
    1.3339892578e+02    1.9736896515e+01
    1.3349884033e+02    1.9798099518e+01
    1.3359878540e+02    1.9859199524e+01
    1.3369877625e+02    1.9920101166e+01
    1.3379888916e+02    1.9980899811e+01
    1.3389889526e+02    2.0041297913e+01
    1.3399887085e+02    2.0101600647e+01
    1.3409890747e+02    2.0161602020e+01
    1.3419897461e+02    2.0221500397e+01
    1.3429887390e+02    2.0281002045e+01
    1.3439880371e+02    2.0340305328e+01
    1.3449896240e+02    2.0399600983e+01
    1.3459886169e+02    2.0458396912e+01
    1.3469900513e+02    2.0517204285e+01
    1.3479890442e+02    2.0575798035e+01
    1.3489892578e+02    2.0634296417e+01
    1.3499890137e+02    2.0692497253e+01
    1.3509890747e+02    2.0750499725e+01
    1.3519891357e+02    2.0808399200e+01
    1.3529893494e+02    2.0865997314e+01
    1.3539889526e+02    2.0923301697e+01
    1.3549890137e+02    2.0980602264e+01
    1.3559887695e+02    2.1037403107e+01
    1.3569897461e+02    2.1094200134e+01
    1.3579901123e+02    2.1150802612e+01
    1.3589898682e+02    2.1207000732e+01
    1.3599890137e+02    2.1262905121e+01
    1.3609898376e+02    2.1318702698e+01
    1.3619894409e+02    2.1374195099e+01
    1.3629898071e+02    2.1429496765e+01
    1.3639910889e+02    2.1484504700e+01
    1.3649894714e+02    2.1539096832e+01
    1.3659907532e+02    2.1593498230e+01
    1.3669912720e+02    2.1647598267e+01
    1.3679899597e+02    2.1701396942e+01
    1.3689895630e+02    2.1754901886e+01
    1.3699903870e+02    2.1808300018e+01
    1.3709899902e+02    2.1861400604e+01
    1.3719905090e+02    2.1914199829e+01
    1.3729899597e+02    2.1966701508e+01
    1.3739915466e+02    2.2019001007e+01
    1.3749913025e+02    2.2070899963e+01
    1.3759915161e+02    2.2122600555e+01
    1.3769909668e+02    2.2173801422e+01
    1.3779910278e+02    2.2224803925e+01
    1.3789910889e+02    2.2275604248e+01
    1.3799906921e+02    2.2325996399e+01
    1.3809921265e+02    2.2376201630e+01
    1.3819921875e+02    2.2426002502e+01
    1.3829916382e+02    2.2475498199e+01
    1.3839907837e+02    2.2524597168e+01
    1.3849917603e+02    2.2573497772e+01
    1.3859916687e+02    2.2621997833e+01
    1.3869920349e+02    2.2670299530e+01
    1.3879908752e+02    2.2718101501e+01
    1.3889912415e+02    2.2765701294e+01
    1.3899908447e+02    2.2813003540e+01
    1.3909922791e+02    2.2860099792e+01
    1.3919911194e+02    2.2906803131e+01
    1.3929922485e+02    2.2953300476e+01
    1.3939927673e+02    2.2999500275e+01
    1.3949929810e+02    2.3045501709e+01
    1.3959913635e+02    2.3090995789e+01
    1.3969929504e+02    2.3136501312e+01
    1.3979917908e+02    2.3181396484e+01
    1.3989920044e+02    2.3226097107e+01
    1.3999916077e+02    2.3270599365e+01
    1.4009925842e+02    2.3339401245e+01
    1.4019923401e+02    2.3408195496e+01
    1.4029917908e+02    2.3476501465e+01
    1.4039918518e+02    2.3544597626e+01
    1.4049929810e+02    2.3612499237e+01
    1.4059925842e+02    2.3680000305e+01
    1.4069934082e+02    2.3747203827e+01
    1.4079927063e+02    2.3813800812e+01
    1.4089927673e+02    2.3880302429e+01
    1.4099934387e+02    2.3946304321e+01
    1.4109927368e+02    2.4012001038e+01
    1.4119932556e+02    2.4077400208e+01
    1.4129925537e+02    2.4142398834e+01
    1.4139933777e+02    2.4207298279e+01
    1.4149928284e+02    2.4271701813e+01
    1.4159936523e+02    2.4335895538e+01
    1.4169929504e+02    2.4399700165e+01
    1.4179933167e+02    2.4463203430e+01
    1.4189935303e+02    2.4526199341e+01
    1.4199931335e+02    2.4589000702e+01
    1.4209941101e+02    2.4651401520e+01
    1.4219935608e+02    2.4713199615e+01
    1.4229931641e+02    2.4774803162e+01
    1.4239945984e+02    2.4835903168e+01
    1.4249943542e+02    2.4896697998e+01
    1.4259944153e+02    2.4957000732e+01
    1.4269938660e+02    2.5016895294e+01
    1.4279943848e+02    2.5076599121e+01
    1.4289932251e+02    2.5135604858e+01
    1.4299949646e+02    2.5194305420e+01
    1.4309941101e+02    2.5252502441e+01
    1.4319949341e+02    2.5310203552e+01
    1.4329942322e+02    2.5367500305e+01
    1.4339950562e+02    2.5424400330e+01
    1.4349949646e+02    2.5480903625e+01
    1.4359938049e+02    2.5536895752e+01
    1.4369952393e+02    2.5592597961e+01
    1.4379948425e+02    2.5647705078e+01
    1.4389949036e+02    2.5702598572e+01
    1.4399946594e+02    2.5756805420e+01
    1.4409941101e+02    2.5810699463e+01
    1.4419946289e+02    2.5864097595e+01
    1.4429953003e+02    2.5916999817e+01
    1.4439956665e+02    2.5969497681e+01
    1.4449946594e+02    2.6021499634e+01
    1.4459945679e+02    2.6073097229e+01
    1.4469944763e+02    2.6124397278e+01
    1.4479957581e+02    2.6175201416e+01
    1.4489962769e+02    2.6225700378e+01
    1.4499945068e+02    2.6275703430e+01
    1.4509954834e+02    2.6325401306e+01
    1.4519961548e+02    2.6374801636e+01
    1.4529960632e+02    2.6423599243e+01
    1.4539959717e+02    2.6472099304e+01
    1.4549951172e+02    2.6520095825e+01
    1.4559948730e+02    2.6567802429e+01
    1.4569955444e+02    2.6615104675e+01
    1.4579965210e+02    2.6662002563e+01
    1.4589964294e+02    2.6708496094e+01
    1.4599964905e+02    2.6754501343e+01
    1.4609959412e+02    2.6799995422e+01
    1.4619966125e+02    2.6845199585e+01
    1.4629966736e+02    2.6889801025e+01
    1.4639953613e+02    2.6933898926e+01
    1.4649963379e+02    2.6977500916e+01
    1.4659959412e+02    2.7020599365e+01
    1.4669969177e+02    2.7063301086e+01
    1.4679971313e+02    2.7105499268e+01
    1.4689965820e+02    2.7147193909e+01
    1.4699966431e+02    2.7188499451e+01
    1.4709962463e+02    2.7229202271e+01
    1.4719961548e+02    2.7269500732e+01
    1.4729971313e+02    2.7309295654e+01
    1.4739970398e+02    2.7348701477e+01
    1.4749960327e+02    2.7387496948e+01
    1.4759959412e+02    2.7425804138e+01
    1.4769967651e+02    2.7463806152e+01
    1.4779972839e+02    2.7501197815e+01
    1.4789979553e+02    2.7538299561e+01
    1.4799966431e+02    2.7574798584e+01
    1.4809965515e+02    2.7610702515e+01
    1.4819970703e+02    2.7646400452e+01
    1.4829981995e+02    2.7681602478e+01
    1.4839965820e+02    2.7716300964e+01
    1.4849980164e+02    2.7750602722e+01
    1.4859980774e+02    2.7784294128e+01
    1.4869973755e+02    2.7817695618e+01
    1.4879968262e+02    2.7850799561e+01
    1.4889970398e+02    2.7882400513e+01
    1.4899977112e+02    2.7914398193e+01
    1.4909977722e+02    2.7946098328e+01
    1.4919973755e+02    2.7977401733e+01
    1.4929983521e+02    2.8008102417e+01
    1.4939976501e+02    2.8038604736e+01
    1.4949981689e+02    2.8068504333e+01
    1.4959986877e+02    2.8097900391e+01
    1.4969989014e+02    2.8125999451e+01
    1.4979981995e+02    2.8154701233e+01
    1.4989985657e+02    2.8182800293e+01
    1.4999977112e+02    2.8210601807e+01
    1.5009980774e+02    2.8260902405e+01
    1.5019978333e+02    2.8311698914e+01
    1.5029983521e+02    2.8362098694e+01
    1.5039993286e+02    2.8411903381e+01
    1.5049981689e+02    2.8461593628e+01
    1.5059982300e+02    2.8509803772e+01
    1.5069981384e+02    2.8558494568e+01
    1.5079986572e+02    2.8606597900e+01
    1.5089996338e+02    2.8654197693e+01
    1.5099995422e+02    2.8701499939e+01
    1.5109996033e+02    2.8747406006e+01
    1.5119987488e+02    2.8793998718e+01
    1.5129997253e+02    2.8839805603e+01
    1.5139984131e+02    2.8885696411e+01
    1.5149986267e+02    2.8929901123e+01
    1.5159991455e+02    2.8974601746e+01
    1.5169996643e+02    2.9018905640e+01
    1.5179989624e+02    2.9062896729e+01
    1.5189994812e+02    2.9106300354e+01
    1.5199995422e+02    2.9148200989e+01
    1.5209996033e+02    2.9190704346e+01
    1.5219998169e+02    2.9232597351e+01
    1.5229997253e+02    2.9274002075e+01
    1.5239997864e+02    2.9315002441e+01
    1.5249992371e+02    2.9354598999e+01
    1.5260000610e+02    2.9394401550e+01
    1.5269993591e+02    2.9434097290e+01
    1.5280009460e+02    2.9472801208e+01
    1.5289999390e+02    2.9510498047e+01
    1.5299998474e+02    2.9548500061e+01
    1.5309999084e+02    2.9585998535e+01
    1.5319996643e+02    2.9623001099e+01
    1.5330006409e+02    2.9659294128e+01
    1.5339997864e+02    2.9694503784e+01
    1.5350001526e+02    2.9729995728e+01
    1.5360005188e+02    2.9764999390e+01
    1.5370013428e+02    2.9799507141e+01
    1.5380017090e+02    2.9833602905e+01
    1.5390007019e+02    2.9866600037e+01
    1.5400004578e+02    2.9899795532e+01
    1.5410003662e+02    2.9932701111e+01
    1.5420008850e+02    2.9964797974e+01
    1.5430006409e+02    2.9995704651e+01
    1.5440019226e+02    3.0026901245e+01
    1.5450003052e+02    3.0058105469e+01
    1.5460011292e+02    3.0088394165e+01
    1.5470007324e+02    3.0117599487e+01
    1.5480012512e+02    3.0147094727e+01
    1.5490022278e+02    3.0176200867e+01
    1.5500024414e+02    3.0205093384e+01
    1.5510014343e+02    3.0233703613e+01
    1.5520019531e+02    3.0261505127e+01
    1.5530018616e+02    3.0288101196e+01
    1.5540008545e+02    3.0315505981e+01
    1.5550024414e+02    3.0341896057e+01
    1.5560023499e+02    3.0368202209e+01
    1.5570021057e+02    3.0393096924e+01
    1.5580010986e+02    3.0418701172e+01
    1.5590017700e+02    3.0443595886e+01
    1.5600024414e+02    3.0468101501e+01
    1.5610029602e+02    3.0492095947e+01
    1.5620025635e+02    3.0514900208e+01
    1.5630024719e+02    3.0538093567e+01
    1.5640020752e+02    3.0560897827e+01
    1.5650024414e+02    3.0583106995e+01
    1.5660021973e+02    3.0603897095e+01
    1.5670025635e+02    3.0625205994e+01
    1.5680030823e+02    3.0645996094e+01
    1.5690031433e+02    3.0666404724e+01
    1.5700024414e+02    3.0686599731e+01
    1.5710021973e+02    3.0705299377e+01
    1.5720030212e+02    3.0724296570e+01
    1.5730026245e+02    3.0743202209e+01
    1.5740025330e+02    3.0761497498e+01
    1.5750027466e+02    3.0778305054e+01
    1.5760028076e+02    3.0795799255e+01
    1.5770037842e+02    3.0812599182e+01
    1.5780035400e+02    3.0829299927e+01
    1.5790037537e+02    3.0845397949e+01
    1.5800024414e+02    3.0860504150e+01
    1.5810035706e+02    3.0875701904e+01
    1.5820031738e+02    3.0890800476e+01
    1.5830044556e+02    3.0905197144e+01
    1.5840039062e+02    3.0919502258e+01
    1.5850033569e+02    3.0932495117e+01
    1.5860043335e+02    3.0945701599e+01
    1.5870045471e+02    3.0958801270e+01
    1.5880041504e+02    3.0971504211e+01
    1.5890046692e+02    3.0983795166e+01
    1.5900047302e+02    3.0994697571e+01
    1.5910043335e+02    3.1006500244e+01
    1.5920048523e+02    3.1017700195e+01
    1.5930041504e+02    3.1028800964e+01
    1.5940039062e+02    3.1038497925e+01
    1.5950047302e+02    3.1048606873e+01
    1.5960043335e+02    3.1058601379e+01
    1.5970042419e+02    3.1068199158e+01
    1.5980044556e+02    3.1077400208e+01
    1.5990049744e+02    3.1085205078e+01
    1.6000050354e+02    3.1093696594e+01
    1.6010040283e+02    3.1124099731e+01
    1.6020037842e+02    3.1152999878e+01
    1.6030039978e+02    3.1182502747e+01
    1.6040049744e+02    3.1211402893e+01
    1.6050053406e+02    3.1240203857e+01
    1.6060058594e+02    3.1268600464e+01
    1.6070048523e+02    3.1295898438e+01
    1.6080049133e+02    3.1323699951e+01
    1.6090060425e+02    3.1350898743e+01
    1.6100056458e+02    3.1376998901e+01
    1.6110046387e+02    3.1403900146e+01
    1.6120057678e+02    3.1430099487e+01
    1.6130053711e+02    3.1455299377e+01
    1.6140049744e+02    3.1481201172e+01
    1.6150047302e+02    3.1505798340e+01
    1.6160058594e+02    3.1530807495e+01
    1.6170053101e+02    3.1555900574e+01
    1.6180052185e+02    3.1580604553e+01
    1.6190049744e+02    3.1604003906e+01
    1.6200065613e+02    3.1627593994e+01
    1.6210052490e+02    3.1651603699e+01
    1.6220053101e+02    3.1673904419e+01
    1.6230056763e+02    3.1696891785e+01
    1.6240063477e+02    3.1719398499e+01
    1.6250053406e+02    3.1740997314e+01
    1.6260067749e+02    3.1762802124e+01
    1.6270054626e+02    3.1784797668e+01
    1.6280070496e+02    3.1805900574e+01
    1.6290061951e+02    3.1826202393e+01
    1.6300067139e+02    3.1846794128e+01
    1.6310061646e+02    3.1867202759e+01
    1.6320060730e+02    3.1886199951e+01
    1.6330059814e+02    3.1906005859e+01
    1.6340063477e+02    3.1924995422e+01
    1.6350068665e+02    3.1943000793e+01
    1.6360063171e+02    3.1962005615e+01
    1.6370066833e+02    3.1979995728e+01
    1.6380072021e+02    3.1998001099e+01
    1.6390072632e+02    3.2014999390e+01
    1.6400071716e+02    3.2032997131e+01
    1.6410064697e+02    3.2048995972e+01
    1.6420063782e+02    3.2066001892e+01
    1.6430072021e+02    3.2082008362e+01
    1.6440071106e+02    3.2098999023e+01
    1.6450065613e+02    3.2113998413e+01
    1.6460070801e+02    3.2130004883e+01
    1.6470083618e+02    3.2144996643e+01
    1.6480068970e+02    3.2159996033e+01
    1.6490072632e+02    3.2175003052e+01
    1.6500082397e+02    3.2189994812e+01
    1.6510078430e+02    3.2204010010e+01
    1.6520083618e+02    3.2218002319e+01
    1.6530081177e+02    3.2232002258e+01
    1.6540074158e+02    3.2245002747e+01
    1.6550079346e+02    3.2258995056e+01
    1.6560081482e+02    3.2272003174e+01
    1.6570071411e+02    3.2284004211e+01
    1.6580085754e+02    3.2296997070e+01
    1.6590084839e+02    3.2308998108e+01
    1.6600079346e+02    3.2322006226e+01
    1.6610087585e+02    3.2332008362e+01
    1.6620080566e+02    3.2343994141e+01
    1.6630082703e+02    3.2356002808e+01
    1.6640077209e+02    3.2366004944e+01
    1.6650077820e+02    3.2376991272e+01
    1.6660089111e+02    3.2388000488e+01
    1.6670089722e+02    3.2397994995e+01
    1.6680081177e+02    3.2408004761e+01
    1.6690092468e+02    3.2417999268e+01
    1.6700082397e+02    3.2427001953e+01
    1.6710096741e+02    3.2436004639e+01
    1.6720083618e+02    3.2445999146e+01
    1.6730088806e+02    3.2455001831e+01
    1.6740093994e+02    3.2463005066e+01
    1.6750094604e+02    3.2471992493e+01
    1.6760084534e+02    3.2480003357e+01
    1.6770088196e+02    3.2487998962e+01
    1.6780085754e+02    3.2496009827e+01
    1.6790100098e+02    3.2502998352e+01
    1.6800091553e+02    3.2509994507e+01
    1.6810095215e+02    3.2517005920e+01
    1.6820097351e+02    3.2523994446e+01
    1.6830091858e+02    3.2529991150e+01
    1.6840100098e+02    3.2537002563e+01
    1.6850091553e+02    3.2543991089e+01
    1.6860095215e+02    3.2550003052e+01
    1.6870094299e+02    3.2555000305e+01
    1.6880099487e+02    3.2561004639e+01
    1.6890107727e+02    3.2566993713e+01
    1.6900109863e+02    3.2572006226e+01
    1.6910104370e+02    3.2577003479e+01
    1.6920100403e+02    3.2582992554e+01
    1.6930096436e+02    3.2586990356e+01
    1.6940095520e+02    3.2592002869e+01
    1.6950094604e+02    3.2597007751e+01
    1.6960098267e+02    3.2601005554e+01
    1.6970108032e+02    3.2604995728e+01
    1.6980099487e+02    3.2610000610e+01
    1.6990109253e+02    3.2613998413e+01
    1.7000100708e+02    3.2617996216e+01
    1.7010107422e+02    3.2641998291e+01
    1.7020101929e+02    3.2665000916e+01
    1.7030110168e+02    3.2690002441e+01
    1.7040118408e+02    3.2712997437e+01
    1.7050117493e+02    3.2735992432e+01
    1.7060102844e+02    3.2760009766e+01
    1.7070103455e+02    3.2783004761e+01
    1.7080108643e+02    3.2805999756e+01
    1.7090107727e+02    3.2827995300e+01
    1.7100103760e+02    3.2851005554e+01
    1.7110122681e+02    3.2873001099e+01
    1.7120114136e+02    3.2894996643e+01
    1.7130107117e+02    3.2918006897e+01
    1.7140122986e+02    3.2939002991e+01
    1.7150117493e+02    3.2960998535e+01
    1.7160116577e+02    3.2982994080e+01
    1.7170111084e+02    3.3005004883e+01
    1.7180110168e+02    3.3027000427e+01
    1.7190113831e+02    3.3047996521e+01
    1.7200114441e+02    3.3070007324e+01
    1.7210112000e+02    3.3091003418e+01
    1.7220124817e+02    3.3111999512e+01
    1.7230122375e+02    3.3132995605e+01
    1.7240118408e+02    3.3154006958e+01
    1.7250115967e+02    3.3173995972e+01
    1.7260125732e+02    3.3194999695e+01
    1.7270121765e+02    3.3215003967e+01
    1.7280128479e+02    3.3235992432e+01
    1.7290121460e+02    3.3256004333e+01
    1.7300120544e+02    3.3275001526e+01
    1.7310127258e+02    3.3294998169e+01
    1.7320126343e+02    3.3314002991e+01
    1.7330123901e+02    3.3333000183e+01
    1.7340136719e+02    3.3351997375e+01
    1.7350125122e+02    3.3370994568e+01
    1.7360122681e+02    3.3388999939e+01
    1.7370132446e+02    3.3407997131e+01
    1.7380130005e+02    3.3425994873e+01
    1.7390130615e+02    3.3444007874e+01
    1.7400138855e+02    3.3461997986e+01
    1.7410134888e+02    3.3479995728e+01
    1.7420135498e+02    3.3497993469e+01
    1.7430131531e+02    3.3516006470e+01
    1.7440138245e+02    3.3532997131e+01
    1.7450137329e+02    3.3550994873e+01
    1.7460137939e+02    3.3568008423e+01
    1.7470144653e+02    3.3586990356e+01
    1.7480131531e+02    3.3602996826e+01
    1.7490141296e+02    3.3620010376e+01
    1.7500131226e+02    3.3637001038e+01
    1.7510133362e+02    3.3653999329e+01
    1.7520135498e+02    3.3669998169e+01
    1.7530143738e+02    3.3687995911e+01
    1.7540148926e+02    3.3703994751e+01
    1.7550134277e+02    3.3718994141e+01
    1.7560150146e+02    3.3735992432e+01
    1.7570135498e+02    3.3751998901e+01
    1.7580134583e+02    3.3768005371e+01
    1.7590138245e+02    3.3783004761e+01
    1.7600149536e+02    3.3798995972e+01
    1.7610136414e+02    3.3814987183e+01
    1.7620141602e+02    3.3830001831e+01
    1.7630137634e+02    3.3845001221e+01
    1.7640150452e+02    3.3860000610e+01
    1.7650152588e+02    3.3875000000e+01
    1.7660145569e+02    3.3889999390e+01
    1.7670149231e+02    3.3903991699e+01
    1.7680145264e+02    3.3919006348e+01
    1.7690144348e+02    3.3932998657e+01
    1.7700144958e+02    3.3947006226e+01
    1.7710153198e+02    3.3960998535e+01
    1.7720158386e+02    3.3975006104e+01
    1.7730151367e+02    3.3988998413e+01
    1.7740153503e+02    3.4001998901e+01
    1.7750146484e+02    3.4016006470e+01
    1.7760145569e+02    3.4029006958e+01
    1.7770161438e+02    3.4042999268e+01
    1.7780151367e+02    3.4054992676e+01
    1.7790161133e+02    3.4069000244e+01
    1.7800149536e+02    3.4080001831e+01
    1.7810151672e+02    3.4093002319e+01
    1.7820158386e+02    3.4106002808e+01
    1.7830154419e+02    3.4118988037e+01
    1.7840161133e+02    3.4131011963e+01
    1.7850158691e+02    3.4143005371e+01
    1.7860151672e+02    3.4154998779e+01
    1.7870167542e+02    3.4167007446e+01
    1.7880162048e+02    3.4179000854e+01
    1.7890161133e+02    3.4190994263e+01
    1.7900164795e+02    3.4201995850e+01
    1.7910169983e+02    3.4214004517e+01
    1.7920173645e+02    3.4225006104e+01
    1.7930171204e+02    3.4235992432e+01
    1.7940173340e+02    3.4247009277e+01
    1.7950172424e+02    3.4257995605e+01
    1.7960163879e+02    3.4270004272e+01
    1.7970161438e+02    3.4279998779e+01
    1.7980163574e+02    3.4291000366e+01
    1.7990171814e+02    3.4300994873e+01
    1.8000169373e+02    3.4313003540e+01
    1.8010169983e+02    3.4339996338e+01
    1.8020170593e+02    3.4367996216e+01
    1.8030168152e+02    3.4395004272e+01
    1.8040162659e+02    3.4421997070e+01
    1.8050178528e+02    3.4449005127e+01
    1.8060171509e+02    3.4475997925e+01
    1.8070164490e+02    3.4503997803e+01
    1.8080169678e+02    3.4529998779e+01
    1.8090168762e+02    3.4557006836e+01
    1.8100175476e+02    3.4583007812e+01
    1.8110174561e+02    3.4610000610e+01
    1.8120179749e+02    3.4634994507e+01
    1.8130183411e+02    3.4662002563e+01
    1.8140180969e+02    3.4688003540e+01
    1.8150175476e+02    3.4712997437e+01
    1.8160176086e+02    3.4740005493e+01
    1.8170187378e+02    3.4766006470e+01
    1.8180172729e+02    3.4791000366e+01
    1.8190174866e+02    3.4816009521e+01
    1.8200172424e+02    3.4842010498e+01
    1.8210182190e+02    3.4865997314e+01
    1.8220178223e+02    3.4891998291e+01
    1.8230181885e+02    3.4916000366e+01
    1.8240179443e+02    3.4940994263e+01
    1.8250190735e+02    3.4965011597e+01
    1.8260176086e+02    3.4988998413e+01
    1.8270184326e+02    3.5013000488e+01
    1.8280178833e+02    3.5036987305e+01
    1.8290185547e+02    3.5060989380e+01
    1.8300178528e+02    3.5083999634e+01
    1.8310194397e+02    3.5107009888e+01
    1.8320190430e+02    3.5131011963e+01
    1.8330183411e+02    3.5152999878e+01
    1.8340191650e+02    3.5174987793e+01
    1.8350190735e+02    3.5197998047e+01
    1.8360188293e+02    3.5220001221e+01
    1.8370193481e+02    3.5243011475e+01
    1.8380186462e+02    3.5263992310e+01
    1.8390191650e+02    3.5287002563e+01
    1.8400201416e+02    3.5306991577e+01
    1.8410185242e+02    3.5328994751e+01
    1.8420190430e+02    3.5350006104e+01
    1.8430201721e+02    3.5372009277e+01
    1.8440197754e+02    3.5391998291e+01
    1.8450190735e+02    3.5412002563e+01
    1.8460202026e+02    3.5432998657e+01
    1.8470191956e+02    3.5453002930e+01
    1.8480191040e+02    3.5473999023e+01
    1.8490203857e+02    3.5492996216e+01
    1.8500205994e+02    3.5513000488e+01
    1.8510206604e+02    3.5532012939e+01
    1.8520199585e+02    3.5551986694e+01
    1.8530194092e+02    3.5570999146e+01
    1.8540205383e+02    3.5589996338e+01
    1.8550207520e+02    3.5608001709e+01
    1.8560209656e+02    3.5626998901e+01
    1.8570213318e+02    3.5645004272e+01
    1.8580212402e+02    3.5662994385e+01
    1.8590200806e+02    3.5680999756e+01
    1.8600199890e+02    3.5697998047e+01
    1.8610209656e+02    3.5716003418e+01
    1.8620199585e+02    3.5733001709e+01
    1.8630201721e+02    3.5751007080e+01
    1.8640213013e+02    3.5766998291e+01
    1.8650204468e+02    3.5783996582e+01
    1.8660205078e+02    3.5800003052e+01
    1.8670202637e+02    3.5815002441e+01
    1.8680203247e+02    3.5832000732e+01
    1.8690208435e+02    3.5848007202e+01
    1.8700204468e+02    3.5863006592e+01
    1.8710205078e+02    3.5876998901e+01
    1.8720210266e+02    3.5892990112e+01
    1.8730221558e+02    3.5906997681e+01
    1.8740209961e+02    3.5922012329e+01
    1.8750212097e+02    3.5934997559e+01
    1.8760206604e+02    3.5949996948e+01
    1.8770219421e+02    3.5961990356e+01
    1.8780215454e+02    3.5975997925e+01
    1.8790219116e+02    3.5988998413e+01
    1.8800216675e+02    3.6001998901e+01
    1.8810223389e+02    3.6013992310e+01
    1.8820225525e+02    3.6027008057e+01
    1.8830218506e+02    3.6039001465e+01
    1.8840226746e+02    3.6050994873e+01
    1.8850219727e+02    3.6063003540e+01
    1.8860217285e+02    3.6074005127e+01
    1.8870216370e+02    3.6085006714e+01
    1.8880218506e+02    3.6095993042e+01
    1.8890214539e+02    3.6106994629e+01
    1.8900215149e+02    3.6117004395e+01
    1.8910215759e+02    3.6128005981e+01
    1.8920225525e+02    3.6136993408e+01
    1.8930218506e+02    3.6147994995e+01
    1.8940223694e+02    3.6155990601e+01
    1.8950221252e+02    3.6166000366e+01
    1.8960218811e+02    3.6175003052e+01
    1.8970223999e+02    3.6182998657e+01
    1.8980230713e+02    3.6190994263e+01
    1.8990228271e+02    3.6199005127e+01
    1.9000233459e+02    3.6206985474e+01
    1.9010226440e+02    3.6229995728e+01
    1.9020223999e+02    3.6251998901e+01
    1.9030227661e+02    3.6274002075e+01
    1.9040235901e+02    3.6294998169e+01
    1.9050224304e+02    3.6315994263e+01
    1.9060235596e+02    3.6337005615e+01
    1.9070237732e+02    3.6356994629e+01
    1.9080236816e+02    3.6378005981e+01
    1.9090226746e+02    3.6397994995e+01
    1.9100228882e+02    3.6417999268e+01
    1.9110241699e+02    3.6436996460e+01
    1.9120243835e+02    3.6456008911e+01
    1.9130244446e+02    3.6474990845e+01
    1.9140238953e+02    3.6493011475e+01
    1.9150233459e+02    3.6511993408e+01
    1.9160244751e+02    3.6529998779e+01
    1.9170233154e+02    3.6548004150e+01
    1.9180238342e+02    3.6565002441e+01
    1.9190237427e+02    3.6582000732e+01
    1.9200245667e+02    3.6598999023e+01
    1.9210235596e+02    3.6614990234e+01
    1.9220248413e+02    3.6631988525e+01
    1.9230247498e+02    3.6648010254e+01
    1.9240240479e+02    3.6664001465e+01
    1.9250245667e+02    3.6679000854e+01
    1.9260237122e+02    3.6692993164e+01
    1.9270245361e+02    3.6707992554e+01
    1.9280247498e+02    3.6722000122e+01
    1.9290240479e+02    3.6735992432e+01
    1.9300241089e+02    3.6749008179e+01
    1.9310252380e+02    3.6763000488e+01
    1.9320243835e+02    3.6774993896e+01
    1.9330244446e+02    3.6788009644e+01
    1.9340243530e+02    3.6800003052e+01
    1.9350259399e+02    3.6811996460e+01
    1.9360255432e+02    3.6823013306e+01
    1.9370251465e+02    3.6833999634e+01
    1.9380259705e+02    3.6843994141e+01
    1.9390254211e+02    3.6854003906e+01
    1.9400248718e+02    3.6863998413e+01
    1.9410249329e+02    3.6874008179e+01
    1.9420245361e+02    3.6882995605e+01
    1.9430261230e+02    3.6891998291e+01
    1.9440264893e+02    3.6900009155e+01
[...]
    2.5130595398e+02    1.2785980225e+01
    2.5140606689e+02    1.2721008301e+01
    2.5150596619e+02    1.2656005859e+01
    2.5160598755e+02    1.2589996338e+01
    2.5170597839e+02    1.2524993896e+01
    2.5180607605e+02    1.2458984375e+01
    2.5190611267e+02    1.2391998291e+01
    2.5200613403e+02    1.2325988770e+01
    2.5210612488e+02    1.2260009766e+01
    2.5220610046e+02    1.2192993164e+01
    2.5230607605e+02    1.2126983643e+01
    2.5240609741e+02    1.2059997559e+01
    2.5250605774e+02    1.1992980957e+01
    2.5260615540e+02    1.1925994873e+01
    2.5270603943e+02    1.1858001709e+01
    2.5280610657e+02    1.1789978027e+01
    2.5290620422e+02    1.1722991943e+01
    2.5300619507e+02    1.1654998779e+01
    2.5310609436e+02    1.1587005615e+01
    2.5320610046e+02    1.1518981934e+01
    2.5330616760e+02    1.1450988770e+01
    2.5340623474e+02    1.1381988525e+01
    2.5350616455e+02    1.1312988281e+01
    2.5360612488e+02    1.1244995117e+01
    2.5370620728e+02    1.1175994873e+01
    2.5380616760e+02    1.1106994629e+01
    2.5390620422e+02    1.1037994385e+01
    2.5400616455e+02    1.0968994141e+01
    2.5410627747e+02    1.0898986816e+01
    2.5420620728e+02    1.0828979492e+01
    2.5430621338e+02    1.0759002686e+01
    2.5440629578e+02    1.0688995361e+01
    2.5450621033e+02    1.0618988037e+01
    2.5460627747e+02    1.0548980713e+01
    2.5470625305e+02    1.0479003906e+01
    2.5480618286e+02    1.0408020020e+01
    2.5490620422e+02    1.0336975098e+01
    2.5500628662e+02    1.0265991211e+01
    2.5510633850e+02    1.0194976807e+01
    2.5520620728e+02    1.0125000000e+01
    2.5530636597e+02    1.0052978516e+01
    2.5540626526e+02    9.9810180664e+00
    2.5550633240e+02    9.9100036621e+00
    2.5560621643e+02    9.8390197754e+00
    2.5570634460e+02    9.7670288086e+00
    2.5580627441e+02    9.6949768066e+00
    2.5590638733e+02    9.6229858398e+00
    2.5600625610e+02    9.5509948730e+00
    2.5610635376e+02    9.4779968262e+00
    2.5620623779e+02    9.4060058594e+00
    2.5630630493e+02    9.3340148926e+00
    2.5640640259e+02    9.2610168457e+00
    2.5650637817e+02    9.1880187988e+00
    2.5660641479e+02    9.1150207520e+00
    2.5670635986e+02    9.0420227051e+00
    2.5680627441e+02    8.9689941406e+00
    2.5690640259e+02    8.8959960938e+00
    2.5700634766e+02    8.8229980469e+00
    2.5710638428e+02    8.7490234375e+00
    2.5720635986e+02    8.6760253906e+00
    2.5730630493e+02    8.6020202637e+00
    2.5740634155e+02    8.5280151367e+00
    2.5750640869e+02    8.4540100098e+00
    2.5760638428e+02    8.3800048828e+00
    2.5770632935e+02    8.3070068359e+00
    2.5780648804e+02    8.2319946289e+00
    2.5790649414e+02    8.1580200195e+00
    2.5800650024e+02    8.0840148926e+00
    2.5810647583e+02    8.0090026855e+00
    2.5820651245e+02    7.9339904785e+00
    2.5830654907e+02    7.8600158691e+00
    2.5840640259e+02    7.7860107422e+00
    2.5850650024e+02    7.7109985352e+00
    2.5860641479e+02    7.6350097656e+00
    2.5870645142e+02    7.5610046387e+00
    2.5880648804e+02    7.4859924316e+00
    2.5890655518e+02    7.4100036621e+00
    2.5900646973e+02    7.3359985352e+00
    2.5910650635e+02    7.2610168457e+00
    2.5920654297e+02    7.1849975586e+00
    2.5930651855e+02    7.1100158691e+00
    2.5940652466e+02    7.0339965820e+00
    2.5950643921e+02    6.9590148926e+00
    2.5960650635e+02    6.8829956055e+00
    2.5970648193e+02    6.8080139160e+00
    2.5980651855e+02    6.7319946289e+00
    2.5990649414e+02    6.6560058594e+00
    2.6000656128e+02    6.5799865723e+00
    2.6010650635e+02    6.5060119629e+00
    2.6020654297e+02    6.4299926758e+00
    2.6030661011e+02    6.3550109863e+00
    2.6040649414e+02    6.2790222168e+00
    2.6050668335e+02    6.2049865723e+00
    2.6060650635e+02    6.1300048828e+00
    2.6070657349e+02    6.0530090332e+00
    2.6080657959e+02    5.9779968262e+00
    2.6090652466e+02    5.9020080566e+00
    2.6100653076e+02    5.8269958496e+00
    2.6110650635e+02    5.7509765625e+00
    2.6120672607e+02    5.6759948730e+00
    2.6130654907e+02    5.5989990234e+00
    2.6140658569e+02    5.5240173340e+00
    2.6150656128e+02    5.4490051270e+00
    2.6160659790e+02    5.3720092773e+00
    2.6170663452e+02    5.2969970703e+00
    2.6180664062e+02    5.2200012207e+00
    2.6190667725e+02    5.1439819336e+00
    2.6200668335e+02    5.0690002441e+00
    2.6210662842e+02    4.9920043945e+00
    2.6220663452e+02    4.9160156250e+00
    2.6230664062e+02    4.8400268555e+00
    2.6240667725e+02    4.7639770508e+00
    2.6250662231e+02    4.6869812012e+00
    2.6260671997e+02    4.6109924316e+00
    2.6270663452e+02    4.5350036621e+00
    2.6280673218e+02    4.4580078125e+00
    2.6290664673e+02    4.3820190430e+00
    2.6300683594e+02    4.3059997559e+00
    2.6310665894e+02    4.2299804688e+00
    2.6320678711e+02    4.1530151367e+00
    2.6330679321e+02    4.0759887695e+00
    2.6340682983e+02    4.0000000000e+00
    2.6350677490e+02    3.9230041504e+00
    2.6360687256e+02    3.8469848633e+00
    2.6370684814e+02    3.7699890137e+00
    2.6380685425e+02    3.6940002441e+00
    2.6390673828e+02    3.6170043945e+00
    2.6400677490e+02    3.5410156250e+00
    2.6410671997e+02    3.4640197754e+00
    2.6420687866e+02    3.3870239258e+00
    2.6430682373e+02    3.3100280762e+00
    2.6440676880e+02    3.2339782715e+00
    2.6450686646e+02    3.1579895020e+00
    2.6460687256e+02    3.0809936523e+00
    2.6470687866e+02    3.0039978027e+00
    2.6480685425e+02    2.9270019531e+00
    2.6490686035e+02    2.8509826660e+00
    2.6500689697e+02    2.7749938965e+00
    2.6510687256e+02    2.6979980469e+00
    2.6520681763e+02    2.6210021973e+00
    2.6530691528e+02    2.5440063477e+00
    2.6540682983e+02    2.4680175781e+00
    2.6550686646e+02    2.3910217285e+00
    2.6560699463e+02    2.3139953613e+00
    2.6570693970e+02    2.2389831543e+00
    2.6580685425e+02    2.1619873047e+00
    2.6590698242e+02    2.0849914551e+00
    2.6600698853e+02    2.0079956055e+00
    2.6610690308e+02    1.9330139160e+00
    2.6620697021e+02    1.8550109863e+00
    2.6630700684e+02    1.7789916992e+00
    2.6640689087e+02    1.7030029297e+00
    2.6650695801e+02    1.6270141602e+00
    2.6660702515e+02    1.5509948730e+00
    2.6670687866e+02    1.4739990234e+00
    2.6680700684e+02    1.3979797363e+00
    2.6690692139e+02    1.3219909668e+00
    2.6700698853e+02    1.2460021973e+00
    2.6710699463e+02    1.1690063477e+00
    2.6720693970e+02    1.0930175781e+00
    2.6730691528e+02    1.0169982910e+00
    2.6740704346e+02    9.4100952148e-01
    2.6750692749e+02    8.6502075195e-01
    2.6760702515e+02    7.8900146484e-01
    2.6770706177e+02    7.1301269531e-01
    2.6780703735e+02    6.3699340820e-01
    2.6790695190e+02    5.6100463867e-01
    2.6800711060e+02    4.8501586914e-01
    2.6810705566e+02    4.0997314453e-01
    2.6820709229e+02    3.3499145508e-01
    2.6830703735e+02    2.5900268555e-01
    2.6840704346e+02    1.8298339844e-01
    2.6850704956e+02    1.0800170898e-01
    2.6860699463e+02    3.2012939453e-02
    2.6870715332e+02   -4.2999267578e-02
    2.6880706787e+02   -1.1801147461e-01
    2.6890704346e+02   -1.9302368164e-01
    2.6900701904e+02   -2.6800537109e-01
    2.6910717773e+02   -3.4298706055e-01
    2.6920703125e+02   -4.1799926758e-01
    2.6930712891e+02   -4.9298095703e-01
    2.6940713501e+02   -5.6900024414e-01
    2.6950717163e+02   -6.4300537109e-01
    2.6960714722e+02   -7.1801757812e-01
    2.6970715332e+02   -7.9299926758e-01
    2.6980706787e+02   -8.6801147461e-01
    2.6990716553e+02   -9.4198608398e-01
    2.7000717163e+02   -1.0169982910e+00
    2.7010708618e+02   -1.0929870605e+00
    2.7020715332e+02   -1.1690063477e+00
    2.7030725098e+02   -1.2450256348e+00
    2.7040713501e+02   -1.3209838867e+00
    2.7050726318e+02   -1.3970031738e+00
    2.7060717773e+02   -1.4719848633e+00
    2.7070715332e+02   -1.5480041504e+00
    2.7080731201e+02   -1.6240234375e+00
    2.7090728760e+02   -1.6989746094e+00
    2.7100726318e+02   -1.7739868164e+00
    2.7110723877e+02   -1.8489990234e+00
    2.7120721436e+02   -1.9250183105e+00
    2.7130715942e+02   -2.0000000000e+00
    2.7140716553e+02   -2.0749816895e+00
    2.7150723267e+02   -2.1499938965e+00
    2.7160726929e+02   -2.2250061035e+00
    2.7170730591e+02   -2.3000183105e+00
    2.7180734253e+02   -2.3750000000e+00
    2.7190734863e+02   -2.4490051270e+00
    2.7200726318e+02   -2.5230102539e+00
    2.7210733032e+02   -2.5980224609e+00
    2.7220724487e+02   -2.6730041504e+00
    2.7230737305e+02   -2.7469787598e+00
    2.7240734863e+02   -2.8209838867e+00
    2.7250735474e+02   -2.8960266113e+00
    2.7260733032e+02   -2.9689941406e+00
    2.7270727539e+02   -3.0429992676e+00
    2.7280743408e+02   -3.1170043945e+00
    2.7290740967e+02   -3.1910095215e+00
    2.7300726318e+02   -3.2630004883e+00
    2.7310729980e+02   -3.3369750977e+00
    2.7320730591e+02   -3.4100036621e+00
    2.7330728149e+02   -3.4840087891e+00
    2.7340744019e+02   -3.5559997559e+00
    2.7350732422e+02   -3.6300048828e+00
    2.7360736084e+02   -3.7030029297e+00
    2.7370733643e+02   -3.7749938965e+00
    2.7380737305e+02   -3.8480224609e+00
    2.7390734863e+02   -3.9199829102e+00
    2.7400744629e+02   -3.9929809570e+00
    2.7410745239e+02   -4.0650024414e+00
    2.7420742798e+02   -4.1369934082e+00
    2.7430743408e+02   -4.2090148926e+00
    2.7440750122e+02   -4.2809753418e+00
    2.7450741577e+02   -4.3519897461e+00
    2.7460754395e+02   -4.4240112305e+00
    2.7470755005e+02   -4.4960021973e+00
    2.7480752563e+02   -4.5670166016e+00
    2.7490750122e+02   -4.6380004883e+00
    2.7500738525e+02   -4.7090148926e+00
    2.7510754395e+02   -4.7810058594e+00
    2.7520739746e+02   -4.8510131836e+00
    2.7530749512e+02   -4.9219970703e+00
    2.7540753174e+02   -4.9920043945e+00
    2.7550747681e+02   -5.0620117188e+00
    2.7560745239e+02   -5.1320190430e+00
    2.7570751953e+02   -5.2019958496e+00
    2.7580758667e+02   -5.2729797363e+00
    2.7590750122e+02   -5.3420104980e+00
    2.7600759888e+02   -5.4120178223e+00
    2.7610748291e+02   -5.4819946289e+00
    2.7620758057e+02   -5.5509948730e+00
    2.7630749512e+02   -5.6199951172e+00
    2.7640759277e+02   -5.6900024414e+00
    2.7650750732e+02   -5.7580261230e+00
    2.7660757446e+02   -5.8269958496e+00
    2.7670764160e+02   -5.8959960938e+00
    2.7680764771e+02   -5.9639892578e+00
    2.7690750122e+02   -6.0320129395e+00
    2.7700765991e+02   -6.1010131836e+00
    2.7710763550e+02   -6.1679992676e+00
    2.7720761108e+02   -6.2359924316e+00
    2.7730755615e+02   -6.3040161133e+00
    2.7740759277e+02   -6.3719787598e+00
    2.7750759888e+02   -6.4389953613e+00
    2.7760757446e+02   -6.5060119629e+00
    2.7770761108e+02   -6.5729980469e+00
    2.7780755615e+02   -6.6400146484e+00
    2.7790768433e+02   -6.7070007324e+00
    2.7800772095e+02   -6.7739868164e+00
    2.7810757446e+02   -6.8399963379e+00
    2.7820761108e+02   -6.9060058594e+00
    2.7830770874e+02   -6.9720153809e+00
    2.7840765381e+02   -7.0390014648e+00
    2.7850775146e+02   -7.1040039062e+00
    2.7860775757e+02   -7.1700134277e+00
    2.7870761108e+02   -7.2350158691e+00
    2.7880776978e+02   -7.3009948730e+00
    2.7890774536e+02   -7.3659973145e+00
    2.7900778198e+02   -7.4309997559e+00
    2.7910778809e+02   -7.4960021973e+00
    2.7920767212e+02   -7.5600280762e+00
    2.7930770874e+02   -7.6239929199e+00
    2.7940774536e+02   -7.6889953613e+00
    2.7950775146e+02   -7.7529907227e+00
    2.7960775757e+02   -7.8170166016e+00
    2.7970770264e+02   -7.8809814453e+00
    2.7980780029e+02   -7.9440002441e+00
    2.7990771484e+02   -8.0079956055e+00
    2.8000775146e+02   -8.0710144043e+00
    2.8010769653e+02   -8.1379699707e+00
    2.8020770264e+02   -8.2049865723e+00
    2.8030786133e+02   -8.2709960938e+00
    2.8040780640e+02   -8.3370056152e+00
    2.8050772095e+02   -8.4029846191e+00
    2.8060772705e+02   -8.4679870605e+00
    2.8070779419e+02   -8.5350036621e+00
    2.8080783081e+02   -8.5989990234e+00
    2.8090774536e+02   -8.6650085449e+00
    2.8100775146e+02   -8.7300109863e+00
    2.8110781860e+02   -8.7950134277e+00
    2.8120785522e+02   -8.8590087891e+00
    2.8130795288e+02   -8.9250183105e+00
    2.8140792847e+02   -8.9880065918e+00
    2.8150793457e+02   -9.0530090332e+00
    2.8160787964e+02   -9.1170043945e+00
    2.8170779419e+02   -9.1799926758e+00
    2.8180786133e+02   -9.2430114746e+00
    2.8190789795e+02   -9.3069763184e+00
    2.8200784302e+02   -9.3699951172e+00
    2.8210781860e+02   -9.4339904785e+00
    2.8220782471e+02   -9.4960021973e+00
    2.8230786133e+02   -9.5589904785e+00
    2.8240798950e+02   -9.6210021973e+00
    2.8250793457e+02   -9.6829833984e+00
    2.8260784912e+02   -9.7449951172e+00
    2.8270785522e+02   -9.8070068359e+00
    2.8280792236e+02   -9.8680114746e+00
    2.8290798950e+02   -9.9299926758e+00
    2.8300796509e+02   -9.9909973145e+00
    2.8310787964e+02   -1.0052001953e+01
    2.8320797729e+02   -1.0113006592e+01
    2.8330792236e+02   -1.0173980713e+01
    2.8340792847e+02   -1.0233001709e+01
    2.8350796509e+02   -1.0293975830e+01
    2.8360797119e+02   -1.0354003906e+01
    2.8370797729e+02   -1.0412994385e+01
    2.8380795288e+02   -1.0472991943e+01
    2.8390792847e+02   -1.0532989502e+01
    2.8400802612e+02   -1.0590972900e+01
    2.8410809326e+02   -1.0651000977e+01
    2.8420812988e+02   -1.0708984375e+01
    2.8430807495e+02   -1.0767974854e+01
    2.8440808105e+02   -1.0825988770e+01
    2.8450802612e+02   -1.0884002686e+01
    2.8460812378e+02   -1.0941986084e+01
    2.8470797729e+02   -1.0999023438e+01
    2.8480807495e+02   -1.1057037354e+01
    2.8490814209e+02   -1.1113983154e+01
    2.8500811768e+02   -1.1171020508e+01
    2.8510803223e+02   -1.1227966309e+01
    2.8520809937e+02   -1.1285003662e+01
    2.8530807495e+02   -1.1340972900e+01
    2.8540817261e+02   -1.1398010254e+01
    2.8550814819e+02   -1.1453002930e+01
    2.8560815430e+02   -1.1509002686e+01
    2.8570816040e+02   -1.1565002441e+01
    2.8580804443e+02   -1.1620025635e+01
    2.8590805054e+02   -1.1674987793e+01
    2.8600820923e+02   -1.1729980469e+01
    2.8610821533e+02   -1.1783996582e+01
    2.8620812988e+02   -1.1837982178e+01
    2.8630807495e+02   -1.1893005371e+01
    2.8640817261e+02   -1.1946990967e+01
    2.8650823975e+02   -1.2001007080e+01
    2.8660809326e+02   -1.2054016113e+01
    2.8670825195e+02   -1.2107971191e+01
    2.8680813599e+02   -1.2160980225e+01
    2.8690820312e+02   -1.2214019775e+01
    2.8700814819e+02   -1.2265991211e+01
    2.8710818481e+02   -1.2319000244e+01
    2.8720816040e+02   -1.2371032715e+01
    2.8730822754e+02   -1.2422973633e+01
    2.8740814209e+02   -1.2474975586e+01
    2.8750814819e+02   -1.2526977539e+01
    2.8760815430e+02   -1.2578002930e+01
    2.8770819092e+02   -1.2628967285e+01
    2.8780831909e+02   -1.2679992676e+01
    2.8790829468e+02   -1.2731018066e+01
    2.8800833130e+02   -1.2781005859e+01
    2.8810821533e+02   -1.2832031250e+01
    2.8820828247e+02   -1.2881042480e+01
    2.8830828857e+02   -1.2930969238e+01
    2.8840823364e+02   -1.2981018066e+01
    2.8850830078e+02   -1.3030029297e+01
    2.8860833740e+02   -1.3080017090e+01
    2.8870831299e+02   -1.3127990723e+01
    2.8880828857e+02   -1.3177001953e+01
    2.8890832520e+02   -1.3226013184e+01
    2.8900823975e+02   -1.3273986816e+01
    2.8910842896e+02   -1.3321960449e+01
    2.8920828247e+02   -1.3369018555e+01
    2.8930841064e+02   -1.3416992188e+01
    2.8940838623e+02   -1.3463989258e+01
    2.8950836182e+02   -1.3510986328e+01
    2.8960836792e+02   -1.3558959961e+01
    2.8970837402e+02   -1.3604980469e+01
    2.8980834961e+02   -1.3651000977e+01
    2.8990835571e+02   -1.3697998047e+01
    2.9000830078e+02   -1.3744018555e+01
    2.9010833740e+02   -1.3794982910e+01
    2.9020834351e+02   -1.3845031738e+01
    2.9030844116e+02   -1.3895996094e+01
    2.9040835571e+02   -1.3946044922e+01
    2.9050836182e+02   -1.3994995117e+01
    2.9060848999e+02   -1.4044006348e+01
    2.9070849609e+02   -1.4093994141e+01
    2.9080844116e+02   -1.4143005371e+01
    2.9090841675e+02   -1.4192016602e+01
    2.9100845337e+02   -1.4241027832e+01
    2.9110848999e+02   -1.4289001465e+01
    2.9120840454e+02   -1.4337951660e+01
    2.9130838013e+02   -1.4386047363e+01
    2.9140841675e+02   -1.4433044434e+01
    2.9150842285e+02   -1.4481018066e+01
    2.9160855103e+02   -1.4528015137e+01
    2.9170855713e+02   -1.4575988770e+01
    2.9180844116e+02   -1.4622009277e+01
    2.9190844727e+02   -1.4668029785e+01
    2.9200848389e+02   -1.4715026855e+01
    2.9210845947e+02   -1.4761962891e+01
    2.9220843506e+02   -1.4807006836e+01
    2.9230850220e+02   -1.4853027344e+01
    2.9240856934e+02   -1.4898010254e+01
    2.9250854492e+02   -1.4944030762e+01
    2.9260852051e+02   -1.4988952637e+01
    2.9270846558e+02   -1.5033996582e+01
    2.9280856323e+02   -1.5078002930e+01
    2.9290847778e+02   -1.5122009277e+01
    2.9300854492e+02   -1.5166015625e+01
    2.9310848999e+02   -1.5209960938e+01
    2.9320849609e+02   -1.5254028320e+01
    2.9330865479e+02   -1.5296997070e+01
    2.9340850830e+02   -1.5340026855e+01
    2.9350851440e+02   -1.5383972168e+01
    2.9360867310e+02   -1.5425964355e+01
    2.9370855713e+02   -1.5468994141e+01
    2.9380853271e+02   -1.5510986328e+01
    2.9390866089e+02   -1.5552978516e+01
    2.9400869751e+02   -1.5594970703e+01
    2.9410858154e+02   -1.5637023926e+01
    2.9420858765e+02   -1.5677001953e+01
    2.9430859375e+02   -1.5718994141e+01
    2.9440856934e+02   -1.5760009766e+01
    2.9450872803e+02   -1.5799987793e+01
    2.9460858154e+02   -1.5841003418e+01
    2.9470861816e+02   -1.5880981445e+01
    2.9480868530e+02   -1.5921020508e+01
    2.9490875244e+02   -1.5960998535e+01
    2.9500863647e+02   -1.6001037598e+01
    2.9510867310e+02   -1.6039001465e+01
    2.9520861816e+02   -1.6078979492e+01
    2.9530877686e+02   -1.6117004395e+01
    2.9540875244e+02   -1.6156005859e+01
    2.9550872803e+02   -1.6195007324e+01
    2.9560879517e+02   -1.6233032227e+01
    2.9570864868e+02   -1.6270019531e+01
    2.9580865479e+02   -1.6307983398e+01
    2.9590872192e+02   -1.6347045898e+01
    2.9600878906e+02   -1.6384033203e+01
    2.9610867310e+02   -1.6421020508e+01
    2.9620874023e+02   -1.6458007812e+01
    2.9630877686e+02   -1.6494995117e+01
    2.9640872192e+02   -1.6532043457e+01
    2.9650878906e+02   -1.6569030762e+01
    2.9660879517e+02   -1.6606018066e+01
    2.9670870972e+02   -1.6643005371e+01
    2.9680874634e+02   -1.6679992676e+01
    2.9690878296e+02   -1.6717041016e+01
    2.9700878906e+02   -1.6754028320e+01
    2.9710888672e+02   -1.6789978027e+01
    2.9720877075e+02   -1.6826965332e+01
    2.9730874634e+02   -1.6864013672e+01
    2.9740878296e+02   -1.6899047852e+01
    2.9750891113e+02   -1.6935974121e+01
    2.9760876465e+02   -1.6971984863e+01
    2.9770892334e+02   -1.7007995605e+01
    2.9780889893e+02   -1.7044006348e+01
    2.9790884399e+02   -1.7080017090e+01
    2.9800881958e+02   -1.7114990234e+01
    2.9810891724e+02   -1.7149963379e+01
    2.9820889282e+02   -1.7184997559e+01
    2.9830880737e+02   -1.7220031738e+01
    2.9840890503e+02   -1.7255004883e+01
    2.9850888062e+02   -1.7289001465e+01
    2.9860882568e+02   -1.7323974609e+01
    2.9870895386e+02   -1.7359008789e+01
    2.9880886841e+02   -1.7393981934e+01
    2.9890884399e+02   -1.7427001953e+01
    2.9900900269e+02   -1.7460998535e+01
    2.9910888672e+02   -1.7495971680e+01
    2.9920901489e+02   -1.7531005859e+01
    2.9930889893e+02   -1.7565002441e+01
    2.9940902710e+02   -1.7598999023e+01
    2.9950903320e+02   -1.7633972168e+01
    2.9960903931e+02   -1.7666992188e+01
    2.9970892334e+02   -1.7700988770e+01
    2.9980895996e+02   -1.7736022949e+01
    2.9990899658e+02   -1.7768981934e+01
endcurve
