Curveplot
LS-DYNA keyword deck by LS-PrePost
Abscissa
Ordinate
XY data
CHOP_NASZ_mo-1 #pts=3000
* Minval=    -6.2482799530e+01 at time=       186.5020446777
* Maxval=     2.8368700027e+01 at time=       299.9089965820
    0.0000000000e+00    0.0000000000e+00
    9.9978484213e-02    2.1683899454e-14
    1.9994476438e-01    2.0884100138e-07
    2.9985594749e-01    3.3302001157e-07
    3.9993065596e-01    5.1239999266e-07
    4.9983286858e-01    4.8906099437e-07
    5.9996074438e-01    4.7194100716e-07
    6.9996917248e-01    1.4770899952e-06
    7.9987239838e-01    2.7586399938e-06
    8.9996677637e-01    3.1677200241e-06
    9.9981802702e-01    2.4803200631e-06
    1.0999013186e+00    1.6204900248e-06
    1.1999312639e+00    4.9890098808e-07
    1.2999420166e+00    9.7799500054e-07
    1.3998707533e+00    2.5201100016e-06
    1.4999967813e+00    5.2768500609e-06
    1.5999176502e+00    8.9066497821e-06
    1.6998231411e+00    1.3229800061e-05
    1.7998125553e+00    1.7665299310e-05
    1.8998631239e+00    2.2254000214e-05
    1.9999403954e+00    2.6087400329e-05
    2.0999372005e+00    2.8086100428e-05
    2.1998307705e+00    2.8577200283e-05
    2.2999815941e+00    2.7815600333e-05
    2.3998348713e+00    2.6819699997e-05
    2.4998700619e+00    2.3295899155e-05
    2.5998649597e+00    1.7573400328e-05
    2.6998441219e+00    9.1362398962e-06
    2.7999923229e+00   -1.4753100004e-06
    2.8998992443e+00   -1.4434000150e-05
    2.9998807907e+00   -2.9648999771e-05
    3.0998446941e+00   -4.7447898396e-05
    3.1998353004e+00   -6.8200002715e-05
    3.2999982834e+00   -8.9458902949e-05
    3.3999238014e+00   -1.1231499957e-04
    3.4999976158e+00   -1.3658299576e-04
    3.5999677181e+00   -1.6287999460e-04
    3.6998908520e+00   -1.8907700724e-04
    3.7998950481e+00   -2.1683500381e-04
    3.8999593258e+00   -2.4532599491e-04
    3.9998872280e+00   -2.7623999631e-04
    4.0999002457e+00   -3.1077099266e-04
    4.1999154091e+00   -3.4919899190e-04
    4.2999529839e+00   -3.9148901124e-04
    4.3998851776e+00   -4.3712099432e-04
    4.4998784065e+00   -4.8762100050e-04
    4.5999293327e+00   -5.4158497369e-04
    4.6999778748e+00   -5.9878500178e-04
    4.7999606133e+00   -6.5847201040e-04
    4.8998966217e+00   -7.2181597352e-04
    4.9999694824e+00   -7.8829901759e-04
    5.0999503136e+00   -8.5936998948e-04
    5.1998300552e+00   -9.3506497797e-04
    5.2998480797e+00   -1.0143700056e-03
    5.3998847008e+00   -1.0972700547e-03
    5.4998626709e+00   -1.1831000447e-03
    5.5999817848e+00   -1.2732299510e-03
    5.6998472214e+00   -1.3664299622e-03
    5.7998046875e+00   -1.4645500341e-03
    5.8998994827e+00   -1.5676099574e-03
    5.9999914169e+00   -1.6755399993e-03
    6.0998306274e+00   -1.7884200206e-03
    6.1999139786e+00   -1.9072799478e-03
    6.2998967171e+00   -2.0313500427e-03
    6.3998079300e+00   -2.1606499795e-03
    6.4998803139e+00   -2.2955699824e-03
    6.5999507904e+00   -2.4371899199e-03
    6.6999664307e+00   -2.5837200228e-03
    6.7998299599e+00   -2.7347600553e-03
    6.8998317719e+00   -2.8902899940e-03
    6.9998917580e+00   -3.0493899249e-03
    7.0998682976e+00   -3.2126000151e-03
    7.1999130249e+00   -3.3806799911e-03
    7.2999601364e+00   -3.5535299685e-03
    7.3999619484e+00   -3.7297299132e-03
    7.4998159409e+00   -3.9105601609e-03
    7.5999779701e+00   -4.0963999927e-03
    7.6999573708e+00   -4.2866799049e-03
    7.7999353409e+00   -4.4800401665e-03
    7.8999133110e+00   -4.6767899767e-03
    7.9999518394e+00   -4.8776301555e-03
    8.0999116898e+00   -5.0824098289e-03
    8.1999921799e+00   -5.2918498404e-03
    8.2998600006e+00   -5.5048698559e-03
    8.3999414444e+00   -5.7232398540e-03
    8.4999418259e+00   -5.9454599395e-03
    8.5998668671e+00   -6.1726202257e-03
    8.6999950409e+00   -6.4042499289e-03
    8.7998943329e+00   -6.6391997971e-03
    8.8998794556e+00   -6.8787098862e-03
    8.9998931885e+00   -7.1228300221e-03
    9.0998735428e+00   -7.3715299368e-03
    9.1998090744e+00   -7.6242000796e-03
    9.2998924255e+00   -7.8817503527e-03
    9.3998374939e+00   -8.1420904025e-03
    9.4999208450e+00   -8.4071299061e-03
    9.5998888016e+00   -8.6756004021e-03
    9.6999607086e+00   -8.9481603354e-03
    9.7999601364e+00   -9.2249102890e-03
    9.8999509811e+00   -9.5060104504e-03
    9.9999437332e+00   -9.7915697843e-03
    1.0099899292e+01   -1.0080800392e-02
    1.0199932098e+01   -1.0374399833e-02
    1.0299875259e+01   -1.0672099888e-02
    1.0399922371e+01   -1.0974699631e-02
    1.0499888420e+01   -1.1281199753e-02
    1.0599976540e+01   -1.1592700146e-02
    1.0699834824e+01   -1.1907299981e-02
    1.0799839020e+01   -1.2227400206e-02
    1.0899987221e+01   -1.2554800138e-02
    1.0999872208e+01   -1.2887399644e-02
    1.1099974632e+01   -1.3224299997e-02
    1.1199816704e+01   -1.3565000147e-02
    1.1299883842e+01   -1.3908299617e-02
    1.1399881363e+01   -1.4253400266e-02
    1.1499829292e+01   -1.4600800350e-02
    1.1599976540e+01   -1.4951599762e-02
    1.1699942589e+01   -1.5304899774e-02
    1.1799819946e+01   -1.5661699697e-02
    1.1899915695e+01   -1.6023900360e-02
    1.1999942780e+01   -1.6391100362e-02
    1.2099864960e+01   -1.6766499728e-02
    1.2199995041e+01   -1.7149899155e-02
    1.2300000191e+01   -1.7541000620e-02
    1.2399901390e+01   -1.7938200384e-02
    1.2499962807e+01   -1.8345300108e-02
    1.2599871635e+01   -1.8760899082e-02
    1.2699990273e+01   -1.9186800346e-02
    1.2799981117e+01   -1.9620399922e-02
    1.2899868011e+01   -2.0063199103e-02
    1.2999883652e+01   -2.0516600460e-02
    1.3099851608e+01   -2.0978700370e-02
    1.3199937820e+01   -2.1450700238e-02
    1.3299961090e+01   -2.1928800270e-02
    1.3399948120e+01   -2.2414200008e-02
    1.3499955177e+01   -2.2906700149e-02
    1.3599972725e+01   -2.3406799883e-02
    1.3699863434e+01   -2.3911099881e-02
    1.3799963951e+01   -2.4423399940e-02
    1.3899989128e+01   -2.4943200871e-02
    1.3999843597e+01   -2.5471400470e-02
    1.4099994659e+01   -2.6012100279e-02
    1.4199995995e+01   -2.6562400162e-02
    1.4299977303e+01   -2.7123499662e-02
    1.4399853706e+01   -2.7695400640e-02
    1.4499971390e+01   -2.8279699385e-02
    1.4599962234e+01   -2.8874000534e-02
    1.4699860573e+01   -2.9477199540e-02
    1.4799954414e+01   -3.0090900138e-02
    1.4899956703e+01   -3.0713599175e-02
    1.4999971390e+01   -3.1346101314e-02
    1.5099837303e+01   -3.1987901777e-02
    1.5200016975e+01   -3.2642800361e-02
    1.5299937248e+01   -3.3307000995e-02
    1.5399894714e+01   -3.3980399370e-02
    1.5499953270e+01   -3.4664198756e-02
    1.5599922180e+01   -3.5357300192e-02
    1.5699946404e+01   -3.6060798913e-02
    1.5799880981e+01   -3.6774300039e-02
    1.5899893761e+01   -3.7499498576e-02
    1.6000009537e+01   -3.8236398250e-02
    1.6100021362e+01   -3.8984999061e-02
    1.6199943542e+01   -3.9746098220e-02
    1.6299993515e+01   -4.0520198643e-02
    1.6399923325e+01   -4.1306000203e-02
    1.6499935150e+01   -4.2104501277e-02
    1.6600019455e+01   -4.2917698622e-02
    1.6699966431e+01   -4.3741099536e-02
    1.6799919128e+01   -4.4575698674e-02
    1.6899942398e+01   -4.5420300215e-02
    1.6999977112e+01   -4.6274900436e-02
    1.7099969864e+01   -4.7139901668e-02
    1.7200016022e+01   -4.8015300184e-02
    1.7299913406e+01   -4.8899400979e-02
    1.7399948120e+01   -4.9792900681e-02
    1.7499986649e+01   -5.0696700811e-02
    1.7599855423e+01   -5.1608301699e-02
    1.7699888229e+01   -5.2530899644e-02
    1.7799867630e+01   -5.3460899740e-02
    1.7900030136e+01   -5.4401498288e-02
    1.8000001907e+01   -5.5348701775e-02
    1.8100002289e+01   -5.6305401027e-02
    1.8199903488e+01   -5.7270199060e-02
    1.8299930573e+01   -5.8245100081e-02
    1.8399866104e+01   -5.9229899198e-02
    1.8499961853e+01   -6.0225900263e-02
    1.8600009918e+01   -6.1232298613e-02
    1.8699945450e+01   -6.2246698886e-02
    1.8799982071e+01   -6.3271701336e-02
    1.8899885178e+01   -6.4305096865e-02
    1.8999877930e+01   -6.5349303186e-02
    1.9099937439e+01   -6.6402703524e-02
    1.9199964523e+01   -6.7465096712e-02
    1.9299915314e+01   -6.8536102772e-02
    1.9399930954e+01   -6.9615997374e-02
    1.9499971390e+01   -7.0705600083e-02
    1.9599996567e+01   -7.1803398430e-02
    1.9699876785e+01   -7.2908297181e-02
    1.9799945831e+01   -7.4024796486e-02
    1.9899951935e+01   -7.5150899589e-02
    1.9999975204e+01   -7.6286397874e-02
    2.0099910736e+01   -7.7430203557e-02
    2.0200038910e+01   -7.8585997224e-02
    2.0299928665e+01   -7.9750500619e-02
    2.0399969101e+01   -8.0926097929e-02
    2.0499897003e+01   -8.2110196352e-02
    2.0599882126e+01   -8.3305403590e-02
    2.0699890137e+01   -8.4510199726e-02
    2.0800008774e+01   -8.5727103055e-02
    2.0900033951e+01   -8.6955197155e-02
    2.0999982834e+01   -8.8193900883e-02
    2.1099977493e+01   -8.9441999793e-02
    2.1199924469e+01   -9.0699799359e-02
    2.1299985886e+01   -9.1965101659e-02
    2.1399898529e+01   -9.3235202134e-02
    2.1500028610e+01   -9.4515196979e-02
    2.1599893570e+01   -9.5799796283e-02
    2.1700010300e+01   -9.7095400095e-02
    2.1799985886e+01   -9.8398000002e-02
    2.1899875641e+01   -9.9709197879e-02
    2.1999879837e+01   -1.0103300214e-01
    2.2100011826e+01   -1.0237299651e-01
    2.2199956894e+01   -1.0372400284e-01
    2.2300016403e+01   -1.0509099811e-01
    2.2400018692e+01   -1.0646799952e-01
    2.2499933243e+01   -1.0785900056e-01
    2.2600017548e+01   -1.0926800221e-01
    2.2699880600e+01   -1.1068899930e-01
    2.2799909592e+01   -1.1212699860e-01
    2.2900049210e+01   -1.1358200014e-01
    2.2999948502e+01   -1.1505000293e-01
    2.3099882126e+01   -1.1653199792e-01
    2.3199964523e+01   -1.1803200096e-01
    2.3299911499e+01   -1.1954200268e-01
    2.3400043488e+01   -1.2106700242e-01
    2.3499912262e+01   -1.2260100245e-01
    2.3599950790e+01   -1.2415000051e-01
    2.3699897766e+01   -1.2570700049e-01
    2.3799978256e+01   -1.2727800012e-01
    2.3899904251e+01   -1.2885899842e-01
    2.4000043869e+01   -1.3045799732e-01
    2.4100038528e+01   -1.3207200170e-01
    2.4200052261e+01   -1.3370199502e-01
    2.4300033569e+01   -1.3534699380e-01
    2.4399972916e+01   -1.3700899482e-01
    2.4500045776e+01   -1.3868899643e-01
    2.4599969864e+01   -1.4038300514e-01
    2.4699985504e+01   -1.4209200442e-01
    2.4800001144e+01   -1.4381599426e-01
    2.4899925232e+01   -1.4555199444e-01
    2.4999992371e+01   -1.4730399847e-01
    2.5100019455e+01   -1.4907200634e-01
    2.5199989319e+01   -1.5085400641e-01
    2.5299991608e+01   -1.5265199542e-01
    2.5399894714e+01   -1.5446199477e-01
    2.5499933243e+01   -1.5628699958e-01
    2.5600042343e+01   -1.5812799335e-01
    2.5699977875e+01   -1.5997900069e-01
    2.5799924850e+01   -1.6184699535e-01
    2.5899940491e+01   -1.6373099387e-01
    2.5999990463e+01   -1.6563199461e-01
    2.6100011826e+01   -1.6754999757e-01
    2.6199951172e+01   -1.6948400438e-01
    2.6299898148e+01   -1.7143599689e-01
    2.6399993896e+01   -1.7340700328e-01
    2.6500017166e+01   -1.7539599538e-01
    2.6599876404e+01   -1.7739899457e-01
    2.6700063705e+01   -1.7942599952e-01
    2.6800020218e+01   -1.8146400154e-01
    2.6900028229e+01   -1.8351699412e-01
    2.6999944687e+01   -1.8558299541e-01
    2.7100065231e+01   -1.8766799569e-01
    2.7199987411e+01   -1.8976500630e-01
    2.7299985886e+01   -1.9187599421e-01
    2.7399879456e+01   -1.9399799407e-01
    2.7500011444e+01   -1.9614000618e-01
    2.7599903107e+01   -1.9829100370e-01
    2.7700067520e+01   -2.0046299696e-01
    2.7800014496e+01   -2.0264300704e-01
    2.7899932861e+01   -2.0483499765e-01
    2.7999940872e+01   -2.0704199374e-01
    2.8099967957e+01   -2.0926499367e-01
    2.8200038910e+01   -2.1150100231e-01
    2.8299932480e+01   -2.1374799311e-01
    2.8400028229e+01   -2.1601599455e-01
    2.8500000000e+01   -2.1829499304e-01
    2.8600059509e+01   -2.2059200704e-01
    2.8700017929e+01   -2.2290100157e-01
    2.8800045013e+01   -2.2522699833e-01
    2.8900045395e+01   -2.2756700218e-01
    2.8999914169e+01   -2.2991800308e-01
    2.9100065231e+01   -2.3228999972e-01
    2.9199949265e+01   -2.3467099667e-01
    2.9299966812e+01   -2.3706899583e-01
    2.9400009155e+01   -2.3948100209e-01
    2.9499992371e+01   -2.4190600216e-01
    2.9599905014e+01   -2.4434399605e-01
    2.9699943542e+01   -2.4679900706e-01
    2.9800020218e+01   -2.4927000701e-01
    2.9900011063e+01   -2.5175601244e-01
    3.0000030518e+01   -2.5425601006e-01
    3.0099977493e+01   -2.5677001476e-01
    3.0200006485e+01   -2.5930100679e-01
    3.0299949646e+01   -2.6184800267e-01
    3.0400007248e+01   -2.6441299915e-01
    3.0499969482e+01   -2.6699200273e-01
    3.0599927902e+01   -2.6958599687e-01
    3.0699987411e+01   -2.7219700813e-01
    3.0800060272e+01   -2.7482399344e-01
    3.0900039673e+01   -2.7746900916e-01
    3.0999963760e+01   -2.8013300896e-01
    3.1100059509e+01   -2.8281599283e-01
    3.1200065613e+01   -2.8551399708e-01
    3.1300043106e+01   -2.8821900487e-01
    3.1400012970e+01   -2.9093399644e-01
    3.1500053406e+01   -2.9366201162e-01
    3.1599956512e+01   -2.9639801383e-01
    3.1700004578e+01   -2.9914999008e-01
    3.1799985886e+01   -3.0191400647e-01
    3.1900049210e+01   -3.0469599366e-01
    3.2000019073e+01   -3.0749401450e-01
    3.2100021362e+01   -3.1031799316e-01
    3.2200027466e+01   -3.1316301227e-01
    3.2299896240e+01   -3.1602799892e-01
    3.2399921417e+01   -3.1891500950e-01
    3.2500053406e+01   -3.2183301449e-01
    3.2599964142e+01   -3.2477098703e-01
    3.2699958801e+01   -3.2773798704e-01
    3.2799972534e+01   -3.3072999120e-01
    3.2899932861e+01   -3.3374699950e-01
    3.2999946594e+01   -3.3679398894e-01
    3.3099956512e+01   -3.3986699581e-01
    3.3200050354e+01   -3.4296900034e-01
    3.3299980164e+01   -3.4608700871e-01
    3.3399986267e+01   -3.4922900796e-01
    3.3500026703e+01   -3.5239499807e-01
    3.3599929810e+01   -3.5557898879e-01
    3.3699920654e+01   -3.5877999663e-01
    3.3799945831e+01   -3.6200401187e-01
    3.3899971008e+01   -3.6524900794e-01
    3.4000022888e+01   -3.6852198839e-01
    3.4099967957e+01   -3.7182199955e-01
    3.4200031281e+01   -3.7515500188e-01
    3.4299991608e+01   -3.7851700187e-01
    3.4399997711e+01   -3.8190999627e-01
    3.4499969482e+01   -3.8533499837e-01
    3.4599987030e+01   -3.8879099488e-01
    3.4700038910e+01   -3.9227700233e-01
    3.4799896240e+01   -3.9578101039e-01
    3.4899944305e+01   -3.9932200313e-01
    3.5000022888e+01   -4.0289101005e-01
    3.5099899292e+01   -4.0648400784e-01
    3.5200019836e+01   -4.1011801362e-01
    3.5299957275e+01   -4.1377300024e-01
    3.5400020599e+01   -4.1746199131e-01
    3.5499973297e+01   -4.2117398977e-01
    3.5599994659e+01   -4.2491799593e-01
    3.5699958801e+01   -4.2868900299e-01
    3.5799915314e+01   -4.3249198794e-01
    3.5899986267e+01   -4.3632999063e-01
    3.6000007629e+01   -4.4020101428e-01
    3.6099834442e+01   -4.4409900904e-01
    3.6199829102e+01   -4.4804200530e-01
    3.6299858093e+01   -4.5202198625e-01
    3.6399887085e+01   -4.5603901148e-01
    3.6499965668e+01   -4.6009498835e-01
    3.6599861145e+01   -4.6418398619e-01
    3.6699977875e+01   -4.6831700206e-01
    3.6799884796e+01   -4.7247400880e-01
    3.6899868011e+01   -4.7666400671e-01
    3.7000000000e+01   -4.8089098930e-01
    3.7099826813e+01   -4.8513799906e-01
    3.7199993134e+01   -4.8943200707e-01
    3.7299999237e+01   -4.9375000596e-01
    3.7399833679e+01   -4.9808800220e-01
    3.7499885559e+01   -5.0247001648e-01
    3.7599887848e+01   -5.0687897205e-01
    3.7699905396e+01   -5.1132100821e-01
    3.7799926758e+01   -5.1579099894e-01
    3.7899852753e+01   -5.2028602362e-01
    3.7999881744e+01   -5.2481400967e-01
    3.8099922180e+01   -5.2937400341e-01
    3.8199855804e+01   -5.3396099806e-01
    3.8299934387e+01   -5.3858399391e-01
    3.8399871826e+01   -5.4323500395e-01
    3.8499889374e+01   -5.4792201519e-01
    3.8599884033e+01   -5.5264097452e-01
    3.8699882507e+01   -5.5739098787e-01
    3.8799812317e+01   -5.6217098236e-01
    3.8899814606e+01   -5.6698602438e-01
    3.8999797821e+01   -5.7183200121e-01
    3.9099895477e+01   -5.7671499252e-01
    3.9199844360e+01   -5.8162099123e-01
    3.9299861908e+01   -5.8656299114e-01
    3.9399944305e+01   -5.9153497219e-01
    3.9499946594e+01   -5.9653699398e-01
    3.9599903107e+01   -6.0156500340e-01
    3.9699886322e+01   -6.0662597418e-01
    3.9799957275e+01   -6.1172401905e-01
    3.9899921417e+01   -6.1685097218e-01
    3.9999809265e+01   -6.2200301886e-01
    4.0099941254e+01   -6.2720000744e-01
    4.0199787140e+01   -6.3241499662e-01
    4.0299869537e+01   -6.3767898083e-01
    4.0399929047e+01   -6.4297401905e-01
    4.0499782562e+01   -6.4828997850e-01
    4.0599948883e+01   -6.5365898609e-01
    4.0699897766e+01   -6.5904402733e-01
    4.0799831390e+01   -6.6446501017e-01
    4.0899837494e+01   -6.6992700100e-01
    4.0999752045e+01   -6.7542302608e-01
    4.1099769592e+01   -6.8095397949e-01
    4.1199775696e+01   -6.8651801348e-01
    4.1299812317e+01   -6.9210797548e-01
    4.1399841309e+01   -6.9772100449e-01
    4.1499851227e+01   -7.0336002111e-01
    4.1599895477e+01   -7.0902800560e-01
    4.1699802399e+01   -7.1471697092e-01
    4.1799865723e+01   -7.2044497728e-01
    4.1899848938e+01   -7.2620397806e-01
    4.1999832153e+01   -7.3199999332e-01
    4.2099906921e+01   -7.3784798384e-01
    4.2199810028e+01   -7.4372702837e-01
    4.2299758911e+01   -7.4965399504e-01
    4.2399814606e+01   -7.5562399626e-01
    4.2499809265e+01   -7.6163899899e-01
    4.2599796295e+01   -7.6770198345e-01
    4.2699745178e+01   -7.7380901575e-01
    4.2799892426e+01   -7.7997702360e-01
    4.2899875641e+01   -7.8618401289e-01
    4.2999862671e+01   -7.9244297743e-01
    4.3099845886e+01   -7.9874700308e-01
    4.3199832916e+01   -8.0510097742e-01
    4.3299884796e+01   -8.1150102615e-01
    4.3399837494e+01   -8.1793802977e-01
    4.3499855042e+01   -8.2442200184e-01
    4.3599899292e+01   -8.3095198870e-01
    4.3699829102e+01   -8.3750700951e-01
    4.3799827576e+01   -8.4410601854e-01
    4.3899833679e+01   -8.5075098276e-01
    4.3999832153e+01   -8.5744202137e-01
    4.4099826813e+01   -8.6418700218e-01
    4.4199737549e+01   -8.7097597122e-01
    4.4299892426e+01   -8.7783801556e-01
    4.4399868011e+01   -8.8473999500e-01
    4.4499702454e+01   -8.9168697596e-01
    4.4599742889e+01   -8.9869898558e-01
    4.4699775696e+01   -9.0576100349e-01
    4.4799800873e+01   -9.1286998987e-01
    4.4899864197e+01   -9.2003101110e-01
    4.4999713898e+01   -9.2722600698e-01
    4.5099708557e+01   -9.3448197842e-01
    4.5199810028e+01   -9.4180101156e-01
    4.5299716949e+01   -9.4915598631e-01
    4.5399738312e+01   -9.5656800270e-01
    4.5499870300e+01   -9.6403402090e-01
    4.5599754333e+01   -9.7153097391e-01
    4.5699707031e+01   -9.7908198833e-01
    4.5799831390e+01   -9.8669797182e-01
    4.5899711609e+01   -9.9434798956e-01
    4.5999748230e+01   -1.0020600557e+00
    4.6099834442e+01   -1.0098400116e+00
    4.6199802399e+01   -1.0176700354e+00
    4.6299800873e+01   -1.0255600214e+00
    4.6399692535e+01   -1.0334999561e+00
    4.6499713898e+01   -1.0414999723e+00
    4.6599819183e+01   -1.0495799780e+00
    4.6699840546e+01   -1.0577000380e+00
    4.6799701691e+01   -1.0658700466e+00
    4.6899787903e+01   -1.0741000175e+00
    4.6999794006e+01   -1.0823700428e+00
    4.7099784851e+01   -1.0906900167e+00
    4.7199695587e+01   -1.0990600586e+00
    4.7299804688e+01   -1.1074899435e+00
    4.7399776459e+01   -1.1159600019e+00
    4.7499843597e+01   -1.1244800091e+00
    4.7599708557e+01   -1.1330399513e+00
    4.7699691772e+01   -1.1416499615e+00
    4.7799755096e+01   -1.1503100395e+00
    4.7899799347e+01   -1.1590100527e+00
    4.7999759674e+01   -1.1677500010e+00
    4.8099727631e+01   -1.1765400171e+00
    4.8199680328e+01   -1.1853799820e+00
    4.8299709320e+01   -1.1942700148e+00
    4.8399784088e+01   -1.2032099962e+00
    4.8499725342e+01   -1.2121900320e+00
    4.8599765778e+01   -1.2212300301e+00
    4.8699726105e+01   -1.2303099632e+00
    4.8799701691e+01   -1.2394399643e+00
    4.8899768829e+01   -1.2486300468e+00
    4.8999675751e+01   -1.2578500509e+00
    4.9099800110e+01   -1.2671300173e+00
    4.9199691772e+01   -1.2764400244e+00
    4.9299644470e+01   -1.2857999802e+00
    4.9399677277e+01   -1.2952100039e+00
    4.9499786377e+01   -1.3046799898e+00
    4.9599704742e+01   -1.3141700029e+00
    4.9699722290e+01   -1.3237199783e+00
    4.9799629211e+01   -1.3332999945e+00
    4.9899761200e+01   -1.3429600000e+00
    4.9999683380e+01   -1.3526400328e+00
    5.0099693298e+01   -1.3623800278e+00
    5.0199775696e+01   -1.3721799850e+00
    5.0299724579e+01   -1.3820099831e+00
    5.0399742126e+01   -1.3918999434e+00
    5.0499668121e+01   -1.4018299580e+00
    5.0599678040e+01   -1.4118200541e+00
    5.0699630737e+01   -1.4218499660e+00
    5.0799720764e+01   -1.4319399595e+00
    5.0899765015e+01   -1.4420800209e+00
    5.0999656677e+01   -1.4522600174e+00
    5.1099712372e+01   -1.4624999762e+00
    5.1199718475e+01   -1.4727799892e+00
    5.1299747467e+01   -1.4831000566e+00
    5.1399620056e+01   -1.4934400320e+00
    5.1499671936e+01   -1.5038399696e+00
    5.1599685669e+01   -1.5142799616e+00
    5.1699718475e+01   -1.5247600079e+00
    5.1799606323e+01   -1.5352699757e+00
    5.1899761200e+01   -1.5458600521e+00
    5.1999633789e+01   -1.5564700365e+00
    5.2099731445e+01   -1.5671700239e+00
    5.2199714661e+01   -1.5779199600e+00
    5.2299598694e+01   -1.5887199640e+00
    5.2399673462e+01   -1.5995999575e+00
    5.2499603271e+01   -1.6105099916e+00
    5.2599750519e+01   -1.6215300560e+00
    5.2699607849e+01   -1.6325700283e+00
    5.2799686432e+01   -1.6437000036e+00
    5.2899692535e+01   -1.6548999548e+00
    5.2999664307e+01   -1.6661499739e+00
    5.3099590302e+01   -1.6774699688e+00
    5.3199596405e+01   -1.6888500452e+00
    5.3299671173e+01   -1.7003099918e+00
    5.3399654388e+01   -1.7118099928e+00
    5.3499603271e+01   -1.7233699560e+00
    5.3599712372e+01   -1.7350100279e+00
    5.3699672699e+01   -1.7466800213e+00
    5.3799583435e+01   -1.7583999634e+00
    5.3899574280e+01   -1.7701900005e+00
    5.3999687195e+01   -1.7820500135e+00
    5.4099624634e+01   -1.7939599752e+00
    5.4199634552e+01   -1.8059500456e+00
    5.4299663544e+01   -1.8180099726e+00
    5.4399547577e+01   -1.8301099539e+00
    5.4499645233e+01   -1.8423199654e+00
    5.4599685669e+01   -1.8545800447e+00
    5.4699588776e+01   -1.8668999672e+00
    5.4799594879e+01   -1.8792899847e+00
    5.4899650574e+01   -1.8917399645e+00
    5.4999568939e+01   -1.9042500257e+00
    5.5099613190e+01   -1.9168299437e+00
    5.5199722290e+01   -1.9294999838e+00
    5.5299694061e+01   -1.9422199726e+00
    5.5399608612e+01   -1.9549800158e+00
    5.5499637604e+01   -1.9678299427e+00
    5.5599674225e+01   -1.9807300568e+00
    5.5699668884e+01   -1.9937000275e+00
    5.5799541473e+01   -2.0067000389e+00
    5.5899627686e+01   -2.0198099613e+00
    5.5999656677e+01   -2.0329699516e+00
    5.6099613190e+01   -2.0462000370e+00
    5.6199653625e+01   -2.0595200062e+00
    5.6299560547e+01   -2.0728900433e+00
    5.6399532318e+01   -2.0863499641e+00
    5.6499553680e+01   -2.0998799801e+00
    5.6599662781e+01   -2.1135098934e+00
    5.6699607849e+01   -2.1271901131e+00
    5.6799545288e+01   -2.1409299374e+00
    5.6899665833e+01   -2.1547598839e+00
    5.6999614716e+01   -2.1686398983e+00
    5.7099521637e+01   -2.1825599670e+00
    5.7199523926e+01   -2.1965699196e+00
    5.7299674988e+01   -2.2106599808e+00
    5.7399566650e+01   -2.2247700691e+00
    5.7499595642e+01   -2.2389600277e+00
    5.7599620819e+01   -2.2532100677e+00
    5.7699558258e+01   -2.2675099373e+00
    5.7799518585e+01   -2.2818601131e+00
    5.7899627686e+01   -2.2962999344e+00
    5.7999576569e+01   -2.3107800484e+00
    5.8099639893e+01   -2.3253300190e+00
    5.8199581146e+01   -2.3399200439e+00
    5.8299652100e+01   -2.3545899391e+00
    5.8399593353e+01   -2.3693099022e+00
    5.8499515533e+01   -2.3840899467e+00
    5.8599624634e+01   -2.3989601135e+00
    5.8699584961e+01   -2.4138700962e+00
    5.8799510956e+01   -2.4288399220e+00
    5.8899551392e+01   -2.4438800812e+00
    5.8999591827e+01   -2.4589800835e+00
    5.9099605560e+01   -2.4741399288e+00
    5.9199497223e+01   -2.4893400669e+00
    5.9299488068e+01   -2.5046100616e+00
    5.9399654388e+01   -2.5199699402e+00
    5.9499633789e+01   -2.5353500843e+00
    5.9599586487e+01   -2.5508000851e+00
    5.9699630737e+01   -2.5663099289e+00
    5.9799552917e+01   -2.5818800926e+00
    5.9899524689e+01   -2.5975100994e+00
    5.9999519348e+01   -2.6132099628e+00
    6.0099643707e+01   -2.6289799213e+00
    6.0199581146e+01   -2.6447899342e+00
    6.0299583435e+01   -2.6606800556e+00
    6.0399501801e+01   -2.6766200066e+00
    6.0499507904e+01   -2.6926300526e+00
    6.0599502563e+01   -2.7087099552e+00
    6.0699542999e+01   -2.7248499393e+00
    6.0799564362e+01   -2.7410500050e+00
    6.0899490356e+01   -2.7573099136e+00
    6.0999588013e+01   -2.7736599445e+00
    6.1099559784e+01   -2.7900500298e+00
    6.1199512482e+01   -2.8064899445e+00
    6.1299606323e+01   -2.8230099678e+00
    6.1399570465e+01   -2.8395500183e+00
    6.1499546051e+01   -2.8561499119e+00
    6.1599517822e+01   -2.8728001118e+00
    6.1699516296e+01   -2.8894999027e+00
    6.1799499512e+01   -2.9062700272e+00
    6.1899562836e+01   -2.9231100082e+00
    6.1999618530e+01   -2.9400200844e+00
    6.2099491119e+01   -2.9569799900e+00
    6.2199600220e+01   -2.9740500450e+00
    6.2299610138e+01   -2.9911799431e+00
    6.2399501801e+01   -3.0083599091e+00
    6.2499546051e+01   -3.0256500244e+00
    6.2599575043e+01   -3.0430200100e+00
    6.2699577332e+01   -3.0604600906e+00
    6.2799491882e+01   -3.0779700279e+00
    6.2899452209e+01   -3.0955700874e+00
    6.2999519348e+01   -3.1132800579e+00
    6.3099445343e+01   -3.1310400963e+00
    6.3199558258e+01   -3.1489100456e+00
    6.3299438477e+01   -3.1668200493e+00
    6.3399513245e+01   -3.1848399639e+00
    6.3499568939e+01   -3.2029299736e+00
    6.3599418640e+01   -3.2210500240e+00
    6.3699485779e+01   -3.2392799854e+00
    6.3799503326e+01   -3.2575700283e+00
    6.3899452209e+01   -3.2759199142e+00
    6.3999488831e+01   -3.2943699360e+00
    6.4099487305e+01   -3.3129000664e+00
    6.4199447632e+01   -3.3315100670e+00
    6.4299552917e+01   -3.3502299786e+00
    6.4399536133e+01   -3.3690099716e+00
    6.4499488831e+01   -3.3878700733e+00
    6.4599418640e+01   -3.4068100452e+00
    6.4699417114e+01   -3.4258499146e+00
    6.4799423218e+01   -3.4449698925e+00
    6.4899421692e+01   -3.4641599655e+00
    6.4999542236e+01   -3.4834599495e+00
    6.5099555969e+01   -3.5028200150e+00
    6.5199523926e+01   -3.5222599506e+00
    6.5299377441e+01   -3.5417599678e+00
    6.5399513245e+01   -3.5613899231e+00
    6.5499412537e+01   -3.5810599327e+00
    6.5599411011e+01   -3.6008200645e+00
    6.5699424744e+01   -3.6206700802e+00
    6.5799400330e+01   -3.6405999660e+00
    6.5899452209e+01   -3.6606199741e+00
    6.5999427795e+01   -3.6807200909e+00
    6.6099388123e+01   -3.7009100914e+00
    6.6199417114e+01   -3.7212100029e+00
    6.6299415588e+01   -3.7416000366e+00
    6.6399398804e+01   -3.7620699406e+00
    6.6499412537e+01   -3.7826499939e+00
    6.6599380493e+01   -3.8033099174e+00
    6.6699378967e+01   -3.8240699768e+00
    6.6799461365e+01   -3.8449299335e+00
    6.6899375916e+01   -3.8658399582e+00
    6.6999488831e+01   -3.8868799210e+00
    6.7099540710e+01   -3.9079799652e+00
    6.7199363708e+01   -3.9291300774e+00
    6.7299507141e+01   -3.9504199028e+00
    6.7399497986e+01   -3.9717500210e+00
    6.7499420166e+01   -3.9931499958e+00
    6.7599533081e+01   -4.0146698952e+00
    6.7699516296e+01   -4.0362401009e+00
    6.7799362183e+01   -4.0578498840e+00
    6.7899444580e+01   -4.0795898438e+00
    6.7999511719e+01   -4.1014099121e+00
    6.8099472046e+01   -4.1232800484e+00
    6.8199531555e+01   -4.1452498436e+00
    6.8299430847e+01   -4.1672601700e+00
    6.8399414062e+01   -4.1893701553e+00
    6.8499496460e+01   -4.2115898132e+00
    6.8599418640e+01   -4.2338500023e+00
    6.8699386597e+01   -4.2561998367e+00
    6.8799392700e+01   -4.2786397934e+00
    6.8899421692e+01   -4.3011698723e+00
    6.8999366760e+01   -4.3237500191e+00
    6.9099372864e+01   -4.3464298248e+00
    6.9199440002e+01   -4.3692002296e+00
    6.9299400330e+01   -4.3920202255e+00
    6.9399444580e+01   -4.4149298668e+00
    6.9499412537e+01   -4.4379100800e+00
    6.9599327087e+01   -4.4609599113e+00
    6.9699478149e+01   -4.4841299057e+00
    6.9799331665e+01   -4.5073099136e+00
    6.9899452209e+01   -4.5306401253e+00
    6.9999389648e+01   -4.5540099144e+00
    7.0099426270e+01   -4.5774698257e+00
    7.0199493408e+01   -4.6010298729e+00
    7.0299446106e+01   -4.6246399879e+00
    7.0399475098e+01   -4.6483597755e+00
    7.0499389648e+01   -4.6721301079e+00
    7.0599334717e+01   -4.6959900856e+00
    7.0699302673e+01   -4.7199401855e+00
    7.0799377441e+01   -4.7439899445e+00
    7.0899337769e+01   -4.7680997849e+00
    7.0999313354e+01   -4.7923002243e+00
    7.1099380493e+01   -4.8165998459e+00
    7.1199310303e+01   -4.8409399986e+00
    7.1299301147e+01   -4.8653597832e+00
    7.1399375916e+01   -4.8898601532e+00
    7.1499404907e+01   -4.9144301414e+00
    7.1599403381e+01   -4.9390501976e+00
    7.1699432373e+01   -4.9637598991e+00
    7.1799438477e+01   -4.9885401726e+00
    7.1899360657e+01   -5.0133700371e+00
    7.1999351501e+01   -5.0383100510e+00
    7.2099395752e+01   -5.0633702278e+00
    7.2199386597e+01   -5.0885000229e+00
    7.2299392700e+01   -5.1137299538e+00
    7.2399284363e+01   -5.1390199661e+00
    7.2499351501e+01   -5.1644501686e+00
    7.2599441528e+01   -5.1900000572e+00
    7.2699371338e+01   -5.2156000137e+00
    7.2799301147e+01   -5.2412900925e+00
    7.2899337769e+01   -5.2671198845e+00
    7.2999397278e+01   -5.2930498123e+00
    7.3099411011e+01   -5.3190698624e+00
    7.3199302673e+01   -5.3451499939e+00
    7.3299270630e+01   -5.3713498116e+00
    7.3399269104e+01   -5.3976497650e+00
    7.3499389648e+01   -5.4240698814e+00
    7.3599426270e+01   -5.4505600929e+00
    7.3699432373e+01   -5.4771199226e+00
    7.3799377441e+01   -5.5037498474e+00
    7.3899391174e+01   -5.5304999352e+00
    7.3999351501e+01   -5.5573401451e+00
    7.4099319458e+01   -5.5842800140e+00
    7.4199348450e+01   -5.6113300323e+00
    7.4299362183e+01   -5.6384902000e+00
    7.4399276733e+01   -5.6657199860e+00
    7.4499359131e+01   -5.6930899620e+00
    7.4599411011e+01   -5.7205600739e+00
    7.4699378967e+01   -5.7480998039e+00
    7.4799385071e+01   -5.7757401466e+00
    7.4899284363e+01   -5.8034501076e+00
    7.4999252319e+01   -5.8312702179e+00
    7.5099349976e+01   -5.8592300415e+00
    7.5199287415e+01   -5.8872399330e+00
    7.5299339294e+01   -5.9153800011e+00
    7.5399238586e+01   -5.9435801506e+00
    7.5499366760e+01   -5.9719300270e+00
    7.5599395752e+01   -6.0003499985e+00
    7.5699287415e+01   -6.0288300514e+00
    7.5799400330e+01   -6.0574698448e+00
    7.5899253845e+01   -6.0861201286e+00
    7.5999336243e+01   -6.1149501801e+00
    7.6099342346e+01   -6.1438598633e+00
    7.6199371338e+01   -6.1728901863e+00
    7.6299293518e+01   -6.2019901276e+00
    7.6399307251e+01   -6.2312297821e+00
    7.6499382019e+01   -6.2605900764e+00
    7.6599235535e+01   -6.2899999619e+00
    7.6699325562e+01   -6.3195700645e+00
    7.6799224854e+01   -6.3491902351e+00
    7.6899253845e+01   -6.3789401054e+00
    7.6999343872e+01   -6.4088001251e+00
    7.7099334717e+01   -6.4387397766e+00
    7.7199234009e+01   -6.4687399864e+00
    7.7299263000e+01   -6.4988799095e+00
    7.7399253845e+01   -6.5290899277e+00
    7.7499359131e+01   -6.5594201088e+00
    7.7599250793e+01   -6.5897898674e+00
    7.7699203491e+01   -6.6202502251e+00
    7.7799331665e+01   -6.6508598328e+00
    7.7899253845e+01   -6.6814899445e+00
    7.7999282837e+01   -6.7122402191e+00
    7.8099273682e+01   -6.7430701256e+00
    7.8199310303e+01   -6.7740001678e+00
    7.8299217224e+01   -6.8049798012e+00
    7.8399223328e+01   -6.8360800743e+00
    7.8499313354e+01   -6.8672900200e+00
    7.8599311829e+01   -6.8985700607e+00
    7.8699195862e+01   -6.9299101830e+00
    7.8799255371e+01   -6.9613900185e+00
    7.8899185181e+01   -6.9929199219e+00
    7.8999282837e+01   -7.0245900154e+00
    7.9099205017e+01   -7.0562901497e+00
    7.9199302673e+01   -7.0881299973e+00
    7.9299232483e+01   -7.1200098991e+00
    7.9399223328e+01   -7.1519799232e+00
    7.9499259949e+01   -7.1840600967e+00
    7.9599235535e+01   -7.2162098885e+00
    7.9699226379e+01   -7.2484397888e+00
    7.9799232483e+01   -7.2807798386e+00
    7.9899238586e+01   -7.3131899834e+00
    7.9999221802e+01   -7.3456897736e+00
    8.0099304199e+01   -7.3783102036e+00
    8.0199310303e+01   -7.4109997749e+00
    8.0299293518e+01   -7.4437699318e+00
    8.0399322510e+01   -7.4766502380e+00
    8.0499328613e+01   -7.5096101761e+00
    8.0599273682e+01   -7.5426502228e+00
    8.0699256897e+01   -7.5757799149e+00
    8.0799240112e+01   -7.6089901924e+00
    8.0899208069e+01   -7.6423001289e+00
    8.0999267578e+01   -7.6757302284e+00
    8.1099227905e+01   -7.7092099190e+00
    8.1199195862e+01   -7.7427701950e+00
    8.1299148560e+01   -7.7764000893e+00
    8.1399139404e+01   -7.8101201057e+00
    8.1499137878e+01   -7.8439102173e+00
    8.1599281311e+01   -7.8778200150e+00
    8.1699157715e+01   -7.9117298126e+00
    8.1799186707e+01   -7.9457697868e+00
    8.1899269104e+01   -7.9799098969e+00
    8.1999237061e+01   -8.0141096115e+00
    8.2099151611e+01   -8.0483999252e+00
    8.2199302673e+01   -8.0828599930e+00
    8.2299301147e+01   -8.1173696518e+00
    8.2399291992e+01   -8.1519699097e+00
    8.2499130249e+01   -8.1866197586e+00
    8.2599143982e+01   -8.2214498520e+00
    8.2699134827e+01   -8.2563600540e+00
    8.2799156189e+01   -8.2913904190e+00
    8.2899230957e+01   -8.3265399933e+00
    8.2999198914e+01   -8.3617601395e+00
    8.3099220276e+01   -8.3971004486e+00
    8.3199157715e+01   -8.4325199127e+00
    8.3299232483e+01   -8.4680795670e+00
    8.3399177551e+01   -8.5036897659e+00
    8.3499122620e+01   -8.5394001007e+00
    8.3599105835e+01   -8.5752096176e+00
    8.3699195862e+01   -8.6111497879e+00
    8.3799148560e+01   -8.6471300125e+00
    8.3899253845e+01   -8.6832599640e+00
    8.3999259949e+01   -8.7194595337e+00
    8.4099105835e+01   -8.7557096481e+00
    8.4199127197e+01   -8.7921199799e+00
    8.4299171448e+01   -8.8286504745e+00
    8.4399276733e+01   -8.8653097153e+00
    8.4499244690e+01   -8.9020204544e+00
    8.4599136353e+01   -8.9387998581e+00
    8.4699180603e+01   -8.9757404327e+00
    8.4799186707e+01   -9.0127601624e+00
    8.4899238586e+01   -9.0499000549e+00
    8.4999252319e+01   -9.0871095657e+00
    8.5099166870e+01   -9.1243896484e+00
    8.5199203491e+01   -9.1618299484e+00
    8.5299133301e+01   -9.1993198395e+00
    8.5399215698e+01   -9.2369604111e+00
    8.5499084473e+01   -9.2746200562e+00
    8.5599105835e+01   -9.3124303818e+00
    8.5699226379e+01   -9.3503704071e+00
    8.5799163818e+01   -9.3883495331e+00
    8.5899246216e+01   -9.4264898300e+00
    8.5999076843e+01   -9.4646196365e+00
    8.6099128723e+01   -9.5029497147e+00
    8.6199073792e+01   -9.5413599014e+00
    8.6299217224e+01   -9.5799398422e+00
    8.6399215698e+01   -9.6185798645e+00
    8.6499237061e+01   -9.6573295593e+00
    8.6599082947e+01   -9.6961402893e+00
    8.6699096680e+01   -9.7351102829e+00
    8.6799194336e+01   -9.7742099762e+00
    8.6899200439e+01   -9.8133697510e+00
    8.6999214172e+01   -9.8526296616e+00
    8.7099174500e+01   -9.8919696808e+00
    8.7199073792e+01   -9.9313802719e+00
    8.7299118042e+01   -9.9709396362e+00
    8.7399047852e+01   -1.0010499954e+01
    8.7499076843e+01   -1.0050299644e+01
    8.7599090576e+01   -1.0090100288e+01
    8.7699226379e+01   -1.0130100250e+01
    8.7799179077e+01   -1.0170000076e+01
    8.7899223328e+01   -1.0210100174e+01
    8.7999160767e+01   -1.0250300407e+01
    8.8099220276e+01   -1.0290599823e+01
    8.8199180603e+01   -1.0330900192e+01
    8.8299087524e+01   -1.0371299744e+01
    8.8399131775e+01   -1.0411800385e+01
    8.8499206543e+01   -1.0452500343e+01
    8.8599098206e+01   -1.0493200302e+01
    8.8699096680e+01   -1.0534000397e+01
    8.8799209595e+01   -1.0574899673e+01
    8.8899154663e+01   -1.0615900040e+01
    8.8999183655e+01   -1.0656900406e+01
    8.9099166870e+01   -1.0698100090e+01
    8.9199157715e+01   -1.0739299774e+01
    8.9299041748e+01   -1.0780599594e+01
    8.9399047852e+01   -1.0821999550e+01
    8.9499176025e+01   -1.0863599777e+01
    8.9599075317e+01   -1.0905099869e+01
    8.9699188232e+01   -1.0946800232e+01
    8.9799171448e+01   -1.0988599777e+01
    8.9899032593e+01   -1.1030400276e+01
    8.9999038696e+01   -1.1072299957e+01
    9.0099159241e+01   -1.1114399910e+01
    9.0199005127e+01   -1.1156399727e+01
    9.0299125671e+01   -1.1198699951e+01
    9.0399063110e+01   -1.1241000175e+01
    9.0499130249e+01   -1.1283399582e+01
    9.0599159241e+01   -1.1325900078e+01
    9.0699081421e+01   -1.1368399620e+01
    9.0799171448e+01   -1.1411100388e+01
    9.0899009705e+01   -1.1453800201e+01
    9.0999168396e+01   -1.1496700287e+01
    9.1099151611e+01   -1.1539600372e+01
    9.1199073792e+01   -1.1582500458e+01
    9.1299057007e+01   -1.1625599861e+01
    9.1398994446e+01   -1.1668700218e+01
    9.1499046326e+01   -1.1711899757e+01
    9.1599113464e+01   -1.1755200386e+01
    9.1699127197e+01   -1.1798600197e+01
    9.1799171448e+01   -1.1842100143e+01
    9.1899078369e+01   -1.1885499954e+01
    9.1999114990e+01   -1.1929200172e+01
    9.2099098206e+01   -1.1972900391e+01
    9.2199127197e+01   -1.2016699791e+01
    9.2299110413e+01   -1.2060700417e+01
    9.2399101257e+01   -1.2104700089e+01
    9.2499023438e+01   -1.2148799896e+01
    9.2599098206e+01   -1.2192999840e+01
    9.2699005127e+01   -1.2237299919e+01
    9.2799041748e+01   -1.2281800270e+01
    9.2899116516e+01   -1.2326399803e+01
    9.2999008179e+01   -1.2371000290e+01
    9.3099113464e+01   -1.2415800095e+01
    9.3199012756e+01   -1.2460599899e+01
    9.3299034119e+01   -1.2505599976e+01
    9.3399032593e+01   -1.2550700188e+01
    9.3499137878e+01   -1.2595899582e+01
    9.3599136353e+01   -1.2641200066e+01
    9.3699119568e+01   -1.2686499596e+01
    9.3798965454e+01   -1.2731900215e+01
    9.3899009705e+01   -1.2777500153e+01
    9.3998992920e+01   -1.2823100090e+01
    9.4099067688e+01   -1.2868900299e+01
    9.4199058533e+01   -1.2914799690e+01
    9.4298950195e+01   -1.2960700035e+01
    9.4398979187e+01   -1.3006799698e+01
    9.4499099731e+01   -1.3053099632e+01
    9.4599098206e+01   -1.3099399567e+01
    9.4699066162e+01   -1.3145799637e+01
    9.4798995972e+01   -1.3192199707e+01
    9.4898948669e+01   -1.3238800049e+01
    9.4998939514e+01   -1.3285599709e+01
    9.5099014282e+01   -1.3332400322e+01
    9.5198974609e+01   -1.3379300117e+01
    9.5298995972e+01   -1.3426400185e+01
    9.5399063110e+01   -1.3473500252e+01
    9.5499069214e+01   -1.3520799637e+01
    9.5598960876e+01   -1.3568099976e+01
    9.5698982239e+01   -1.3615500450e+01
    9.5799026489e+01   -1.3663100243e+01
    9.5899078369e+01   -1.3710800171e+01
    9.5998947144e+01   -1.3758500099e+01
    9.6098976135e+01   -1.3806400299e+01
    9.6198974609e+01   -1.3854399681e+01
    9.6299003601e+01   -1.3902500153e+01
    9.6399070740e+01   -1.3950799942e+01
    9.6498947144e+01   -1.3999099731e+01
    9.6598953247e+01   -1.4047499657e+01
    9.6698928833e+01   -1.4096099854e+01
    9.6799049377e+01   -1.4144900322e+01
    9.6898971558e+01   -1.4193599701e+01
    9.6999076843e+01   -1.4242600441e+01
    9.7098937988e+01   -1.4291500092e+01
    9.7198974609e+01   -1.4340600014e+01
    9.7298912048e+01   -1.4389800072e+01
    9.7399055481e+01   -1.4439200401e+01
    9.7499008179e+01   -1.4488499641e+01
    9.7598922729e+01   -1.4538000107e+01
    9.7698928833e+01   -1.4587599754e+01
    9.7799018860e+01   -1.4637299538e+01
    9.7899002075e+01   -1.4687100410e+01
    9.7998908997e+01   -1.4736900330e+01
    9.8098945618e+01   -1.4786899567e+01
    9.8198989868e+01   -1.4836899757e+01
    9.8298927307e+01   -1.4887000084e+01
    9.8399032593e+01   -1.4937299728e+01
    9.8498947144e+01   -1.4987600327e+01
    9.8599029541e+01   -1.5038100243e+01
    9.8698898315e+01   -1.5088600159e+01
    9.8798881531e+01   -1.5139200211e+01
    9.8899024963e+01   -1.5189999580e+01
    9.8998886108e+01   -1.5240699768e+01
    9.9098922729e+01   -1.5291700363e+01
    9.9199020386e+01   -1.5342700005e+01
    9.9299049377e+01   -1.5393799782e+01
    9.9398948669e+01   -1.5444899559e+01
    9.9498939514e+01   -1.5496199608e+01
    9.9598899841e+01   -1.5547499657e+01
    9.9698875427e+01   -1.5598999977e+01
    9.9798973083e+01   -1.5650500298e+01
    9.9898933411e+01   -1.5702199936e+01
    9.9998931885e+01   -1.5753899574e+01
    1.0009902954e+02   -1.5805700302e+01
    1.0019895935e+02   -1.5857600212e+01
    1.0029888916e+02   -1.5909600258e+01
    1.0039891815e+02   -1.5961700439e+01
    1.0049889374e+02   -1.6013900757e+01
    1.0059890747e+02   -1.6066200256e+01
    1.0069886017e+02   -1.6118499756e+01
    1.0079886627e+02   -1.6170999527e+01
    1.0089900970e+02   -1.6223699570e+01
    1.0099894714e+02   -1.6276300430e+01
    1.0109899139e+02   -1.6329099655e+01
    1.0119901276e+02   -1.6381900787e+01
    1.0129894257e+02   -1.6434799194e+01
    1.0139893341e+02   -1.6487699509e+01
    1.0149890137e+02   -1.6540800095e+01
    1.0159886932e+02   -1.6593900681e+01
    1.0169893646e+02   -1.6647100449e+01
    1.0179895020e+02   -1.6700399399e+01
    1.0189888000e+02   -1.6753799438e+01
    1.0199893188e+02   -1.6807300568e+01
    1.0209889221e+02   -1.6860799789e+01
    1.0219882965e+02   -1.6914499283e+01
    1.0229891968e+02   -1.6968399048e+01
    1.0239894867e+02   -1.7022300720e+01
    1.0249891663e+02   -1.7076299667e+01
    1.0259889984e+02   -1.7130399704e+01
    1.0269891357e+02   -1.7184700012e+01
    1.0279884338e+02   -1.7239000320e+01
    1.0289882660e+02   -1.7293500900e+01
    1.0299896240e+02   -1.7348199844e+01
    1.0309884644e+02   -1.7402799606e+01
    1.0319883728e+02   -1.7457599640e+01
    1.0329885864e+02   -1.7512599945e+01
    1.0339890289e+02   -1.7567600250e+01
    1.0349893188e+02   -1.7622800827e+01
    1.0359889221e+02   -1.7677999496e+01
    1.0369889832e+02   -1.7733400345e+01
    1.0379881287e+02   -1.7788799286e+01
    1.0389884186e+02   -1.7844299316e+01
    1.0399883270e+02   -1.7899900436e+01
    1.0409895325e+02   -1.7955799103e+01
    1.0419892883e+02   -1.8011699677e+01
    1.0429884338e+02   -1.8067600250e+01
    1.0439891815e+02   -1.8123800278e+01
    1.0449884796e+02   -1.8180000305e+01
    1.0459883881e+02   -1.8236299515e+01
    1.0469892883e+02   -1.8292800903e+01
    1.0479882050e+02   -1.8349300385e+01
    1.0489888000e+02   -1.8406099319e+01
    1.0499884796e+02   -1.8462799072e+01
    1.0509893036e+02   -1.8519800186e+01
    1.0519892883e+02   -1.8576799393e+01
    1.0529891205e+02   -1.8633899689e+01
    1.0539888000e+02   -1.8691099167e+01
    1.0549889374e+02   -1.8748500824e+01
    1.0559893799e+02   -1.8805900574e+01
    1.0569888306e+02   -1.8863399506e+01
    1.0579888153e+02   -1.8921100616e+01
    1.0589882660e+02   -1.8978900909e+01
    1.0599890137e+02   -1.9036800385e+01
    1.0609880829e+02   -1.9094699860e+01
    1.0619891357e+02   -1.9152900696e+01
    1.0629891968e+02   -1.9211200714e+01
    1.0639891815e+02   -1.9269599915e+01
    1.0649886322e+02   -1.9328100204e+01
    1.0659889984e+02   -1.9386699677e+01
    1.0669886780e+02   -1.9445499420e+01
    1.0679878998e+02   -1.9504299164e+01
    1.0689890289e+02   -1.9563299179e+01
    1.0699884033e+02   -1.9622400284e+01
    1.0709887695e+02   -1.9681600571e+01
    1.0719886017e+02   -1.9740800858e+01
    1.0729892731e+02   -1.9800300598e+01
    1.0739888000e+02   -1.9859699249e+01
    1.0749880981e+02   -1.9919200897e+01
    1.0759884644e+02   -1.9978900909e+01
    1.0769880676e+02   -2.0038700104e+01
    1.0779876709e+02   -2.0098499298e+01
    1.0789891052e+02   -2.0158599854e+01
    1.0799880981e+02   -2.0218599319e+01
    1.0809876251e+02   -2.0278699875e+01
    1.0819879150e+02   -2.0338899612e+01
    1.0829882812e+02   -2.0399299622e+01
    1.0839884949e+02   -2.0459699631e+01
    1.0849874878e+02   -2.0520200729e+01
    1.0859873199e+02   -2.0580799103e+01
    1.0869891357e+02   -2.0641599655e+01
    1.0879885101e+02   -2.0702400208e+01
    1.0889880371e+02   -2.0763299942e+01
    1.0899874878e+02   -2.0824199677e+01
    1.0909882355e+02   -2.0885400772e+01
    1.0919873810e+02   -2.0946500778e+01
    1.0929882050e+02   -2.1007799149e+01
    1.0939888763e+02   -2.1069200516e+01
    1.0949877930e+02   -2.1130500793e+01
    1.0959877777e+02   -2.1191999435e+01
    1.0969877625e+02   -2.1253499985e+01
    1.0979876709e+02   -2.1315000534e+01
    1.0989875793e+02   -2.1376600266e+01
    1.0999880219e+02   -2.1438299179e+01
    1.1009886169e+02   -2.1500000000e+01
    1.1019870758e+02   -2.1561700821e+01
    1.1029881287e+02   -2.1623500824e+01
    1.1039881897e+02   -2.1685300827e+01
    1.1049880981e+02   -2.1747100830e+01
    1.1059874725e+02   -2.1808900833e+01
    1.1069873810e+02   -2.1870800018e+01
    1.1079885101e+02   -2.1932699203e+01
    1.1089878082e+02   -2.1994699478e+01
    1.1099881744e+02   -2.2056699753e+01
    1.1109870911e+02   -2.2118700027e+01
    1.1119877625e+02   -2.2180900574e+01
    1.1129882050e+02   -2.2243099213e+01
    1.1139884186e+02   -2.2305299759e+01
    1.1149875641e+02   -2.2367500305e+01
    1.1159871674e+02   -2.2429800034e+01
    1.1169876862e+02   -2.2492099762e+01
    1.1179882050e+02   -2.2554500580e+01
    1.1189884186e+02   -2.2617000580e+01
    1.1199886322e+02   -2.2679500580e+01
    1.1209867859e+02   -2.2742000580e+01
    1.1219873810e+02   -2.2804700851e+01
    1.1229868317e+02   -2.2867300034e+01
    1.1239874268e+02   -2.2930099487e+01
    1.1249874115e+02   -2.2993000031e+01
    1.1259877014e+02   -2.3055900574e+01
    1.1269883728e+02   -2.3118900299e+01
    1.1279879761e+02   -2.3181900024e+01
    1.1289877319e+02   -2.3245000839e+01
    1.1299874878e+02   -2.3308200836e+01
    1.1309880829e+02   -2.3371599197e+01
    1.1319882965e+02   -2.3434999466e+01
    1.1329881287e+02   -2.3498399734e+01
    1.1339878845e+02   -2.3561899185e+01
    1.1349877930e+02   -2.3625600815e+01
    1.1359870148e+02   -2.3689199448e+01
    1.1369879150e+02   -2.3753000259e+01
    1.1379875946e+02   -2.3816900253e+01
    1.1389871216e+02   -2.3880699158e+01
    1.1399874115e+02   -2.3944700241e+01
    1.1409877014e+02   -2.4008899689e+01
    1.1419879913e+02   -2.4072999954e+01
    1.1429881287e+02   -2.4137199402e+01
    1.1439880371e+02   -2.4201499939e+01
    1.1449871063e+02   -2.4265699387e+01
    1.1459874725e+02   -2.4330099106e+01
    1.1469879913e+02   -2.4394399643e+01
    1.1479876709e+02   -2.4458700180e+01
    1.1489865112e+02   -2.4522899628e+01
    1.1499873352e+02   -2.4587200165e+01
    1.1509873962e+02   -2.4651399612e+01
    1.1519866180e+02   -2.4715499878e+01
    1.1529866028e+02   -2.4779499054e+01
    1.1539875031e+02   -2.4843500137e+01
    1.1549871063e+02   -2.4907400131e+01
    1.1559868622e+02   -2.4971099854e+01
    1.1569869232e+02   -2.5034799576e+01
    1.1579863739e+02   -2.5098400116e+01
    1.1589862823e+02   -2.5161899567e+01
    1.1599868774e+02   -2.5225500107e+01
    1.1609874725e+02   -2.5288999557e+01
    1.1619870758e+02   -2.5352399826e+01
    1.1629866028e+02   -2.5415800095e+01
    1.1639874268e+02   -2.5479200363e+01
    1.1649867249e+02   -2.5542600632e+01
    1.1659861755e+02   -2.5606100082e+01
    1.1669870758e+02   -2.5669599533e+01
    1.1679865265e+02   -2.5732999802e+01
    1.1689875031e+02   -2.5796600342e+01
    1.1699867249e+02   -2.5860099792e+01
    1.1709877014e+02   -2.5923799515e+01
    1.1719859314e+02   -2.5987300873e+01
    1.1729872131e+02   -2.6051000595e+01
    1.1739877319e+02   -2.6114700317e+01
    1.1749864197e+02   -2.6178199768e+01
    1.1759870148e+02   -2.6241899490e+01
    1.1769869995e+02   -2.6305500031e+01
    1.1779873657e+02   -2.6369100571e+01
    1.1789877319e+02   -2.6432600021e+01
    1.1799870300e+02   -2.6496000290e+01
    1.1809868622e+02   -2.6559400558e+01
    1.1819867706e+02   -2.6622600555e+01
    1.1829869080e+02   -2.6685800552e+01
    1.1839862061e+02   -2.6748899460e+01
    1.1849871826e+02   -2.6812000275e+01
    1.1859860992e+02   -2.6874799728e+01
    1.1869872284e+02   -2.6937700272e+01
    1.1879862213e+02   -2.7000299454e+01
    1.1889861298e+02   -2.7062900543e+01
    1.1899871063e+02   -2.7125499725e+01
    1.1909858704e+02   -2.7187900543e+01
    1.1919867706e+02   -2.7250299454e+01
    1.1929872131e+02   -2.7312599182e+01
    1.1939861298e+02   -2.7374700546e+01
    1.1949868774e+02   -2.7436800003e+01
    1.1959864044e+02   -2.7498699188e+01
    1.1969863129e+02   -2.7560600281e+01
    1.1979869843e+02   -2.7622400284e+01
    1.1989866638e+02   -2.7684000015e+01
    1.1999858093e+02   -2.7745500565e+01
    1.2009867859e+02   -2.7806900024e+01
    1.2019856262e+02   -2.7868000031e+01
    1.2029869843e+02   -2.7929100037e+01
    1.2039855957e+02   -2.7989900589e+01
    1.2049855804e+02   -2.8050600052e+01
    1.2059868622e+02   -2.8111200333e+01
    1.2069870758e+02   -2.8171600342e+01
    1.2079866791e+02   -2.8231800079e+01
    1.2089855194e+02   -2.8291799545e+01
    1.2099855042e+02   -2.8351699829e+01
    1.2109855652e+02   -2.8411500931e+01
    1.2119862366e+02   -2.8471200943e+01
    1.2129860687e+02   -2.8530700684e+01
    1.2139871216e+02   -2.8590099335e+01
    1.2149852753e+02   -2.8649299622e+01
    1.2159870148e+02   -2.8708499908e+01
    1.2169860077e+02   -2.8767499924e+01
    1.2179860687e+02   -2.8826499939e+01
    1.2189859009e+02   -2.8885299683e+01
    1.2199865723e+02   -2.8944099426e+01
    1.2209867859e+02   -2.9002799988e+01
    1.2219856262e+02   -2.9061300278e+01
    1.2229859161e+02   -2.9119800568e+01
    1.2239865875e+02   -2.9178300858e+01
    1.2249858856e+02   -2.9236499786e+01
    1.2259868622e+02   -2.9294799805e+01
    1.2269857788e+02   -2.9352800369e+01
    1.2279862213e+02   -2.9410900116e+01
    1.2289856720e+02   -2.9468799591e+01
    1.2299864960e+02   -2.9526699066e+01
    1.2309861755e+02   -2.9584400177e+01
    1.2319857025e+02   -2.9642000198e+01
    1.2329866791e+02   -2.9699600220e+01
    1.2339864349e+02   -2.9757099152e+01
    1.2349857330e+02   -2.9814399719e+01
    1.2359851074e+02   -2.9871500015e+01
    1.2369857788e+02   -2.9928699493e+01
    1.2379863739e+02   -2.9985599518e+01
    1.2389861298e+02   -3.0042400360e+01
    1.2399857330e+02   -3.0099100113e+01
    1.2409866333e+02   -3.0155700684e+01
    1.2419859314e+02   -3.0212099075e+01
    1.2429862976e+02   -3.0268400192e+01
    1.2439855957e+02   -3.0324399948e+01
    1.2449858093e+02   -3.0380399704e+01
    1.2459860992e+02   -3.0436199188e+01
    1.2469847870e+02   -3.0491800308e+01
    1.2479860687e+02   -3.0547399521e+01
    1.2489862823e+02   -3.0602699280e+01
    1.2499848175e+02   -3.0657800674e+01
    1.2509848785e+02   -3.0712900162e+01
    1.2519853210e+02   -3.0767799377e+01
    1.2529847717e+02   -3.0822500229e+01
    1.2539849854e+02   -3.0877099991e+01
    1.2549852753e+02   -3.0931600571e+01
    1.2559858704e+02   -3.0986000061e+01
    1.2569860840e+02   -3.1040100098e+01
    1.2579850769e+02   -3.1094100952e+01
    1.2589858246e+02   -3.1148099899e+01
    1.2599852753e+02   -3.1201799393e+01
    1.2609851837e+02   -3.1255500793e+01
    1.2619860077e+02   -3.1309099197e+01
    1.2629859924e+02   -3.1362499237e+01
    1.2639849854e+02   -3.1415700912e+01
    1.2649848175e+02   -3.1468900681e+01
    1.2659853363e+02   -3.1521999359e+01
    1.2669847870e+02   -3.1574899673e+01
    1.2679846954e+02   -3.1627799988e+01
    1.2689852905e+02   -3.1680500031e+01
    1.2699861908e+02   -3.1733200073e+01
    1.2709854126e+02   -3.1785699844e+01
    1.2719860840e+02   -3.1838199615e+01
    1.2729846954e+02   -3.1890399933e+01
    1.2739855194e+02   -3.1942600250e+01
    1.2749859619e+02   -3.1994800568e+01
    1.2759858704e+02   -3.2046699524e+01
    1.2769860077e+02   -3.2098598480e+01
    1.2779853821e+02   -3.2150299072e+01
    1.2789846802e+02   -3.2201801300e+01
    1.2799845123e+02   -3.2253200531e+01
    1.2809846497e+02   -3.2304500580e+01
    1.2819851685e+02   -3.2355598450e+01
    1.2829855347e+02   -3.2406600952e+01
    1.2839849854e+02   -3.2457401276e+01
    1.2849847412e+02   -3.2507999420e+01
    1.2859855652e+02   -3.2558498383e+01
    1.2869859314e+02   -3.2608798981e+01
    1.2879861450e+02   -3.2658901215e+01
    1.2889855957e+02   -3.2708801270e+01
    1.2899859619e+02   -3.2758701324e+01
    1.2909864807e+02   -3.2808300018e+01
    1.2919850159e+02   -3.2857799530e+01
    1.2929866028e+02   -3.2907199860e+01
    1.2939849854e+02   -3.2956298828e+01
    1.2949856567e+02   -3.3005401611e+01
    1.2959854126e+02   -3.3054298401e+01
    1.2969856262e+02   -3.3103099823e+01
    1.2979859924e+02   -3.3151699066e+01
    1.2989860535e+02   -3.3200199127e+01
    1.2999867249e+02   -3.3248500824e+01
    1.3009855652e+02   -3.3296600342e+01
    1.3019866943e+02   -3.3344699860e+01
    1.3029856873e+02   -3.3392601013e+01
    1.3039860535e+02   -3.3440399170e+01
    1.3049873352e+02   -3.3488098145e+01
    1.3059861755e+02   -3.3535499573e+01
    1.3069860840e+02   -3.3582901001e+01
    1.3079870605e+02   -3.3630199432e+01
    1.3089869690e+02   -3.3677299500e+01
    1.3099877930e+02   -3.3724300385e+01
    1.3109866333e+02   -3.3771099091e+01
    1.3119879150e+02   -3.3818000793e+01
    1.3129873657e+02   -3.3864601135e+01
    1.3139869690e+02   -3.3911098480e+01
    1.3149873352e+02   -3.3957500458e+01
    1.3159877014e+02   -3.4003799438e+01
    1.3169868469e+02   -3.4049900055e+01
    1.3179873657e+02   -3.4095901489e+01
    1.3189866638e+02   -3.4141700745e+01
    1.3199873352e+02   -3.4187500000e+01
    1.3209867859e+02   -3.4233200073e+01
    1.3219885254e+02   -3.4278800964e+01
    1.3229873657e+02   -3.4324199677e+01
    1.3239875793e+02   -3.4369598389e+01
    1.3249885559e+02   -3.4414901733e+01
    1.3259869385e+02   -3.4460098267e+01
    1.3269874573e+02   -3.4505298615e+01
    1.3279879761e+02   -3.4550498962e+01
    1.3289883423e+02   -3.4595699310e+01
    1.3299884033e+02   -3.4640800476e+01
    1.3309878540e+02   -3.4685901642e+01
    1.3319885254e+02   -3.4730998993e+01
    1.3329884338e+02   -3.4776100159e+01
    1.3339892578e+02   -3.4821300507e+01
    1.3349884033e+02   -3.4866298676e+01
    1.3359878540e+02   -3.4911399841e+01
    1.3369877625e+02   -3.4956501007e+01
    1.3379888916e+02   -3.5001598358e+01
    1.3389889526e+02   -3.5046600342e+01
    1.3399887085e+02   -3.5091598511e+01
    1.3409890747e+02   -3.5136699677e+01
    1.3419897461e+02   -3.5181701660e+01
    1.3429887390e+02   -3.5226600647e+01
    1.3439880371e+02   -3.5271499634e+01
    1.3449896240e+02   -3.5316398621e+01
    1.3459886169e+02   -3.5361198425e+01
    1.3469900513e+02   -3.5405998230e+01
    1.3479890442e+02   -3.5450698853e+01
    1.3489892578e+02   -3.5495399475e+01
    1.3499890137e+02   -3.5540100098e+01
    1.3509890747e+02   -3.5584701538e+01
    1.3519891357e+02   -3.5629299164e+01
    1.3529893494e+02   -3.5673999786e+01
    1.3539889526e+02   -3.5718601227e+01
    1.3549890137e+02   -3.5763198853e+01
    1.3559887695e+02   -3.5807800293e+01
    1.3569897461e+02   -3.5852500916e+01
    1.3579901123e+02   -3.5897098541e+01
    1.3589898682e+02   -3.5941699982e+01
    1.3599890137e+02   -3.5986400604e+01
    1.3609898376e+02   -3.6031101227e+01
    1.3619894409e+02   -3.6075801849e+01
    1.3629898071e+02   -3.6120601654e+01
    1.3639910889e+02   -3.6165500641e+01
    1.3649894714e+02   -3.6210201263e+01
    1.3659907532e+02   -3.6255100250e+01
    1.3669912720e+02   -3.6300098419e+01
    1.3679899597e+02   -3.6344898224e+01
    1.3689895630e+02   -3.6389900208e+01
    1.3699903870e+02   -3.6435001373e+01
    1.3709899902e+02   -3.6479999542e+01
    1.3719905090e+02   -3.6525199890e+01
    1.3729899597e+02   -3.6570400238e+01
    1.3739915466e+02   -3.6615699768e+01
    1.3749913025e+02   -3.6660999298e+01
    1.3759915161e+02   -3.6706401825e+01
    1.3769909668e+02   -3.6751899719e+01
    1.3779910278e+02   -3.6797500610e+01
    1.3789910889e+02   -3.6843101501e+01
    1.3799906921e+02   -3.6888801575e+01
    1.3809921265e+02   -3.6934600830e+01
    1.3819921875e+02   -3.6980499268e+01
    1.3829916382e+02   -3.7026401520e+01
    1.3839907837e+02   -3.7072498322e+01
    1.3849917603e+02   -3.7118598938e+01
    1.3859916687e+02   -3.7164798737e+01
    1.3869920349e+02   -3.7211200714e+01
    1.3879908752e+02   -3.7257499695e+01
    1.3889912415e+02   -3.7304000854e+01
    1.3899908447e+02   -3.7350498199e+01
    1.3909922791e+02   -3.7397201538e+01
    1.3919911194e+02   -3.7443801880e+01
    1.3929922485e+02   -3.7490600586e+01
    1.3939927673e+02   -3.7537498474e+01
    1.3949929810e+02   -3.7584400177e+01
    1.3959913635e+02   -3.7631301880e+01
    1.3969929504e+02   -3.7678398132e+01
    1.3979917908e+02   -3.7725399017e+01
    1.3989920044e+02   -3.7772598267e+01
    1.3999916077e+02   -3.7819801331e+01
    1.4009925842e+02   -3.7867198944e+01
    1.4019923401e+02   -3.7914600372e+01
    1.4029917908e+02   -3.7962001801e+01
    1.4039918518e+02   -3.8009601593e+01
    1.4049929810e+02   -3.8057300568e+01
    1.4059925842e+02   -3.8104999542e+01
    1.4069934082e+02   -3.8152999878e+01
    1.4079927063e+02   -3.8200901031e+01
    1.4089927673e+02   -3.8249000549e+01
    1.4099934387e+02   -3.8297298431e+01
    1.4109927368e+02   -3.8345600128e+01
    1.4119932556e+02   -3.8394100189e+01
    1.4129925537e+02   -3.8442699432e+01
    1.4139933777e+02   -3.8491500854e+01
    1.4149928284e+02   -3.8540401459e+01
    1.4159936523e+02   -3.8589500427e+01
    1.4169929504e+02   -3.8638599396e+01
    1.4179933167e+02   -3.8687900543e+01
    1.4189935303e+02   -3.8737400055e+01
    1.4199931335e+02   -3.8786899567e+01
    1.4209941101e+02   -3.8836700439e+01
    1.4219935608e+02   -3.8886600494e+01
    1.4229931641e+02   -3.8936599731e+01
    1.4239945984e+02   -3.8986900330e+01
    1.4249943542e+02   -3.9037300110e+01
    1.4259944153e+02   -3.9087898254e+01
    1.4269938660e+02   -3.9138698578e+01
    1.4279943848e+02   -3.9189800262e+01
    1.4289932251e+02   -3.9240898132e+01
    1.4299949646e+02   -3.9292499542e+01
    1.4309941101e+02   -3.9344100952e+01
    1.4319949341e+02   -3.9396099091e+01
    1.4329942322e+02   -3.9448200226e+01
    1.4339950562e+02   -3.9500701904e+01
    1.4349949646e+02   -3.9553298950e+01
    1.4359938049e+02   -3.9606098175e+01
    1.4369952393e+02   -3.9659301758e+01
    1.4379948425e+02   -3.9712600708e+01
    1.4389949036e+02   -3.9766201019e+01
    1.4399946594e+02   -3.9819999695e+01
    1.4409941101e+02   -3.9874000549e+01
    1.4419946289e+02   -3.9928298950e+01
    1.4429953003e+02   -3.9982898712e+01
    1.4439956665e+02   -4.0037700653e+01
    1.4449946594e+02   -4.0092601776e+01
    1.4459945679e+02   -4.0147701263e+01
    1.4469944763e+02   -4.0203098297e+01
    1.4479957581e+02   -4.0258701324e+01
    1.4489962769e+02   -4.0314399719e+01
    1.4499945068e+02   -4.0370201111e+01
    1.4509954834e+02   -4.0426399231e+01
    1.4519961548e+02   -4.0482700348e+01
    1.4529960632e+02   -4.0539199829e+01
    1.4539959717e+02   -4.0595901489e+01
    1.4549951172e+02   -4.0652698517e+01
    1.4559948730e+02   -4.0709701538e+01
    1.4569955444e+02   -4.0766998291e+01
    1.4579965210e+02   -4.0824600220e+01
    1.4589964294e+02   -4.0882301331e+01
    1.4599964905e+02   -4.0940200806e+01
    1.4609959412e+02   -4.0998401642e+01
    1.4619966125e+02   -4.1056800842e+01
    1.4629966736e+02   -4.1115501404e+01
    1.4639953613e+02   -4.1174301147e+01
    1.4649963379e+02   -4.1233600616e+01
    1.4659959412e+02   -4.1292999268e+01
    1.4669969177e+02   -4.1352699280e+01
    1.4679971313e+02   -4.1412700653e+01
    1.4689965820e+02   -4.1472900391e+01
    1.4699966431e+02   -4.1533298492e+01
    1.4709962463e+02   -4.1594100952e+01
    1.4719961548e+02   -4.1655101776e+01
    1.4729971313e+02   -4.1716400146e+01
    1.4739970398e+02   -4.1777900696e+01
    1.4749960327e+02   -4.1839599609e+01
    1.4759959412e+02   -4.1901599884e+01
    1.4769967651e+02   -4.1964000702e+01
    1.4779972839e+02   -4.2026500702e+01
    1.4789979553e+02   -4.2089298248e+01
    1.4799966431e+02   -4.2152099609e+01
    1.4809965515e+02   -4.2215301514e+01
    1.4819970703e+02   -4.2278701782e+01
    1.4829981995e+02   -4.2342399597e+01
    1.4839965820e+02   -4.2406200409e+01
    1.4849980164e+02   -4.2470298767e+01
    1.4859980774e+02   -4.2534599304e+01
    1.4869973755e+02   -4.2598999023e+01
    1.4879968262e+02   -4.2663600922e+01
    1.4889970398e+02   -4.2728500366e+01
    1.4899977112e+02   -4.2793701172e+01
    1.4909977722e+02   -4.2859001160e+01
    1.4919973755e+02   -4.2924499512e+01
    1.4929983521e+02   -4.2990299225e+01
    1.4939976501e+02   -4.3056198120e+01
    1.4949981689e+02   -4.3122398376e+01
    1.4959986877e+02   -4.3188800812e+01
    1.4969989014e+02   -4.3255298615e+01
    1.4979981995e+02   -4.3321998596e+01
    1.4989985657e+02   -4.3388900757e+01
    1.4999977112e+02   -4.3456001282e+01
    1.5009980774e+02   -4.3523200989e+01
    1.5019978333e+02   -4.3590698242e+01
    1.5029983521e+02   -4.3658298492e+01
    1.5039993286e+02   -4.3726200104e+01
    1.5049981689e+02   -4.3793998718e+01
    1.5059982300e+02   -4.3862201691e+01
    1.5069981384e+02   -4.3930400848e+01
    1.5079986572e+02   -4.3998901367e+01
    1.5089996338e+02   -4.4067600250e+01
    1.5099995422e+02   -4.4136398315e+01
    1.5109996033e+02   -4.4205299377e+01
    1.5119987488e+02   -4.4274398804e+01
    1.5129997253e+02   -4.4343700409e+01
    1.5139984131e+02   -4.4413101196e+01
    1.5149986267e+02   -4.4482799530e+01
    1.5159991455e+02   -4.4552700043e+01
    1.5169996643e+02   -4.4622699738e+01
    1.5179989624e+02   -4.4692901611e+01
    1.5189994812e+02   -4.4763301849e+01
    1.5199995422e+02   -4.4833900452e+01
    1.5209996033e+02   -4.4904701233e+01
    1.5219998169e+02   -4.4975700378e+01
    1.5229997253e+02   -4.5046798706e+01
    1.5239997864e+02   -4.5118099213e+01
    1.5249992371e+02   -4.5189601898e+01
    1.5260000610e+02   -4.5261398315e+01
    1.5269993591e+02   -4.5333301544e+01
    1.5280009460e+02   -4.5405601501e+01
    1.5289999390e+02   -4.5477901459e+01
    1.5299998474e+02   -4.5550399780e+01
    1.5309999084e+02   -4.5623199463e+01
    1.5319996643e+02   -4.5696098328e+01
    1.5330006409e+02   -4.5769298553e+01
    1.5339997864e+02   -4.5842601776e+01
    1.5350001526e+02   -4.5916198730e+01
    1.5360005188e+02   -4.5989898682e+01
    1.5370013428e+02   -4.6063899994e+01
    1.5380017090e+02   -4.6138000488e+01
    1.5390007019e+02   -4.6212100983e+01
    1.5400004578e+02   -4.6286499023e+01
    1.5410003662e+02   -4.6361000061e+01
    1.5420008850e+02   -4.6435699463e+01
    1.5430006409e+02   -4.6510501862e+01
    1.5440019226e+02   -4.6585498810e+01
    1.5450003052e+02   -4.6660301208e+01
    1.5460011292e+02   -4.6735500336e+01
    1.5470007324e+02   -4.6810699463e+01
    1.5480012512e+02   -4.6886100769e+01
    1.5490022278e+02   -4.6961601257e+01
    1.5500024414e+02   -4.7037200928e+01
    1.5510014343e+02   -4.7112800598e+01
    1.5520019531e+02   -4.7188598633e+01
    1.5530018616e+02   -4.7264400482e+01
    1.5540008545e+02   -4.7340301514e+01
    1.5550024414e+02   -4.7416400909e+01
    1.5560023499e+02   -4.7492599487e+01
    1.5570021057e+02   -4.7568801880e+01
    1.5580010986e+02   -4.7645099640e+01
    1.5590017700e+02   -4.7721599579e+01
    1.5600024414e+02   -4.7798198700e+01
    1.5610029602e+02   -4.7874900818e+01
    1.5620025635e+02   -4.7951599121e+01
    1.5630024719e+02   -4.8028400421e+01
    1.5640020752e+02   -4.8105300903e+01
    1.5650024414e+02   -4.8182399750e+01
    1.5660021973e+02   -4.8259399414e+01
    1.5670025635e+02   -4.8336601257e+01
    1.5680030823e+02   -4.8414001465e+01
    1.5690031433e+02   -4.8491298676e+01
    1.5700024414e+02   -4.8568698883e+01
    1.5710021973e+02   -4.8646198273e+01
    1.5720030212e+02   -4.8723899841e+01
    1.5730026245e+02   -4.8801601410e+01
    1.5740025330e+02   -4.8879299164e+01
    1.5750027466e+02   -4.8957099915e+01
    1.5760028076e+02   -4.9034999847e+01
    1.5770037842e+02   -4.9112899780e+01
    1.5780035400e+02   -4.9190799713e+01
    1.5790037537e+02   -4.9268798828e+01
    1.5800024414e+02   -4.9346599579e+01
    1.5810035706e+02   -4.9424701691e+01
    1.5820031738e+02   -4.9502700806e+01
    1.5830044556e+02   -4.9580799103e+01
    1.5840039062e+02   -4.9658699036e+01
    1.5850033569e+02   -4.9736598969e+01
    1.5860043335e+02   -4.9814701080e+01
    1.5870045471e+02   -4.9892601013e+01
    1.5880041504e+02   -4.9970500946e+01
    1.5890046692e+02   -5.0048400879e+01
    1.5900047302e+02   -5.0126201630e+01
    1.5910043335e+02   -5.0203998566e+01
    1.5920048523e+02   -5.0281799316e+01
    1.5930041504e+02   -5.0359401703e+01
    1.5940039062e+02   -5.0437099457e+01
    1.5950047302e+02   -5.0514701843e+01
    1.5960043335e+02   -5.0592201233e+01
    1.5970042419e+02   -5.0669700623e+01
    1.5980044556e+02   -5.0747100830e+01
    1.5990049744e+02   -5.0824501038e+01
    1.6000050354e+02   -5.0901699066e+01
    1.6010040283e+02   -5.0978801727e+01
    1.6020037842e+02   -5.1055900574e+01
    1.6030039978e+02   -5.1132900238e+01
    1.6040049744e+02   -5.1209899902e+01
    1.6050053406e+02   -5.1286701202e+01
    1.6060058594e+02   -5.1363498688e+01
    1.6070048523e+02   -5.1440101624e+01
    1.6080049133e+02   -5.1516601562e+01
    1.6090060425e+02   -5.1593200684e+01
    1.6100056458e+02   -5.1669498444e+01
    1.6110046387e+02   -5.1745700836e+01
    1.6120057678e+02   -5.1821899414e+01
    1.6130053711e+02   -5.1897899628e+01
    1.6140049744e+02   -5.1973899841e+01
    1.6150047302e+02   -5.2049701691e+01
    1.6160058594e+02   -5.2125499725e+01
    1.6170053101e+02   -5.2201000214e+01
    1.6180052185e+02   -5.2276500702e+01
    1.6190049744e+02   -5.2351799011e+01
    1.6200065613e+02   -5.2427200317e+01
    1.6210052490e+02   -5.2502101898e+01
    1.6220053101e+02   -5.2576999664e+01
    1.6230056763e+02   -5.2651901245e+01
    1.6240063477e+02   -5.2726501465e+01
    1.6250053406e+02   -5.2800998688e+01
    1.6260067749e+02   -5.2875499725e+01
    1.6270054626e+02   -5.2949600220e+01
    1.6280070496e+02   -5.3023899078e+01
    1.6290061951e+02   -5.3097900391e+01
    1.6300067139e+02   -5.3171798706e+01
    1.6310061646e+02   -5.3245601654e+01
    1.6320060730e+02   -5.3319301605e+01
    1.6330059814e+02   -5.3392898560e+01
    1.6340063477e+02   -5.3466400146e+01
    1.6350068665e+02   -5.3539798737e+01
    1.6360063171e+02   -5.3612998962e+01
    1.6370066833e+02   -5.3686199188e+01
    1.6380072021e+02   -5.3759101868e+01
    1.6390072632e+02   -5.3831901550e+01
    1.6400071716e+02   -5.3904499054e+01
    1.6410064697e+02   -5.3976799011e+01
    1.6420063782e+02   -5.4048999786e+01
    1.6430072021e+02   -5.4121101379e+01
    1.6440071106e+02   -5.4192798615e+01
    1.6450065613e+02   -5.4264301300e+01
    1.6460070801e+02   -5.4335700989e+01
    1.6470083618e+02   -5.4406898499e+01
    1.6480068970e+02   -5.4477699280e+01
    1.6490072632e+02   -5.4548400879e+01
    1.6500082397e+02   -5.4618999481e+01
    1.6510078430e+02   -5.4689201355e+01
    1.6520083618e+02   -5.4759399414e+01
    1.6530081177e+02   -5.4829200745e+01
    1.6540074158e+02   -5.4898899078e+01
    1.6550079346e+02   -5.4968399048e+01
    1.6560081482e+02   -5.5037700653e+01
    1.6570071411e+02   -5.5106700897e+01
    1.6580085754e+02   -5.5175701141e+01
    1.6590084839e+02   -5.5244400024e+01
    1.6600079346e+02   -5.5312698364e+01
    1.6610087585e+02   -5.5381000519e+01
    1.6620080566e+02   -5.5448898315e+01
    1.6630082703e+02   -5.5516601562e+01
    1.6640077209e+02   -5.5583999634e+01
    1.6650077820e+02   -5.5651298523e+01
    1.6660089111e+02   -5.5718299866e+01
    1.6670089722e+02   -5.5784999847e+01
    1.6680081177e+02   -5.5851398468e+01
    1.6690092468e+02   -5.5917701721e+01
    1.6700082397e+02   -5.5983600616e+01
    1.6710096741e+02   -5.6049499512e+01
    1.6720083618e+02   -5.6114898682e+01
    1.6730088806e+02   -5.6180301666e+01
    1.6740093994e+02   -5.6245300293e+01
    1.6750094604e+02   -5.6310100555e+01
    1.6760084534e+02   -5.6374500275e+01
    1.6770088196e+02   -5.6438800812e+01
    1.6780085754e+02   -5.6502799988e+01
    1.6790100098e+02   -5.6566600800e+01
    1.6800091553e+02   -5.6629901886e+01
    1.6810095215e+02   -5.6693099976e+01
    1.6820097351e+02   -5.6756000519e+01
    1.6830091858e+02   -5.6818500519e+01
    1.6840100098e+02   -5.6880901337e+01
    1.6850091553e+02   -5.6942798615e+01
    1.6860095215e+02   -5.7004398346e+01
    1.6870094299e+02   -5.7065799713e+01
    1.6880099487e+02   -5.7126800537e+01
    1.6890107727e+02   -5.7187599182e+01
    1.6900109863e+02   -5.7248001099e+01
    1.6910104370e+02   -5.7307998657e+01
    1.6920100403e+02   -5.7367698669e+01
    1.6930096436e+02   -5.7427101135e+01
    1.6940095520e+02   -5.7486198425e+01
    1.6950094604e+02   -5.7544898987e+01
    1.6960098267e+02   -5.7603401184e+01
    1.6970108032e+02   -5.7661499023e+01
    1.6980099487e+02   -5.7719200134e+01
    1.6990109253e+02   -5.7776599884e+01
    1.7000100708e+02   -5.7833599091e+01
    1.7010107422e+02   -5.7890399933e+01
    1.7020101929e+02   -5.7946701050e+01
    1.7030110168e+02   -5.8002799988e+01
    1.7040118408e+02   -5.8058601379e+01
    1.7050117493e+02   -5.8113998413e+01
    1.7060102844e+02   -5.8168899536e+01
    1.7070103455e+02   -5.8223598480e+01
    1.7080108643e+02   -5.8277999878e+01
    1.7090107727e+02   -5.8332000732e+01
    1.7100103760e+02   -5.8385700226e+01
    1.7110122681e+02   -5.8439098358e+01
    1.7120114136e+02   -5.8492000580e+01
    1.7130107117e+02   -5.8544601440e+01
    1.7140122986e+02   -5.8596900940e+01
    1.7150117493e+02   -5.8648799896e+01
    1.7160116577e+02   -5.8700298309e+01
    1.7170111084e+02   -5.8751399994e+01
    1.7180110168e+02   -5.8802200317e+01
    1.7190113831e+02   -5.8852699280e+01
    1.7200114441e+02   -5.8902698517e+01
    1.7210112000e+02   -5.8952400208e+01
    1.7220124817e+02   -5.9001800537e+01
    1.7230122375e+02   -5.9050800323e+01
    1.7240118408e+02   -5.9099498749e+01
    1.7250115967e+02   -5.9147800446e+01
    1.7260125732e+02   -5.9195899963e+01
    1.7270121765e+02   -5.9243598938e+01
    1.7280128479e+02   -5.9291000366e+01
    1.7290121460e+02   -5.9338100433e+01
    1.7300120544e+02   -5.9384998322e+01
    1.7310127258e+02   -5.9431499481e+01
    1.7320126343e+02   -5.9477699280e+01
    1.7330123901e+02   -5.9523601532e+01
    1.7340136719e+02   -5.9569198608e+01
    1.7350125122e+02   -5.9614398956e+01
    1.7360122681e+02   -5.9659400940e+01
    1.7370132446e+02   -5.9703998566e+01
    1.7380130005e+02   -5.9748199463e+01
    1.7390130615e+02   -5.9791999817e+01
    1.7400138855e+02   -5.9835601807e+01
    1.7410134888e+02   -5.9878700256e+01
    1.7420135498e+02   -5.9921398163e+01
    1.7430131531e+02   -5.9963798523e+01
    1.7440138245e+02   -6.0005798340e+01
    1.7450137329e+02   -6.0047401428e+01
    1.7460137939e+02   -6.0088600159e+01
    1.7470144653e+02   -6.0129600525e+01
    1.7480131531e+02   -6.0170101166e+01
    1.7490141296e+02   -6.0210399628e+01
    1.7500131226e+02   -6.0250198364e+01
    1.7510133362e+02   -6.0289798737e+01
    1.7520135498e+02   -6.0328998566e+01
    1.7530143738e+02   -6.0367900848e+01
    1.7540148926e+02   -6.0406501770e+01
    1.7550134277e+02   -6.0444599152e+01
    1.7560150146e+02   -6.0482498169e+01
    1.7570135498e+02   -6.0519901276e+01
    1.7580134583e+02   -6.0556999207e+01
    1.7590138245e+02   -6.0593700409e+01
    1.7600149536e+02   -6.0630199432e+01
    1.7610136414e+02   -6.0666099548e+01
    1.7620141602e+02   -6.0701801300e+01
    1.7630137634e+02   -6.0736999512e+01
    1.7640150452e+02   -6.0771999359e+01
    1.7650152588e+02   -6.0806499481e+01
    1.7660145569e+02   -6.0840698242e+01
    1.7670149231e+02   -6.0874599457e+01
    1.7680145264e+02   -6.0908100128e+01
    1.7690144348e+02   -6.0941299438e+01
    1.7700144958e+02   -6.0974201202e+01
    1.7710153198e+02   -6.1006801605e+01
    1.7720158386e+02   -6.1039001465e+01
    1.7730151367e+02   -6.1070899963e+01
    1.7740153503e+02   -6.1102500916e+01
    1.7750146484e+02   -6.1133701324e+01
    1.7760145569e+02   -6.1164600372e+01
    1.7770161438e+02   -6.1195201874e+01
    1.7780151367e+02   -6.1225299835e+01
    1.7790161133e+02   -6.1255199432e+01
    1.7800149536e+02   -6.1284599304e+01
    1.7810151672e+02   -6.1313598633e+01
    1.7820158386e+02   -6.1342300415e+01
    1.7830154419e+02   -6.1370601654e+01
    1.7840161133e+02   -6.1398601532e+01
    1.7850158691e+02   -6.1426101685e+01
    1.7860151672e+02   -6.1453300476e+01
    1.7870167542e+02   -6.1480098724e+01
    1.7880162048e+02   -6.1506500244e+01
    1.7890161133e+02   -6.1532501221e+01
    1.7900164795e+02   -6.1558200836e+01
    1.7910169983e+02   -6.1583499908e+01
    1.7920173645e+02   -6.1608501434e+01
    1.7930171204e+02   -6.1633098602e+01
    1.7940173340e+02   -6.1657299042e+01
    1.7950172424e+02   -6.1681098938e+01
    1.7960163879e+02   -6.1704601288e+01
    1.7970161438e+02   -6.1727600098e+01
    1.7980163574e+02   -6.1750400543e+01
    1.7990171814e+02   -6.1772701263e+01
    1.8000169373e+02   -6.1794700623e+01
    1.8010169983e+02   -6.1816299438e+01
    1.8020170593e+02   -6.1837600708e+01
    1.8030168152e+02   -6.1858398438e+01
    1.8040162659e+02   -6.1878898621e+01
    1.8050178528e+02   -6.1899101257e+01
    1.8060171509e+02   -6.1918899536e+01
    1.8070164490e+02   -6.1938301086e+01
    1.8080169678e+02   -6.1957401276e+01
    1.8090168762e+02   -6.1976001740e+01
    1.8100175476e+02   -6.1994300842e+01
    1.8110174561e+02   -6.2012199402e+01
    1.8120179749e+02   -6.2029800415e+01
    1.8130183411e+02   -6.2047000885e+01
    1.8140180969e+02   -6.2063800812e+01
    1.8150175476e+02   -6.2080299377e+01
    1.8160176086e+02   -6.2096401215e+01
    1.8170187378e+02   -6.2112201691e+01
    1.8180172729e+02   -6.2127601624e+01
    1.8190174866e+02   -6.2142601013e+01
    1.8200172424e+02   -6.2157199860e+01
    1.8210182190e+02   -6.2171600342e+01
    1.8220178223e+02   -6.2185501099e+01
    1.8230181885e+02   -6.2199199677e+01
    1.8240179443e+02   -6.2212398529e+01
    1.8250190735e+02   -6.2225399017e+01
    1.8260176086e+02   -6.2238098145e+01
    1.8270184326e+02   -6.2250400543e+01
    1.8280178833e+02   -6.2262401581e+01
    1.8290185547e+02   -6.2274101257e+01
    1.8300178528e+02   -6.2285499573e+01
    1.8310194397e+02   -6.2296600342e+01
    1.8320190430e+02   -6.2307300568e+01
    1.8330183411e+02   -6.2317798615e+01
    1.8340191650e+02   -6.2327899933e+01
    1.8350190735e+02   -6.2337699890e+01
    1.8360188293e+02   -6.2347198486e+01
    1.8370193481e+02   -6.2356399536e+01
    1.8380186462e+02   -6.2365200043e+01
    1.8390191650e+02   -6.2373699188e+01
    1.8400201416e+02   -6.2381999969e+01
    1.8410185242e+02   -6.2389801025e+01
    1.8420190430e+02   -6.2397300720e+01
    1.8430201721e+02   -6.2404499054e+01
    1.8440197754e+02   -6.2411399841e+01
    1.8450190735e+02   -6.2417900085e+01
    1.8460202026e+02   -6.2424198151e+01
    1.8470191956e+02   -6.2430099487e+01
    1.8480191040e+02   -6.2435699463e+01
    1.8490203857e+02   -6.2440898895e+01
    1.8500205994e+02   -6.2445899963e+01
    1.8510206604e+02   -6.2450599670e+01
    1.8520199585e+02   -6.2454898834e+01
    1.8530194092e+02   -6.2458900452e+01
    1.8540205383e+02   -6.2462600708e+01
    1.8550207520e+02   -6.2465999603e+01
    1.8560209656e+02   -6.2469100952e+01
    1.8570213318e+02   -6.2471900940e+01
    1.8580212402e+02   -6.2474300385e+01
    1.8590200806e+02   -6.2476398468e+01
    1.8600199890e+02   -6.2478199005e+01
    1.8610209656e+02   -6.2479698181e+01
    1.8620199585e+02   -6.2480998993e+01
    1.8630201721e+02   -6.2481899261e+01
    1.8640213013e+02   -6.2482498169e+01
    1.8650204468e+02   -6.2482799530e+01
    1.8660205078e+02   -6.2482799530e+01
    1.8670202637e+02   -6.2482498169e+01
    1.8680203247e+02   -6.2481899261e+01
    1.8690208435e+02   -6.2481098175e+01
    1.8700204468e+02   -6.2479999542e+01
    1.8710205078e+02   -6.2478599548e+01
    1.8720210266e+02   -6.2477001190e+01
    1.8730221558e+02   -6.2474998474e+01
    1.8740209961e+02   -6.2472801208e+01
    1.8750212097e+02   -6.2470298767e+01
    1.8760206604e+02   -6.2467601776e+01
    1.8770219421e+02   -6.2464500427e+01
    1.8780215454e+02   -6.2461101532e+01
    1.8790219116e+02   -6.2457500458e+01
    1.8800216675e+02   -6.2453498840e+01
    1.8810223389e+02   -6.2449298859e+01
    1.8820225525e+02   -6.2444801331e+01
    1.8830218506e+02   -6.2439899445e+01
    1.8840226746e+02   -6.2434799194e+01
    1.8850219727e+02   -6.2429401398e+01
    1.8860217285e+02   -6.2423698425e+01
    1.8870216370e+02   -6.2417701721e+01
    1.8880218506e+02   -6.2411399841e+01
    1.8890214539e+02   -6.2404899597e+01
    1.8900215149e+02   -6.2397998810e+01
    1.8910215759e+02   -6.2390899658e+01
    1.8920225525e+02   -6.2383399963e+01
    1.8930218506e+02   -6.2375701904e+01
    1.8940223694e+02   -6.2367698669e+01
    1.8950221252e+02   -6.2359500885e+01
    1.8960218811e+02   -6.2350898743e+01
    1.8970223999e+02   -6.2342098236e+01
    1.8980230713e+02   -6.2333000183e+01
    1.8990228271e+02   -6.2323600769e+01
    1.9000233459e+02   -6.2313899994e+01
    1.9010226440e+02   -6.2304000854e+01
    1.9020223999e+02   -6.2293800354e+01
    1.9030227661e+02   -6.2283401489e+01
    1.9040235901e+02   -6.2272598267e+01
    1.9050224304e+02   -6.2261699677e+01
    1.9060235596e+02   -6.2250400543e+01
    1.9070237732e+02   -6.2238899231e+01
    1.9080236816e+02   -6.2227100372e+01
    1.9090226746e+02   -6.2215000153e+01
    1.9100228882e+02   -6.2202701569e+01
    1.9110241699e+02   -6.2190101624e+01
    1.9120243835e+02   -6.2177299500e+01
    1.9130244446e+02   -6.2164199829e+01
    1.9140238953e+02   -6.2150798798e+01
    1.9150233459e+02   -6.2137298584e+01
    1.9160244751e+02   -6.2123401642e+01
    1.9170233154e+02   -6.2109401703e+01
    1.9180238342e+02   -6.2095001221e+01
    1.9190237427e+02   -6.2080501556e+01
    1.9200245667e+02   -6.2065700531e+01
    1.9210235596e+02   -6.2050598145e+01
    1.9220248413e+02   -6.2035400391e+01
    1.9230247498e+02   -6.2019901276e+01
    1.9240240479e+02   -6.2004199982e+01
    1.9250245667e+02   -6.1988201141e+01
    1.9260237122e+02   -6.1972099304e+01
    1.9270245361e+02   -6.1955799103e+01
    1.9280247498e+02   -6.1939201355e+01
    1.9290240479e+02   -6.1922500610e+01
    1.9300241089e+02   -6.1905601501e+01
    1.9310252380e+02   -6.1888500214e+01
    1.9320243835e+02   -6.1871200562e+01
    1.9330244446e+02   -6.1853698730e+01
    1.9340243530e+02   -6.1836101532e+01
    1.9350259399e+02   -6.1818199158e+01
    1.9360255432e+02   -6.1800201416e+01
    1.9370251465e+02   -6.1782001495e+01
    1.9380259705e+02   -6.1763599396e+01
    1.9390254211e+02   -6.1745098114e+01
    1.9400248718e+02   -6.1726299286e+01
    1.9410249329e+02   -6.1707298279e+01
    1.9420245361e+02   -6.1688201904e+01
    1.9430261230e+02   -6.1668800354e+01
    1.9440264893e+02   -6.1649200439e+01
[...]
    2.5130595398e+02   -2.2577999115e+01
    2.5140606689e+02   -2.2467100143e+01
    2.5150596619e+02   -2.2356500626e+01
    2.5160598755e+02   -2.2245899200e+01
    2.5170597839e+02   -2.2135499954e+01
    2.5180607605e+02   -2.2025100708e+01
    2.5190611267e+02   -2.1914899826e+01
    2.5200613403e+02   -2.1804800034e+01
    2.5210612488e+02   -2.1694900513e+01
    2.5220610046e+02   -2.1585100174e+01
    2.5230607605e+02   -2.1475500107e+01
    2.5240609741e+02   -2.1365900040e+01
    2.5250605774e+02   -2.1256500244e+01
    2.5260615540e+02   -2.1147100449e+01
    2.5270603943e+02   -2.1038000107e+01
    2.5280610657e+02   -2.0928899765e+01
    2.5290620422e+02   -2.0819900513e+01
    2.5300619507e+02   -2.0711000443e+01
    2.5310609436e+02   -2.0602500916e+01
    2.5320610046e+02   -2.0493900299e+01
    2.5330616760e+02   -2.0385400772e+01
    2.5340623474e+02   -2.0277000427e+01
    2.5350616455e+02   -2.0168899536e+01
    2.5360612488e+02   -2.0060800552e+01
    2.5370620728e+02   -1.9952800751e+01
    2.5380616760e+02   -1.9844999313e+01
    2.5390620422e+02   -1.9737300873e+01
    2.5400616455e+02   -1.9629699707e+01
    2.5410627747e+02   -1.9522199631e+01
    2.5420620728e+02   -1.9414899826e+01
    2.5430621338e+02   -1.9307699203e+01
    2.5440629578e+02   -1.9200500488e+01
    2.5450621033e+02   -1.9093700409e+01
    2.5460627747e+02   -1.8986799240e+01
    2.5470625305e+02   -1.8880100250e+01
    2.5480618286e+02   -1.8773599625e+01
    2.5490620422e+02   -1.8667200089e+01
    2.5500628662e+02   -1.8560800552e+01
    2.5510633850e+02   -1.8454500198e+01
    2.5520620728e+02   -1.8348600388e+01
    2.5530636597e+02   -1.8242500305e+01
    2.5540626526e+02   -1.8136800766e+01
    2.5550633240e+02   -1.8031000137e+01
    2.5560621643e+02   -1.7925600052e+01
    2.5570634460e+02   -1.7819900513e+01
    2.5580627441e+02   -1.7714700699e+01
    2.5590638733e+02   -1.7609300613e+01
    2.5600625610e+02   -1.7504400253e+01
    2.5610635376e+02   -1.7399299622e+01
    2.5620623779e+02   -1.7294500351e+01
    2.5630630493e+02   -1.7189699173e+01
    2.5640640259e+02   -1.7084899902e+01
    2.5650637817e+02   -1.6980400085e+01
    2.5660641479e+02   -1.6875999451e+01
    2.5670635986e+02   -1.6771699905e+01
    2.5680627441e+02   -1.6667600632e+01
    2.5690640259e+02   -1.6563400269e+01
    2.5700634766e+02   -1.6459400177e+01
    2.5710638428e+02   -1.6355499268e+01
    2.5720635986e+02   -1.6251699448e+01
    2.5730630493e+02   -1.6148099899e+01
    2.5740634155e+02   -1.6044500351e+01
    2.5750640869e+02   -1.5940899849e+01
    2.5760638428e+02   -1.5837599754e+01
    2.5770632935e+02   -1.5734299660e+01
    2.5780648804e+02   -1.5630999565e+01
    2.5790649414e+02   -1.5527899742e+01
    2.5800650024e+02   -1.5424799919e+01
    2.5810647583e+02   -1.5321999550e+01
    2.5820651245e+02   -1.5219099998e+01
    2.5830654907e+02   -1.5116299629e+01
    2.5840640259e+02   -1.5013799667e+01
    2.5850650024e+02   -1.4911100388e+01
    2.5860641479e+02   -1.4808799744e+01
    2.5870645142e+02   -1.4706299782e+01
    2.5880648804e+02   -1.4604000092e+01
    2.5890655518e+02   -1.4501700401e+01
    2.5900646973e+02   -1.4399600029e+01
    2.5910650635e+02   -1.4297499657e+01
    2.5920654297e+02   -1.4195500374e+01
    2.5930651855e+02   -1.4093600273e+01
    2.5940652466e+02   -1.3991800308e+01
    2.5950643921e+02   -1.3890099525e+01
    2.5960650635e+02   -1.3788399696e+01
    2.5970648193e+02   -1.3686800003e+01
    2.5980651855e+02   -1.3585200310e+01
    2.5990649414e+02   -1.3483799934e+01
    2.6000656128e+02   -1.3382300377e+01
    2.6010650635e+02   -1.3281000137e+01
    2.6020654297e+02   -1.3179699898e+01
    2.6030661011e+02   -1.3078499794e+01
    2.6040649414e+02   -1.2977499962e+01
    2.6050668335e+02   -1.2876299858e+01
    2.6060650635e+02   -1.2775400162e+01
    2.6070657349e+02   -1.2674400330e+01
    2.6080657959e+02   -1.2573599815e+01
    2.6090652466e+02   -1.2472900391e+01
    2.6100653076e+02   -1.2372200012e+01
    2.6110650635e+02   -1.2271499634e+01
    2.6120672607e+02   -1.2170700073e+01
    2.6130654907e+02   -1.2070400238e+01
    2.6140658569e+02   -1.1969900131e+01
    2.6150656128e+02   -1.1869500160e+01
    2.6160659790e+02   -1.1769100189e+01
    2.6170663452e+02   -1.1668800354e+01
    2.6180664062e+02   -1.1568499565e+01
    2.6190667725e+02   -1.1468299866e+01
    2.6200668335e+02   -1.1368200302e+01
    2.6210662842e+02   -1.1268199921e+01
    2.6220663452e+02   -1.1168199539e+01
    2.6230664062e+02   -1.1068300247e+01
    2.6240667725e+02   -1.0968299866e+01
    2.6250662231e+02   -1.0868599892e+01
    2.6260671997e+02   -1.0768699646e+01
    2.6270663452e+02   -1.0669099808e+01
    2.6280673218e+02   -1.0569299698e+01
    2.6290664673e+02   -1.0469799995e+01
    2.6300683594e+02   -1.0370100021e+01
    2.6310665894e+02   -1.0270700455e+01
    2.6320678711e+02   -1.0171099663e+01
    2.6330679321e+02   -1.0071700096e+01
    2.6340682983e+02   -9.9722900391e+00
    2.6350677490e+02   -9.8730001450e+00
    2.6360687256e+02   -9.7736301422e+00
    2.6370684814e+02   -9.6743803024e+00
    2.6380685425e+02   -9.5751800537e+00
    2.6390673828e+02   -9.4760904312e+00
    2.6400677490e+02   -9.3769397736e+00
    2.6410671997e+02   -9.2778902054e+00
    2.6420687866e+02   -9.1786804199e+00
    2.6430682373e+02   -9.0797100067e+00
    2.6440676880e+02   -8.9807596207e+00
    2.6450686646e+02   -8.8816995621e+00
    2.6460687256e+02   -8.7827701569e+00
    2.6470687866e+02   -8.6838502884e+00
    2.6480685425e+02   -8.5850000381e+00
    2.6490686035e+02   -8.4861402512e+00
    2.6500689697e+02   -8.3872604370e+00
    2.6510687256e+02   -8.2884702682e+00
    2.6520681763e+02   -8.1897497177e+00
    2.6530691528e+02   -8.0908699036e+00
    2.6540682983e+02   -7.9922099113e+00
    2.6550686646e+02   -7.8934497833e+00
    2.6560699463e+02   -7.7946100235e+00
    2.6570693970e+02   -7.6959600449e+00
    2.6580685425e+02   -7.5973401070e+00
    2.6590698242e+02   -7.4985499382e+00
    2.6600698853e+02   -7.3998498917e+00
    2.6610690308e+02   -7.3012700081e+00
    2.6620697021e+02   -7.2025599480e+00
    2.6630700684e+02   -7.1038699150e+00
    2.6640689087e+02   -7.0053501129e+00
    2.6650695801e+02   -6.9066100121e+00
    2.6660702515e+02   -6.8079199791e+00
    2.6670687866e+02   -6.7094101906e+00
    2.6680700684e+02   -6.6106500626e+00
    2.6690692139e+02   -6.5120902061e+00
    2.6700698853e+02   -6.4133701324e+00
    2.6710699463e+02   -6.3147101402e+00
    2.6720693970e+02   -6.2161002159e+00
    2.6730691528e+02   -6.1174402237e+00
    2.6740704346e+02   -6.0186600685e+00
    2.6750692749e+02   -5.9200801849e+00
    2.6760702515e+02   -5.8213000298e+00
    2.6770706177e+02   -5.7225699425e+00
    2.6780703735e+02   -5.6238498688e+00
    2.6790695190e+02   -5.5252299309e+00
    2.6800711060e+02   -5.4263200760e+00
    2.6810705566e+02   -5.3276300430e+00
    2.6820709229e+02   -5.2288098335e+00
    2.6830703735e+02   -5.1300802231e+00
    2.6840704346e+02   -5.0313000679e+00
    2.6850704956e+02   -4.9324798584e+00
    2.6860699463e+02   -4.8337001801e+00
    2.6870715332e+02   -4.7346901894e+00
    2.6880706787e+02   -4.6359200478e+00
    2.6890704346e+02   -4.5370597839e+00
    2.6900701904e+02   -4.4381899834e+00
    2.6910717773e+02   -4.3391299248e+00
    2.6920703125e+02   -4.2403202057e+00
    2.6930712891e+02   -4.1412801743e+00
    2.6940713501e+02   -4.0422701836e+00
    2.6950717163e+02   -3.9432299137e+00
    2.6960714722e+02   -3.8442399502e+00
    2.6970715332e+02   -3.7451601028e+00
    2.6980706787e+02   -3.6461598873e+00
    2.6990716553e+02   -3.5469698906e+00
    2.7000717163e+02   -3.4478600025e+00
    2.7010708618e+02   -3.3487899303e+00
    2.7020715332e+02   -3.2495501041e+00
    2.7030725098e+02   -3.1502599716e+00
    2.7040713501e+02   -3.0511300564e+00
    2.7050726318e+02   -2.9517700672e+00
    2.7060717773e+02   -2.8525500298e+00
    2.7070715332e+02   -2.7532598972e+00
    2.7080731201e+02   -2.6537899971e+00
    2.7090728760e+02   -2.5544199944e+00
    2.7100726318e+02   -2.4550600052e+00
    2.7110723877e+02   -2.3556399345e+00
    2.7120721436e+02   -2.2562000751e+00
    2.7130715942e+02   -2.1567699909e+00
    2.7140716553e+02   -2.0572199821e+00
    2.7150723267e+02   -1.9575899839e+00
    2.7160726929e+02   -1.8579599857e+00
    2.7170730591e+02   -1.7582700253e+00
    2.7180734253e+02   -1.6585600376e+00
    2.7190734863e+02   -1.5588400364e+00
    2.7200726318e+02   -1.4591799974e+00
    2.7210733032e+02   -1.3593100309e+00
    2.7220724487e+02   -1.2595700026e+00
    2.7230737305e+02   -1.1595699787e+00
    2.7240734863e+02   -1.0596899986e+00
    2.7250735474e+02   -9.5972698927e-01
    2.7260733032e+02   -8.5975897312e-01
    2.7270727539e+02   -7.5976002216e-01
    2.7280743408e+02   -6.5950697660e-01
    2.7290740967e+02   -5.5936402082e-01
    2.7300726318e+02   -4.5934501290e-01
    2.7310729980e+02   -3.5903799534e-01
    2.7320730591e+02   -2.5874701142e-01
    2.7330728149e+02   -1.5842899680e-01
    2.7340744019e+02   -5.7893399149e-02
    2.7350732422e+02    4.2437601835e-02
    2.7360736084e+02    1.4296799898e-01
    2.7370733643e+02    2.4349400401e-01
    2.7380737305e+02    3.4412500262e-01
    2.7390734863e+02    4.4478198886e-01
    2.7400744629e+02    5.4558300972e-01
    2.7410745239e+02    6.4635300636e-01
    2.7420742798e+02    7.4715399742e-01
    2.7430743408e+02    8.4804701805e-01
    2.7440750122e+02    9.4907099009e-01
    2.7450741577e+02    1.0499999523e+00
    2.7460754395e+02    1.1511600018e+00
    2.7470755005e+02    1.2523000240e+00
    2.7480752563e+02    1.3534599543e+00
    2.7490750122e+02    1.4546899796e+00
    2.7500738525e+02    1.5558899641e+00
    2.7510754395e+02    1.6573899984e+00
    2.7520739746e+02    1.7586699724e+00
    2.7530749512e+02    1.8602600098e+00
    2.7540753174e+02    1.9618599415e+00
    2.7550747681e+02    2.0634300709e+00
    2.7560745239e+02    2.1650600433e+00
    2.7570751953e+02    2.2668900490e+00
    2.7580758667e+02    2.3687601089e+00
    2.7590750122e+02    2.4705100060e+00
    2.7600759888e+02    2.5725400448e+00
    2.7610748291e+02    2.6744399071e+00
    2.7620758057e+02    2.7766098976e+00
    2.7630749512e+02    2.8786399364e+00
    2.7640759277e+02    2.9809200764e+00
    2.7650750732e+02    3.0830700397e+00
    2.7660757446e+02    3.1854400635e+00
    2.7670764160e+02    3.2878999710e+00
    2.7680764771e+02    3.3903601170e+00
    2.7690750122e+02    3.4927101135e+00
    2.7700765991e+02    3.5954298973e+00
    2.7710763550e+02    3.6980199814e+00
    2.7720761108e+02    3.8006899357e+00
    2.7730755615e+02    3.9033699036e+00
    2.7740759277e+02    4.0062198639e+00
    2.7750759888e+02    4.1090998650e+00
    2.7760757446e+02    4.2119998932e+00
    2.7770761108e+02    4.3150401115e+00
    2.7780755615e+02    4.4180297852e+00
    2.7790768433e+02    4.5212697983e+00
    2.7800772095e+02    4.6244897842e+00
    2.7810757446e+02    4.7275800705e+00
    2.7820761108e+02    4.8309102058e+00
    2.7830770874e+02    4.9343700409e+00
    2.7840765381e+02    5.0377001762e+00
    2.7850775146e+02    5.1412701607e+00
    2.7860775757e+02    5.2448201180e+00
    2.7870761108e+02    5.3482699394e+00
    2.7880776978e+02    5.4520502090e+00
    2.7890774536e+02    5.5557699203e+00
    2.7900778198e+02    5.6595702171e+00
    2.7910778809e+02    5.7634100914e+00
    2.7920767212e+02    5.8671698570e+00
    2.7930770874e+02    5.9711699486e+00
    2.7940774536e+02    6.0752100945e+00
    2.7950775146e+02    6.1792898178e+00
    2.7960775757e+02    6.2834200859e+00
    2.7970770264e+02    6.3875598907e+00
    2.7980780029e+02    6.4919099808e+00
    2.7990771484e+02    6.5960998535e+00
    2.8000775146e+02    6.7005400658e+00
    2.8010769653e+02    6.8048901558e+00
    2.8020770264e+02    6.9093899727e+00
    2.8030786133e+02    7.0141000748e+00
    2.8040780640e+02    7.1186699867e+00
    2.8050772095e+02    7.2232499123e+00
    2.8060772705e+02    7.3279700279e+00
    2.8070779419e+02    7.4328398705e+00
    2.8080783081e+02    7.5377202034e+00
    2.8090774536e+02    7.6425499916e+00
    2.8100775146e+02    7.7475399971e+00
    2.8110781860e+02    7.8526401520e+00
    2.8120785522e+02    7.9577698708e+00
    2.8130795288e+02    8.0630302429e+00
    2.8140792847e+02    8.1682395935e+00
    2.8150793457e+02    8.2735004425e+00
    2.8160787964e+02    8.3788003922e+00
    2.8170779419e+02    8.4840803146e+00
    2.8180786133e+02    8.5895996094e+00
    2.8190789795e+02    8.6951303482e+00
    2.8200784302e+02    8.8006296158e+00
    2.8210781860e+02    8.9062404633e+00
    2.8220782471e+02    9.0119495392e+00
    2.8230786133e+02    9.1177196503e+00
    2.8240798950e+02    9.2236900330e+00
    2.8250793457e+02    9.3295001984e+00
    2.8260784912e+02    9.4353399277e+00
    2.8270785522e+02    9.5413799286e+00
    2.8280792236e+02    9.6475000381e+00
    2.8290798950e+02    9.7537002563e+00
    2.8300796509e+02    9.8598899841e+00
    2.8310787964e+02    9.9660196304e+00
    2.8320797729e+02    1.0072500229e+01
    2.8330792236e+02    1.0178799629e+01
    2.8340792847e+02    1.0285200119e+01
    2.8350796509e+02    1.0391699791e+01
    2.8360797119e+02    1.0498299599e+01
    2.8370797729e+02    1.0604900360e+01
    2.8380795288e+02    1.0711500168e+01
    2.8390792847e+02    1.0818200111e+01
    2.8400802612e+02    1.0925100327e+01
    2.8410809326e+02    1.1031999588e+01
    2.8420812988e+02    1.1138899803e+01
    2.8430807495e+02    1.1245800018e+01
    2.8440808105e+02    1.1352800369e+01
    2.8450802612e+02    1.1459899902e+01
    2.8460812378e+02    1.1567099571e+01
    2.8470797729e+02    1.1674099922e+01
    2.8480807495e+02    1.1781399727e+01
    2.8490814209e+02    1.1888799667e+01
    2.8500811768e+02    1.1996199608e+01
    2.8510803223e+02    1.2103500366e+01
    2.8520809937e+02    1.2211000443e+01
    2.8530807495e+02    1.2318499565e+01
    2.8540817261e+02    1.2426199913e+01
    2.8550814819e+02    1.2533800125e+01
    2.8560815430e+02    1.2641500473e+01
    2.8570816040e+02    1.2749199867e+01
    2.8580804443e+02    1.2856900215e+01
    2.8590805054e+02    1.2964799881e+01
    2.8600820923e+02    1.3072799683e+01
    2.8610821533e+02    1.3180800438e+01
    2.8620812988e+02    1.3288700104e+01
    2.8630807495e+02    1.3396699905e+01
    2.8640817261e+02    1.3505000114e+01
    2.8650823975e+02    1.3613200188e+01
    2.8660809326e+02    1.3721300125e+01
    2.8670825195e+02    1.3829700470e+01
    2.8680813599e+02    1.3937999725e+01
    2.8690820312e+02    1.4046400070e+01
    2.8700814819e+02    1.4154800415e+01
    2.8710818481e+02    1.4263299942e+01
    2.8720816040e+02    1.4371899605e+01
    2.8730822754e+02    1.4480500221e+01
    2.8740814209e+02    1.4589099884e+01
    2.8750814819e+02    1.4697799683e+01
    2.8760815430e+02    1.4806599617e+01
    2.8770819092e+02    1.4915399551e+01
    2.8780831909e+02    1.5024399757e+01
    2.8790829468e+02    1.5133199692e+01
    2.8800833130e+02    1.5242199898e+01
    2.8810821533e+02    1.5351099968e+01
    2.8820828247e+02    1.5460200310e+01
    2.8830828857e+02    1.5569299698e+01
    2.8840823364e+02    1.5678400040e+01
    2.8850830078e+02    1.5787699699e+01
    2.8860833740e+02    1.5897000313e+01
    2.8870831299e+02    1.6006200790e+01
    2.8880828857e+02    1.6115600586e+01
    2.8890832520e+02    1.6225000381e+01
    2.8900823975e+02    1.6334400177e+01
    2.8910842896e+02    1.6444099426e+01
    2.8920828247e+02    1.6553499222e+01
    2.8930841064e+02    1.6663200378e+01
    2.8940838623e+02    1.6772800446e+01
    2.8950836182e+02    1.6882499695e+01
    2.8960836792e+02    1.6992300034e+01
    2.8970837402e+02    1.7102100372e+01
    2.8980834961e+02    1.7211900711e+01
    2.8990835571e+02    1.7321800232e+01
    2.9000830078e+02    1.7431600571e+01
    2.9010833740e+02    1.7541700363e+01
    2.9020834351e+02    1.7651699066e+01
    2.9030844116e+02    1.7761899948e+01
    2.9040835571e+02    1.7871900558e+01
    2.9050836182e+02    1.7982099533e+01
    2.9060848999e+02    1.8092500687e+01
    2.9070849609e+02    1.8202800751e+01
    2.9080844116e+02    1.8312999725e+01
    2.9090841675e+02    1.8423400879e+01
    2.9100845337e+02    1.8533899307e+01
    2.9110848999e+02    1.8644399643e+01
    2.9120840454e+02    1.8754800797e+01
    2.9130838013e+02    1.8865299225e+01
    2.9140841675e+02    1.8975999832e+01
    2.9150842285e+02    1.9086599350e+01
    2.9160855103e+02    1.9197399139e+01
    2.9170855713e+02    1.9308099747e+01
    2.9180844116e+02    1.9418699265e+01
    2.9190844727e+02    1.9529600143e+01
    2.9200848389e+02    1.9640399933e+01
    2.9210845947e+02    1.9751300812e+01
    2.9220843506e+02    1.9862199783e+01
    2.9230850220e+02    1.9973199844e+01
    2.9240856934e+02    2.0084299088e+01
    2.9250854492e+02    2.0195400238e+01
    2.9260852051e+02    2.0306499481e+01
    2.9270846558e+02    2.0417499542e+01
    2.9280856323e+02    2.0528900146e+01
    2.9290847778e+02    2.0639999390e+01
    2.9300854492e+02    2.0751399994e+01
    2.9310848999e+02    2.0862699509e+01
    2.9320849609e+02    2.0974100113e+01
    2.9330865479e+02    2.1085599899e+01
    2.9340850830e+02    2.1197000504e+01
    2.9350851440e+02    2.1308500290e+01
    2.9360867310e+02    2.1420200348e+01
    2.9370855713e+02    2.1531600952e+01
    2.9380853271e+02    2.1643199921e+01
    2.9390866089e+02    2.1754999161e+01
    2.9400869751e+02    2.1866600037e+01
    2.9410858154e+02    2.1978200912e+01
    2.9420858765e+02    2.2090000153e+01
    2.9430859375e+02    2.2201799393e+01
    2.9440856934e+02    2.2313699722e+01
    2.9450872803e+02    2.2425699234e+01
    2.9460858154e+02    2.2537500381e+01
    2.9470861816e+02    2.2649499893e+01
    2.9480868530e+02    2.2761600494e+01
    2.9490875244e+02    2.2873800278e+01
    2.9500863647e+02    2.2985700607e+01
    2.9510867310e+02    2.3097900391e+01
    2.9520861816e+02    2.3209999084e+01
    2.9530877686e+02    2.3322399139e+01
    2.9540875244e+02    2.3434600830e+01
    2.9550872803e+02    2.3546800613e+01
    2.9560879517e+02    2.3659200668e+01
    2.9570864868e+02    2.3771299362e+01
    2.9580865479e+02    2.3883699417e+01
    2.9590872192e+02    2.3996000290e+01
    2.9600878906e+02    2.4108299255e+01
    2.9610867310e+02    2.4220199585e+01
    2.9620874023e+02    2.4332300186e+01
    2.9630877686e+02    2.4444099426e+01
    2.9640872192e+02    2.4555599213e+01
    2.9650878906e+02    2.4666999817e+01
    2.9660879517e+02    2.4778099060e+01
    2.9670870972e+02    2.4888900757e+01
    2.9680874634e+02    2.4999700546e+01
    2.9690878296e+02    2.5110200882e+01
    2.9700878906e+02    2.5220500946e+01
    2.9710888672e+02    2.5330799103e+01
    2.9720877075e+02    2.5440700531e+01
    2.9730874634e+02    2.5550600052e+01
    2.9740878296e+02    2.5660499573e+01
    2.9750891113e+02    2.5770399094e+01
    2.9760876465e+02    2.5880100250e+01
    2.9770892334e+02    2.5989900589e+01
    2.9780889893e+02    2.6099599838e+01
    2.9790884399e+02    2.6209199905e+01
    2.9800881958e+02    2.6318799973e+01
    2.9810891724e+02    2.6428499222e+01
    2.9820889282e+02    2.6537900925e+01
    2.9830880737e+02    2.6647199631e+01
    2.9840890503e+02    2.6756599426e+01
    2.9850888062e+02    2.6865699768e+01
    2.9860882568e+02    2.6974599838e+01
    2.9870895386e+02    2.7083499908e+01
    2.9880886841e+02    2.7191999435e+01
    2.9890884399e+02    2.7300199509e+01
    2.9900900269e+02    2.7408399582e+01
    2.9910888672e+02    2.7516000748e+01
    2.9920901489e+02    2.7623600006e+01
    2.9930889893e+02    2.7730699539e+01
    2.9940902710e+02    2.7837699890e+01
    2.9950903320e+02    2.7944400787e+01
    2.9960903931e+02    2.8050800323e+01
    2.9970892334e+02    2.8156900406e+01
    2.9980895996e+02    2.8262899399e+01
    2.9990899658e+02    2.8368700027e+01
endcurve
