Curveplot
LS-DYNA keyword deck by LS-PrePost
Time
phi moment-stiffness
Joint Stiff
iny-300001 #pts=1800
* Minval=    -2.0759224609e+04 at time=       179.9019927979
* Maxval=     5.2775828125e+04 at time=        67.1995010376
    0.0000000000e+00   -1.2909640372e-01
    9.9978499115e-02   -1.4907410741e-01
    1.9995699823e-01   -1.6728831828e-01
    2.9993501306e-01   -1.8225796521e-01
    3.9991399646e-01   -1.9222541153e-01
    4.9993801117e-01   -1.9516485929e-01
    5.9985601902e-01   -1.8874925375e-01
    6.9993001223e-01   -1.7031085491e-01
    7.9993498325e-01   -1.3698056340e-01
    8.9984297752e-01   -8.5923224688e-02
    9.9984699488e-01   -1.4449804090e-02
    1.0998799801e+00    8.0007158220e-02
    1.1999399662e+00    1.9984176755e-01
    1.2999299765e+00    3.4674242139e-01
    1.3999099731e+00    5.2067929506e-01
    1.4999599457e+00    7.1902936697e-01
    1.5999499559e+00    9.3629914522e-01
    1.6998599768e+00    1.1644670963e+00
    1.7999500036e+00    1.3936851025e+00
    1.8999300003e+00    1.6128540039e+00
    1.9999899864e+00    1.8102579117e+00
    2.0999801159e+00    1.9743843079e+00
    2.1998200417e+00    2.0943078995e+00
    2.2999200821e+00    2.1598696709e+00
    2.3998799324e+00    2.1621174812e+00
    2.4998900890e+00    2.0936665535e+00
    2.5999600887e+00    1.9486590624e+00
    2.6999700069e+00    1.7225440741e+00
    2.7998700142e+00    1.4120007753e+00
    2.8999900818e+00    1.0150892735e+00
    2.9999399185e+00    5.3140842915e-01
    3.0998299122e+00   -3.8021992892e-02
    3.1998300552e+00   -6.9118154049e-01
    3.2998800278e+00   -1.4256235361e+00
    3.3998899460e+00   -2.2388610840e+00
    3.4998300076e+00   -3.1288290024e+00
    3.5999100208e+00   -4.0947976112e+00
    3.6999599934e+00   -5.1380267143e+00
    3.7999000549e+00   -6.2616052628e+00
    3.8998699188e+00   -7.4700241089e+00
    3.9999299049e+00   -8.7688817978e+00
    4.0998301506e+00   -1.0164505959e+01
    4.1998901367e+00   -1.1663471222e+01
    4.2999200821e+00   -1.3272085190e+01
    4.3999400139e+00   -1.4996005058e+01
    4.4998798370e+00   -1.6840211868e+01
    4.5998702049e+00   -1.8809335709e+01
    4.6999797821e+00   -2.0908195496e+01
    4.7998499870e+00   -2.3142425537e+01
    4.8999700546e+00   -2.5519086838e+01
    4.9999399185e+00   -2.8047250748e+01
    5.0999398232e+00   -3.0738409042e+01
    5.1999602318e+00   -3.3606624603e+01
    5.2999601364e+00   -3.6668628693e+01
    5.3999300003e+00   -3.9943881989e+01
    5.4999399185e+00   -4.3454521179e+01
    5.5998902321e+00   -4.7225376129e+01
    5.6998300552e+00   -5.1284362793e+01
    5.7998700142e+00   -5.5662944794e+01
    5.8999199867e+00   -6.0396003723e+01
    5.9998598099e+00   -6.5520904541e+01
    6.0998201370e+00   -7.1075973511e+01
    6.1998701096e+00   -7.7099136353e+01
    6.2999701500e+00   -8.3626976013e+01
    6.3999400139e+00   -9.0693145752e+01
    6.4998798370e+00   -9.8325828552e+01
    6.5999498367e+00   -1.0654523468e+02
    6.6999301910e+00   -1.1536157990e+02
    6.7998700142e+00   -1.2477296448e+02
    6.8999600410e+00   -1.3476292419e+02
    6.9999299049e+00   -1.4529798889e+02
    7.0998201370e+00   -1.5632496643e+02
    7.1998100281e+00   -1.6776806641e+02
    7.2998099327e+00   -1.7952593994e+02
    7.3998999596e+00   -1.9146838379e+02
    7.4998598099e+00   -2.0343296814e+02
    7.5998401642e+00   -2.1522296143e+02
    7.6999101639e+00   -2.2660742188e+02
    7.7999000549e+00   -2.3732313538e+02
    7.8999400139e+00   -2.4707804871e+02
    7.9999599457e+00   -2.5555633545e+02
    8.0998201370e+00   -2.6242581177e+02
    8.1998901367e+00   -2.6734802246e+02
    8.2998304367e+00   -2.6999136353e+02
    8.3998804092e+00   -2.7004827881e+02
    8.4998998642e+00   -2.6725729370e+02
    8.5998802185e+00   -2.6142999268e+02
    8.6998500824e+00   -2.5248300171e+02
    8.7998600006e+00   -2.4047503662e+02
    8.8999500275e+00   -2.2564823914e+02
    8.9998302460e+00   -2.0847262573e+02
    9.1000003815e+00   -1.8969200134e+02
    9.1999797821e+00   -1.7036907959e+02
    9.2999601364e+00   -1.5192709351e+02
    9.3999900818e+00   -1.3618458557e+02
    9.4999103546e+00   -1.2537901306e+02
    9.5998201370e+00   -1.2217435455e+02
    9.6999397278e+00   -1.2964837646e+02
    9.7999696732e+00   -1.5125486755e+02
    9.8999204636e+00   -1.9075515747e+02
    9.9998397827e+00   -2.5211308289e+02
    1.0099900246e+01   -3.3934826660e+02
    1.0199899673e+01   -4.5634307861e+02
    1.0299799919e+01   -6.0659942627e+02
    1.0399900436e+01   -7.9294256592e+02
    1.0500000000e+01   -1.0171702271e+03
    1.0600000381e+01   -1.2796486816e+03
    1.0699899673e+01   -1.5788624268e+03
    1.0800000191e+01   -1.9109272461e+03
    1.0899999619e+01   -2.2691081543e+03
    1.0999899864e+01   -2.6435019531e+03
    1.1099900246e+01   -3.0211259766e+03
    1.1199899673e+01   -3.3865495605e+03
    1.1299900055e+01   -3.7230380859e+03
    1.1399900436e+01   -4.0140510254e+03
    1.1499899864e+01   -4.2448652344e+03
    1.1599900246e+01   -4.4041240234e+03
    1.1699899673e+01   -4.4851289062e+03
    1.1799900055e+01   -4.4866962891e+03
    1.1899800301e+01   -4.4134477539e+03
    1.2000000000e+01   -4.2754775391e+03
    1.2100000381e+01   -4.0874501953e+03
    1.2199999809e+01   -3.8673012695e+03
    1.2299900055e+01   -3.6347702637e+03
    1.2399999619e+01   -3.4099584961e+03
    1.2500000000e+01   -3.2120368652e+03
    1.2600000381e+01   -3.0581704102e+03
    1.2699899673e+01   -2.9626816406e+03
    1.2799900055e+01   -2.9364394531e+03
    1.2899999619e+01   -2.9864438477e+03
    1.3000000000e+01   -3.1155783691e+03
    1.3099800110e+01   -3.3225197754e+03
    1.3199899673e+01   -3.6018210449e+03
    1.3299900055e+01   -3.9442041016e+03
    1.3399900436e+01   -4.3370703125e+03
    1.3500000000e+01   -4.7652104492e+03
    1.3600000381e+01   -5.2116997070e+03
    1.3699999809e+01   -5.6589716797e+03
    1.3799900055e+01   -6.0900419922e+03
    1.3899900436e+01   -6.4897861328e+03
    1.3999899864e+01   -6.8461186523e+03
    1.4099900246e+01   -7.1509277344e+03
    1.4199999809e+01   -7.4006889648e+03
    1.4299900055e+01   -7.5967270508e+03
    1.4399999619e+01   -7.7451049805e+03
    1.4499799728e+01   -7.8561093750e+03
    1.4599900246e+01   -7.9433476562e+03
    1.4699899673e+01   -8.0225429688e+03
    1.4800000191e+01   -8.1101484375e+03
    1.4899999619e+01   -8.2219189453e+03
    1.4999899864e+01   -8.3715654297e+03
    1.5099800110e+01   -8.5695898438e+03
    1.5199899673e+01   -8.8223916016e+03
    1.5299900055e+01   -9.1317158203e+03
    1.5399900436e+01   -9.4944970703e+03
    1.5499899864e+01   -9.9031015625e+03
    1.5599900246e+01   -1.0345923828e+04
    1.5699899673e+01   -1.0808272461e+04
    1.5799900055e+01   -1.1273466797e+04
    1.5899999619e+01   -1.1724029297e+04
    1.5999799728e+01   -1.2142882812e+04
    1.6099800110e+01   -1.2514552734e+04
    1.6199800491e+01   -1.2826287109e+04
    1.6299900055e+01   -1.3068906250e+04
    1.6399900436e+01   -1.3237343750e+04
    1.6499900818e+01   -1.3330956055e+04
    1.6599899292e+01   -1.3353647461e+04
    1.6699899673e+01   -1.3313791992e+04
    1.6799999237e+01   -1.3223835938e+04
    1.6899900436e+01   -1.3099534180e+04
    1.6999900818e+01   -1.2958881836e+04
    1.7099899292e+01   -1.2820859375e+04
    1.7199800491e+01   -1.2704097656e+04
    1.7299999237e+01   -1.2625563477e+04
    1.7399799347e+01   -1.2599358398e+04
    1.7500000000e+01   -1.2635744141e+04
    1.7599800110e+01   -1.2740484375e+04
    1.7699899673e+01   -1.2914540039e+04
    1.7799999237e+01   -1.3154132812e+04
    1.7899900436e+01   -1.3451182617e+04
    1.7999900818e+01   -1.3794078125e+04
    1.8099800110e+01   -1.4168685547e+04
    1.8200000763e+01   -1.4559490234e+04
    1.8299900055e+01   -1.4950776367e+04
    1.8399999619e+01   -1.5327771484e+04
    1.8500000000e+01   -1.5677680664e+04
    1.8600000381e+01   -1.5990549805e+04
    1.8699899673e+01   -1.6259886719e+04
    1.8799900055e+01   -1.6482980469e+04
    1.8899900436e+01   -1.6660919922e+04
    1.8999900818e+01   -1.6798333984e+04
    1.9100000381e+01   -1.6902861328e+04
    1.9199899673e+01   -1.6984357422e+04
    1.9299999237e+01   -1.7053912109e+04
    1.9399900436e+01   -1.7122757812e+04
    1.9499900818e+01   -1.7201187500e+04
    1.9599899292e+01   -1.7297578125e+04
    1.9699899673e+01   -1.7417619141e+04
    1.9799900055e+01   -1.7563796875e+04
    1.9899999619e+01   -1.7735199219e+04
    2.0000000000e+01   -1.7927648438e+04
    2.0100000381e+01   -1.8134150391e+04
    2.0199899673e+01   -1.8345583984e+04
    2.0299999237e+01   -1.8551533203e+04
    2.0399999619e+01   -1.8741187500e+04
    2.0499900818e+01   -1.8904269531e+04
    2.0599899292e+01   -1.9031953125e+04
    2.0699899673e+01   -1.9117732422e+04
    2.0799999237e+01   -1.9158125000e+04
    2.0899900436e+01   -1.9153117188e+04
    2.1000000000e+01   -1.9106318359e+04
    2.1100000381e+01   -1.9024798828e+04
    2.1199899673e+01   -1.8918603516e+04
    2.1299900055e+01   -1.8799949219e+04
    2.1399900436e+01   -1.8682203125e+04
    2.1500000000e+01   -1.8578740234e+04
    2.1600000381e+01   -1.8501800781e+04
    2.1699899673e+01   -1.8461457031e+04
    2.1799900055e+01   -1.8464789062e+04
    2.1899900436e+01   -1.8515333984e+04
    2.2000000000e+01   -1.8612841797e+04
    2.2099899292e+01   -1.8753357422e+04
    2.2199899673e+01   -1.8929628906e+04
    2.2299999237e+01   -1.9131792969e+04
    2.2399900436e+01   -1.9348269531e+04
    2.2499900818e+01   -1.9566748047e+04
    2.2599899292e+01   -1.9775181641e+04
    2.2700000763e+01   -1.9962724609e+04
    2.2799900055e+01   -2.0120515625e+04
    2.2899999619e+01   -2.0242265625e+04
    2.2999900818e+01   -2.0324625000e+04
    2.3100000381e+01   -2.0367300781e+04
    2.3200000763e+01   -2.0372917969e+04
    2.3299999237e+01   -2.0346621094e+04
    2.3399900436e+01   -2.0295462891e+04
    2.3500000000e+01   -2.0227636719e+04
    2.3600000381e+01   -2.0151650391e+04
    2.3700000763e+01   -2.0075513672e+04
    2.3799900055e+01   -2.0006017578e+04
    2.3899999619e+01   -1.9948160156e+04
    2.3999900818e+01   -1.9904771484e+04
    2.4099899292e+01   -1.9876347656e+04
    2.4200000763e+01   -1.9861125000e+04
    2.4299900055e+01   -1.9855359375e+04
    2.4399900436e+01   -1.9853794922e+04
    2.4500000000e+01   -1.9850257812e+04
    2.4600000381e+01   -1.9838320312e+04
    2.4699899673e+01   -1.9811958984e+04
    2.4799999237e+01   -1.9766156250e+04
    2.4899999619e+01   -1.9697396484e+04
    2.5000099182e+01   -1.9604015625e+04
    2.5099899292e+01   -1.9486375000e+04
    2.5200000763e+01   -1.9346849609e+04
    2.5299999237e+01   -1.9189630859e+04
    2.5399900436e+01   -1.9020369141e+04
    2.5499900818e+01   -1.8845699219e+04
    2.5599899292e+01   -1.8672708984e+04
    2.5699899673e+01   -1.8508396484e+04
    2.5799999237e+01   -1.8359144531e+04
    2.5899999619e+01   -1.8230250000e+04
    2.5999900818e+01   -1.8125541016e+04
    2.6100000381e+01   -1.8047097656e+04
    2.6200000763e+01   -1.7995089844e+04
    2.6299999237e+01   -1.7967746094e+04
    2.6399900436e+01   -1.7961441406e+04
    2.6500000000e+01   -1.7970910156e+04
    2.6600000381e+01   -1.7989580078e+04
    2.6700000763e+01   -1.8010005859e+04
    2.6799999237e+01   -1.8024373047e+04
    2.6899999619e+01   -1.8025041016e+04
    2.7000000000e+01   -1.8005083984e+04
    2.7099899292e+01   -1.7958791016e+04
    2.7200000763e+01   -1.7882072266e+04
    2.7299900055e+01   -1.7772744141e+04
    2.7399900436e+01   -1.7630660156e+04
    2.7500000000e+01   -1.7457677734e+04
    2.7600000381e+01   -1.7257453125e+04
    2.7700000763e+01   -1.7035107422e+04
    2.7799900055e+01   -1.6796806641e+04
    2.7899999619e+01   -1.6549292969e+04
    2.8000000000e+01   -1.6299403320e+04
    2.8100000381e+01   -1.6053588867e+04
    2.8200000763e+01   -1.5817458008e+04
    2.8299900055e+01   -1.5595398438e+04
    2.8400100708e+01   -1.5390291992e+04
    2.8500000000e+01   -1.5203347656e+04
    2.8599899292e+01   -1.5034065430e+04
    2.8699899673e+01   -1.4880330078e+04
    2.8799900055e+01   -1.4738627930e+04
    2.8899900436e+01   -1.4604375977e+04
    2.9000000000e+01   -1.4472337891e+04
    2.9099899292e+01   -1.4337091797e+04
    2.9199899673e+01   -1.4193516602e+04
    2.9299999237e+01   -1.4037243164e+04
    2.9399900436e+01   -1.3865039062e+04
    2.9500000000e+01   -1.3675086914e+04
    2.9600099564e+01   -1.3467139648e+04
    2.9700000763e+01   -1.3242548828e+04
    2.9800100327e+01   -1.3004159180e+04
    2.9899900436e+01   -1.2756067383e+04
    2.9999900818e+01   -1.2503259766e+04
    3.0099899292e+01   -1.2251184570e+04
    3.0199899673e+01   -1.2005300781e+04
    3.0299900055e+01   -1.1770647461e+04
    3.0399999619e+01   -1.1551453125e+04
    3.0500099182e+01   -1.1350800781e+04
    3.0600000381e+01   -1.1170375977e+04
    3.0699899673e+01   -1.1010313477e+04
    3.0799999237e+01   -1.0869160156e+04
    3.0899999619e+01   -1.0743955078e+04
    3.1000000000e+01   -1.0630422852e+04
    3.1100000381e+01   -1.0523262695e+04
    3.1200000763e+01   -1.0416516602e+04
    3.1300100327e+01   -1.0303994141e+04
    3.1399999619e+01   -1.0179718750e+04
    3.1500099182e+01   -1.0038355469e+04
    3.1599899292e+01   -9.8755732422e+03
    3.1699899673e+01   -9.6883193359e+03
    3.1799900055e+01   -9.4750009766e+03
    3.1899999619e+01   -9.2355761719e+03
    3.2000000000e+01   -8.9715419922e+03
    3.2099998474e+01   -8.6858027344e+03
    3.2199901581e+01   -8.3824208984e+03
    3.2299999237e+01   -8.0663090820e+03
    3.2400100708e+01   -7.7428847656e+03
    3.2500000000e+01   -7.4177026367e+03
    3.2600101471e+01   -7.0960971680e+03
    3.2699901581e+01   -6.7828593750e+03
    3.2799999237e+01   -6.4819760742e+03
    3.2899898529e+01   -6.1964829102e+03
    3.3000099182e+01   -5.9284360352e+03
    3.3099899292e+01   -5.6789501953e+03
    3.3199901581e+01   -5.4482695312e+03
    3.3299999237e+01   -5.2358686523e+03
    3.3400100708e+01   -5.0405844727e+03
    3.3500000000e+01   -4.8607670898e+03
    3.3599899292e+01   -4.6944350586e+03
    3.3699901581e+01   -4.5394350586e+03
    3.3799900055e+01   -4.3935903320e+03
    3.3899898529e+01   -4.2548232422e+03
    3.3999900818e+01   -4.1212602539e+03
    3.4099998474e+01   -3.9913259277e+03
    3.4200000763e+01   -3.8638190918e+03
    3.4299999237e+01   -3.7379670410e+03
    3.4399898529e+01   -3.6134470215e+03
    3.4500000000e+01   -3.4903730469e+03
    3.4599899292e+01   -3.3692502441e+03
    3.4699901581e+01   -3.2509030762e+03
    3.4799900055e+01   -3.1363937988e+03
    3.4899898529e+01   -3.0269316406e+03
    3.4999900818e+01   -2.9237736816e+03
    3.5099899292e+01   -2.8281279297e+03
    3.5199901581e+01   -2.7410498047e+03
    3.5299900055e+01   -2.6633271484e+03
    3.5400001526e+01   -2.5953774414e+03
    3.5499900818e+01   -2.5372016602e+03
    3.5599899292e+01   -2.4884218750e+03
    3.5700000763e+01   -2.4483688965e+03
    3.5799900055e+01   -2.4161772461e+03
    3.5900001526e+01   -2.3908703613e+03
    3.5999900818e+01   -2.3714321289e+03
    3.6099998474e+01   -2.3568564453e+03
    3.6199901581e+01   -2.3461813965e+03
    3.6299900055e+01   -2.3385158691e+03
    3.6399799347e+01   -2.3330593262e+03
    3.6499900818e+01   -2.3291086426e+03
    3.6599899292e+01   -2.3260563965e+03
    3.6699901581e+01   -2.3233896484e+03
    3.6799999237e+01   -2.3206877441e+03
    3.6900001526e+01   -2.3176137695e+03
    3.6999900818e+01   -2.3139033203e+03
    3.7099998474e+01   -2.3093549805e+03
    3.7199901581e+01   -2.3038256836e+03
    3.7299900055e+01   -2.2972253418e+03
    3.7399898529e+01   -2.2895048828e+03
    3.7499801636e+01   -2.2806467285e+03
    3.7599998474e+01   -2.2706604004e+03
    3.7700000763e+01   -2.2595771484e+03
    3.7799800873e+01   -2.2474399414e+03
    3.7899799347e+01   -2.2342966309e+03
    3.7999900818e+01   -2.2201970215e+03
    3.8099899292e+01   -2.2051931152e+03
    3.8199901581e+01   -2.1893349609e+03
    3.8299900055e+01   -2.1726669922e+03
    3.8400001526e+01   -2.1552302246e+03
    3.8499900818e+01   -2.1370668945e+03
    3.8599800110e+01   -2.1182219238e+03
    3.8699901581e+01   -2.0987443848e+03
    3.8799900055e+01   -2.0786936035e+03
    3.8900001526e+01   -2.0581472168e+03
    3.8999801636e+01   -2.0372050781e+03
    3.9099899292e+01   -2.0159916992e+03
    3.9199901581e+01   -1.9946618652e+03
    3.9299800873e+01   -1.9734088135e+03
    3.9399898529e+01   -1.9524682617e+03
    3.9499900818e+01   -1.9321186523e+03
    3.9599998474e+01   -1.9126839600e+03
    3.9699901581e+01   -1.8945389404e+03
    3.9799800873e+01   -1.8781104736e+03
    3.9899898529e+01   -1.8638742676e+03
    3.9999801636e+01   -1.8523509521e+03
    4.0099899292e+01   -1.8441022949e+03
    4.0199798584e+01   -1.8397215576e+03
    4.0299800873e+01   -1.8398151855e+03
    4.0399799347e+01   -1.8449771729e+03
    4.0499900818e+01   -1.8557597656e+03
    4.0599899292e+01   -1.8726369629e+03
    4.0699798584e+01   -1.8959544678e+03
    4.0799900055e+01   -1.9258681641e+03
    4.0899799347e+01   -1.9622779541e+03
    4.0999900818e+01   -2.0047553711e+03
    4.1099899292e+01   -2.0524621582e+03
    4.1199798584e+01   -2.1040637207e+03
    4.1299900055e+01   -2.1576462402e+03
    4.1399898529e+01   -2.2106408691e+03
    4.1499801636e+01   -2.2597561035e+03
    4.1599800110e+01   -2.3009255371e+03
    4.1699798584e+01   -2.3292844238e+03
    4.1799800873e+01   -2.3391821289e+03
    4.1899799347e+01   -2.3242395020e+03
    4.1999801636e+01   -2.2774577637e+03
    4.2099899292e+01   -2.1913950195e+03
    4.2199798584e+01   -2.0584348145e+03
    4.2299800873e+01   -1.8711588135e+03
    4.2399898529e+01   -1.6227897949e+03
    4.2499900818e+01   -1.3077126465e+03
    4.2599899292e+01   -9.2211334229e+02
    4.2699901581e+01   -4.6471905518e+02
    4.2799800873e+01    6.2382389069e+01
    4.2899799347e+01    6.5287164307e+02
    4.2999801636e+01    1.2954311523e+03
    4.3099899292e+01    1.9733859863e+03
    4.3199798584e+01    2.6650488281e+03
    4.3299800873e+01    3.3448864746e+03
    4.3399799347e+01    3.9854216309e+03
    4.3499801636e+01    4.5596577148e+03
    4.3599700928e+01    5.0437045898e+03
    4.3699699402e+01    5.4191723633e+03
    4.3799900055e+01    5.6750239258e+03
    4.3899700165e+01    5.8087729492e+03
    4.3999900818e+01    5.8269545898e+03
    4.4099899292e+01    5.7447919922e+03
    4.4199798584e+01    5.5850209961e+03
    4.4299701691e+01    5.3759990234e+03
    4.4399700165e+01    5.1493920898e+03
    4.4499698639e+01    4.9377299805e+03
    4.4599800110e+01    4.7720488281e+03
    4.4699798584e+01    4.6797915039e+03
    4.4799900055e+01    4.6830913086e+03
    4.4899898529e+01    4.7975122070e+03
    4.4999698639e+01    5.0312666016e+03
    4.5099800110e+01    5.3849208984e+03
    4.5199798584e+01    5.8516210938e+03
    4.5299800873e+01    6.4178364258e+03
    4.5399799347e+01    7.0645263672e+03
    4.5499698639e+01    7.7686127930e+03
    4.5599800110e+01    8.5046767578e+03
    4.5699798584e+01    9.2467919922e+03
    4.5799800873e+01    9.9703310547e+03
    4.5899700165e+01    1.0653574219e+04
    4.5999801636e+01    1.1279079102e+04
    4.6099700928e+01    1.1834748047e+04
    4.6199798584e+01    1.2314452148e+04
    4.6299800873e+01    1.2718120117e+04
    4.6399799347e+01    1.3051314453e+04
    4.6499801636e+01    1.3324356445e+04
    4.6599800110e+01    1.3551086914e+04
    4.6699798584e+01    1.3747381836e+04
    4.6799800873e+01    1.3929605469e+04
    4.6899799347e+01    1.4113166992e+04
    4.6999801636e+01    1.4311326172e+04
    4.7099800110e+01    1.4534328125e+04
    4.7199699402e+01    1.4788923828e+04
    4.7299701691e+01    1.5078292969e+04
    4.7399799347e+01    1.5402313477e+04
    4.7499698639e+01    1.5758095703e+04
    4.7599700928e+01    1.6140661133e+04
    4.7699798584e+01    1.6543625000e+04
    4.7799800873e+01    1.6959875000e+04
    4.7899700165e+01    1.7382232422e+04
    4.7999801636e+01    1.7803949219e+04
    4.8099800110e+01    1.8219023438e+04
    4.8199798584e+01    1.8622515625e+04
    4.8299701691e+01    1.9010792969e+04
    4.8399700165e+01    1.9381580078e+04
    4.8499801636e+01    1.9733917969e+04
    4.8599700928e+01    2.0068107422e+04
    4.8699798584e+01    2.0385544922e+04
    4.8799701691e+01    2.0688408203e+04
    4.8899799347e+01    2.0979402344e+04
    4.8999698639e+01    2.1261685547e+04
    4.9099700928e+01    2.1538863281e+04
    4.9199600220e+01    2.1814933594e+04
    4.9299598694e+01    2.2094189453e+04
    4.9399799347e+01    2.2381087891e+04
    4.9499698639e+01    2.2680056641e+04
    4.9599700928e+01    2.2995259766e+04
    4.9699798584e+01    2.3330328125e+04
    4.9799701691e+01    2.3688037109e+04
    4.9899700165e+01    2.4069906250e+04
    4.9999698639e+01    2.4475791016e+04
    5.0099700928e+01    2.4903617188e+04
    5.0199798584e+01    2.5349332031e+04
    5.0299701691e+01    2.5806970703e+04
    5.0399600983e+01    2.6268755859e+04
    5.0499698639e+01    2.6725425781e+04
    5.0599700928e+01    2.7166900391e+04
    5.0699798584e+01    2.7583068359e+04
    5.0799598694e+01    2.7964505859e+04
    5.0899700165e+01    2.8303250000e+04
    5.0999698639e+01    2.8593666016e+04
    5.1099601746e+01    2.8833232422e+04
    5.1199699402e+01    2.9023064453e+04
    5.1299701691e+01    2.9168158203e+04
    5.1399600983e+01    2.9277322266e+04
    5.1499599457e+01    2.9362748047e+04
    5.1599601746e+01    2.9439199219e+04
    5.1699699402e+01    2.9522855469e+04
    5.1799598694e+01    2.9629912109e+04
    5.1899600983e+01    2.9775099609e+04
    5.1999698639e+01    2.9970291016e+04
    5.2099601746e+01    3.0223378906e+04
    5.2199600220e+01    3.0537591797e+04
    5.2299598694e+01    3.0911333984e+04
    5.2399700165e+01    3.1338515625e+04
    5.2499599457e+01    3.1809238281e+04
    5.2599700928e+01    3.2310738281e+04
    5.2699699402e+01    3.2828375000e+04
    5.2799598694e+01    3.3346464844e+04
    5.2899700165e+01    3.3849093750e+04
    5.2999599457e+01    3.4321195312e+04
    5.3099700928e+01    3.4749757812e+04
    5.3199600220e+01    3.5124914062e+04
    5.3299701691e+01    3.5440710938e+04
    5.3399700165e+01    3.5695386719e+04
    5.3499801636e+01    3.5891183594e+04
    5.3599700928e+01    3.6033839844e+04
    5.3699699402e+01    3.6131964844e+04
    5.3799598694e+01    3.6196390625e+04
    5.3899700165e+01    3.6239484375e+04
    5.3999599457e+01    3.6274351562e+04
    5.4099700928e+01    3.6313929688e+04
    5.4199600220e+01    3.6370113281e+04
    5.4299598694e+01    3.6452953125e+04
    5.4399600983e+01    3.6570027344e+04
    5.4499698639e+01    3.6726074219e+04
    5.4599700928e+01    3.6922937500e+04
    5.4699600220e+01    3.7159769531e+04
    5.4799701691e+01    3.7433390625e+04
    5.4899600983e+01    3.7738691406e+04
    5.4999698639e+01    3.8069027344e+04
    5.5099700928e+01    3.8416695312e+04
    5.5199699402e+01    3.8773375000e+04
    5.5299701691e+01    3.9130441406e+04
    5.5399700165e+01    3.9479250000e+04
    5.5499599457e+01    3.9811453125e+04
    5.5599700928e+01    4.0119375000e+04
    5.5699600220e+01    4.0396496094e+04
    5.5799598694e+01    4.0637988281e+04
    5.5899700165e+01    4.0841125000e+04
    5.5999599457e+01    4.1005503906e+04
    5.6099498749e+01    4.1133054688e+04
    5.6199600220e+01    4.1227894531e+04
    5.6299701691e+01    4.1296023438e+04
    5.6399600983e+01    4.1344785156e+04
    5.6499599457e+01    4.1382195312e+04
    5.6599601746e+01    4.1416320312e+04
    5.6699600220e+01    4.1454753906e+04
    5.6799598694e+01    4.1504191406e+04
    5.6899700165e+01    4.1570085938e+04
    5.6999599457e+01    4.1656421875e+04
    5.7099601746e+01    4.1765625000e+04
    5.7199600220e+01    4.1898554688e+04
    5.7299701691e+01    4.2054593750e+04
    5.7399600983e+01    4.2231820312e+04
    5.7499698639e+01    4.2427195312e+04
    5.7599601746e+01    4.2636761719e+04
    5.7699501038e+01    4.2855792969e+04
    5.7799598694e+01    4.3078824219e+04
    5.7899600983e+01    4.3299761719e+04
    5.7999599457e+01    4.3512250000e+04
    5.8099601746e+01    4.3710175781e+04
    5.8199600220e+01    4.3888082031e+04
    5.8299499512e+01    4.4041453125e+04
    5.8399600983e+01    4.4166929688e+04
    5.8499599457e+01    4.4262582031e+04
    5.8599601746e+01    4.4328160156e+04
    5.8699501038e+01    4.4365191406e+04
    5.8799499512e+01    4.4376902344e+04
    5.8899600983e+01    4.4367953125e+04
    5.8999599457e+01    4.4344031250e+04
    5.9099601746e+01    4.4311320312e+04
    5.9199600220e+01    4.4275914062e+04
    5.9299598694e+01    4.4243269531e+04
    5.9399600983e+01    4.4217757812e+04
    5.9499599457e+01    4.4202371094e+04
    5.9599601746e+01    4.4198628906e+04
    5.9699600220e+01    4.4206683594e+04
    5.9799598694e+01    4.4225578125e+04
    5.9899700165e+01    4.4253609375e+04
    5.9999500275e+01    4.4288742188e+04
    6.0099601746e+01    4.4329031250e+04
    6.0199501038e+01    4.4373019531e+04
    6.0299598694e+01    4.4420066406e+04
    6.0399501801e+01    4.4470527344e+04
    6.0499599457e+01    4.4525753906e+04
    6.0599498749e+01    4.4588003906e+04
    6.0699600220e+01    4.4660414062e+04
    6.0799598694e+01    4.4747003906e+04
    6.0899600983e+01    4.4852636719e+04
    6.0999500275e+01    4.4982906250e+04
    6.1099498749e+01    4.5143914062e+04
    6.1199600220e+01    4.5341925781e+04
    6.1299499512e+01    4.5582871094e+04
    6.1399501801e+01    4.5871691406e+04
    6.1499500275e+01    4.6211523438e+04
    6.1599498749e+01    4.6602750000e+04
    6.1699600220e+01    4.7041929688e+04
    6.1799499512e+01    4.7520750000e+04
    6.1899600983e+01    4.8025304688e+04
    6.1999599457e+01    4.8536054688e+04
    6.2099498749e+01    4.9028687500e+04
    6.2199501038e+01    4.9475957031e+04
    6.2299499512e+01    4.9850375000e+04
    6.2399600983e+01    5.0127390625e+04
    6.2499500275e+01    5.0288628906e+04
    6.2599498749e+01    5.0324796875e+04
    6.2699501038e+01    5.0237917969e+04
    6.2799499512e+01    5.0042453125e+04
    6.2899501801e+01    4.9764761719e+04
    6.2999500275e+01    4.9440554688e+04
    6.3099498749e+01    4.9110687500e+04
    6.3199501038e+01    4.8815953125e+04
    6.3299598694e+01    4.8591757812e+04
    6.3399398804e+01    4.8463574219e+04
    6.3499599457e+01    4.8443953125e+04
    6.3599399567e+01    4.8531492188e+04
    6.3699600220e+01    4.8711917969e+04
    6.3799598694e+01    4.8961132812e+04
    6.3899600983e+01    4.9249746094e+04
    6.3999500275e+01    4.9548195312e+04
    6.4099502563e+01    4.9831421875e+04
    6.4199501038e+01    5.0082332031e+04
    6.4299499512e+01    5.0293718750e+04
    6.4399597168e+01    5.0468363281e+04
    6.4499397278e+01    5.0617250000e+04
    6.4599601746e+01    5.0756222656e+04
    6.4699501038e+01    5.0901808594e+04
    6.4799400330e+01    5.1067132812e+04
    6.4899497986e+01    5.1258687500e+04
    6.4999603271e+01    5.1474582031e+04
    6.5099403381e+01    5.1704710938e+04
    6.5199501038e+01    5.1932832031e+04
    6.5299400330e+01    5.2139902344e+04
    6.5399398804e+01    5.2307785156e+04
    6.5499496460e+01    5.2422703125e+04
    6.5599403381e+01    5.2477867188e+04
    6.5699600220e+01    5.2474875000e+04
    6.5799400330e+01    5.2423628906e+04
    6.5899398804e+01    5.2340703125e+04
    6.5999496460e+01    5.2246496094e+04
    6.6099403381e+01    5.2161761719e+04
    6.6199401855e+01    5.2104222656e+04
    6.6299499512e+01    5.2085851562e+04
    6.6399497986e+01    5.2111273438e+04
    6.6499496460e+01    5.2177550781e+04
    6.6599502563e+01    5.2275320312e+04
    6.6699401855e+01    5.2390964844e+04
    6.6799499512e+01    5.2509285156e+04
    6.6899497986e+01    5.2616058594e+04
    6.6999397278e+01    5.2700050781e+04
    6.7099502563e+01    5.2754199219e+04
    6.7199501038e+01    5.2775828125e+04
    6.7299400330e+01    5.2765914062e+04
    6.7399497986e+01    5.2727714844e+04
    6.7499496460e+01    5.2665156250e+04
    6.7599502563e+01    5.2581468750e+04
    6.7699401855e+01    5.2478367188e+04
    6.7799400330e+01    5.2355921875e+04
    6.7899398804e+01    5.2213121094e+04
    6.7999496460e+01    5.2048937500e+04
    6.8099403381e+01    5.1863582031e+04
    6.8199501038e+01    5.1659511719e+04
    6.8299400330e+01    5.1441921875e+04
    6.8399497986e+01    5.1218566406e+04
    6.8499496460e+01    5.0998906250e+04
    6.8599403381e+01    5.0792769531e+04
    6.8699501038e+01    5.0608769531e+04
    6.8799400330e+01    5.0452812500e+04
    6.8899398804e+01    5.0326988281e+04
    6.8999496460e+01    5.0229050781e+04
    6.9099502563e+01    5.0152609375e+04
    6.9199401855e+01    5.0087976562e+04
    6.9299400330e+01    5.0023554688e+04
    6.9399398804e+01    4.9947503906e+04
    6.9499397278e+01    4.9849398438e+04
    6.9599296570e+01    4.9721550781e+04
    6.9699501038e+01    4.9559765625e+04
    6.9799499512e+01    4.9363410156e+04
    6.9899398804e+01    4.9134847656e+04
    6.9999397278e+01    4.8878429688e+04
    7.0099296570e+01    4.8599261719e+04
    7.0199302673e+01    4.8301996094e+04
    7.0299499512e+01    4.7989925781e+04
    7.0399398804e+01    4.7664535156e+04
    7.0499397278e+01    4.7325640625e+04
    7.0599296570e+01    4.6972058594e+04
    7.0699401855e+01    4.6602675781e+04
    7.0799400330e+01    4.6217640625e+04
    7.0899299622e+01    4.5819406250e+04
    7.0999298096e+01    4.5413320312e+04
    7.1099403381e+01    4.5007535156e+04
    7.1199401855e+01    4.4612242188e+04
    7.1299400330e+01    4.4238402344e+04
    7.1399398804e+01    4.3896140625e+04
    7.1499298096e+01    4.3593054688e+04
    7.1599502563e+01    4.3332695312e+04
    7.1699401855e+01    4.3113476562e+04
    7.1799400330e+01    4.2928257812e+04
    7.1899497986e+01    4.2764734375e+04
    7.1999397278e+01    4.2606636719e+04
    7.2099296570e+01    4.2435609375e+04
    7.2199401855e+01    4.2233476562e+04
    7.2299400330e+01    4.1984562500e+04
    7.2399398804e+01    4.1677679688e+04
    7.2499298096e+01    4.1307523438e+04
    7.2599403381e+01    4.0875250000e+04
    7.2699401855e+01    4.0388128906e+04
    7.2799400330e+01    3.9858347656e+04
    7.2899299622e+01    3.9301203125e+04
    7.2999397278e+01    3.8733046875e+04
    7.3099403381e+01    3.8169335938e+04
    7.3199401855e+01    3.7623015625e+04
    7.3299301147e+01    3.7103382812e+04
    7.3399299622e+01    3.6615527344e+04
    7.3499397278e+01    3.6160390625e+04
    7.3599296570e+01    3.5735378906e+04
    7.3699302673e+01    3.5335402344e+04
    7.3799301147e+01    3.4954144531e+04
    7.3899398804e+01    3.4585359375e+04
    7.3999397278e+01    3.4223921875e+04
    7.4099296570e+01    3.3866472656e+04
    7.4199401855e+01    3.3511566406e+04
    7.4299301147e+01    3.3159339844e+04
    7.4399398804e+01    3.2810847656e+04
    7.4499397278e+01    3.2467248047e+04
    7.4599296570e+01    3.2128964844e+04
    7.4699401855e+01    3.1794955078e+04
    7.4799400330e+01    3.1462248047e+04
    7.4899299622e+01    3.1125820312e+04
    7.4999298096e+01    3.0778808594e+04
    7.5099403381e+01    3.0413083984e+04
    7.5199401855e+01    3.0020173828e+04
    7.5299400330e+01    2.9592371094e+04
    7.5399299622e+01    2.9123835938e+04
    7.5499397278e+01    2.8611505859e+04
    7.5599296570e+01    2.8055699219e+04
    7.5699401855e+01    2.7460365234e+04
    7.5799400330e+01    2.6833000000e+04
    7.5899398804e+01    2.6184207031e+04
    7.5999298096e+01    2.5526904297e+04
    7.6099403381e+01    2.4875298828e+04
    7.6199302673e+01    2.4243732422e+04
    7.6299400330e+01    2.3645500000e+04
    7.6399299622e+01    2.3091763672e+04
    7.6499298096e+01    2.2590677734e+04
    7.6599197388e+01    2.2146789062e+04
    7.6699302673e+01    2.1760669922e+04
    7.6799301147e+01    2.1428812500e+04
    7.6899398804e+01    2.1143832031e+04
    7.6999397278e+01    2.0894968750e+04
    7.7099296570e+01    2.0668869141e+04
    7.7199401855e+01    2.0450605469e+04
    7.7299201965e+01    2.0224869141e+04
    7.7399200439e+01    1.9977201172e+04
    7.7499298096e+01    1.9695125000e+04
    7.7599403381e+01    1.9369046875e+04
    7.7699203491e+01    1.8992828125e+04
    7.7799301147e+01    1.8564011719e+04
    7.7899299622e+01    1.8083755859e+04
    7.7999298096e+01    1.7556546875e+04
    7.8099296570e+01    1.6989710938e+04
    7.8199203491e+01    1.6392744141e+04
    7.8299201965e+01    1.5776572266e+04
    7.8399398804e+01    1.5152797852e+04
    7.8499298096e+01    1.4532947266e+04
    7.8599403381e+01    1.3927732422e+04
    7.8699302673e+01    1.3346447266e+04
    7.8799301147e+01    1.2796518555e+04
    7.8899200439e+01    1.2283190430e+04
    7.8999298096e+01    1.1809440430e+04
    7.9099296570e+01    1.1376160156e+04
    7.9199302673e+01    1.0982376953e+04
    7.9299301147e+01    1.0625410156e+04
    7.9399398804e+01    1.0301166016e+04
    7.9499298096e+01    1.0004543945e+04
    7.9599296570e+01    9.7297470703e+03
    7.9699203491e+01    9.4705224609e+03
    7.9799301147e+01    9.2204365234e+03
    7.9899299622e+01    8.9731826172e+03
    7.9999298096e+01    8.7228554688e+03
    8.0099197388e+01    8.4641640625e+03
    8.0199302673e+01    8.1925869141e+03
    8.0299301147e+01    7.9044980469e+03
    8.0399299622e+01    7.5972832031e+03
    8.0499298096e+01    7.2693989258e+03
    8.0599197388e+01    6.9203647461e+03
    8.0699203491e+01    6.5507504883e+03
    8.0799201965e+01    6.1621743164e+03
    8.0899299622e+01    5.7572451172e+03
    8.0999198914e+01    5.3394648438e+03
    8.1099296570e+01    4.9131367188e+03
    8.1199203491e+01    4.4832202148e+03
    8.1299201965e+01    4.0550915527e+03
    8.1399299622e+01    3.6342846680e+03
    8.1499298096e+01    3.2262995605e+03
    8.1599296570e+01    2.8364111328e+03
    8.1699302673e+01    2.4694038086e+03
    8.1799301147e+01    2.1293444824e+03
    8.1899200439e+01    1.8194887695e+03
    8.1999099731e+01    1.5422733154e+03
    8.2099296570e+01    1.2993077393e+03
    8.2199203491e+01    1.0912811279e+03
    8.2299301147e+01    9.1785437012e+02
    8.2399299622e+01    7.7764996338e+02
    8.2499198914e+01    6.6831042480e+02
    8.2599098206e+01    5.8658105469e+02
    8.2699203491e+01    5.2842321777e+02
    8.2799301147e+01    4.8919683838e+02
    8.2899101257e+01    4.6389425659e+02
    8.2999099731e+01    4.4734991455e+02
    8.3099197388e+01    4.3444741821e+02
    8.3199096680e+01    4.2036563110e+02
    8.3299201965e+01    4.0080792236e+02
    8.3399200439e+01    3.7216876221e+02
    8.3499298096e+01    3.3166076660e+02
    8.3599197388e+01    2.7740847778e+02
    8.3699203491e+01    2.0847784424e+02
    8.3799301147e+01    1.2484481812e+02
    8.3899200439e+01    2.7345331192e+01
    8.3999298096e+01   -8.2383125305e+01
    8.4099296570e+01   -2.0198004150e+02
    8.4199096680e+01   -3.2844754028e+02
    8.4299201965e+01   -4.5826034546e+02
    8.4399200439e+01   -5.8752728271e+02
    8.4499198914e+01   -7.1215679932e+02
    8.4599197388e+01   -8.2800000000e+02
    8.4699096680e+01   -9.3097589111e+02
    8.4799102783e+01   -1.0171437988e+03
    8.4899200439e+01   -1.0827674561e+03
    8.4999198914e+01   -1.1244437256e+03
    8.5099197388e+01   -1.1392441406e+03
    8.5199203491e+01   -1.1248068848e+03
    8.5299102783e+01   -1.0793995361e+03
    8.5399200439e+01   -1.0019818115e+03
    8.5499298096e+01   -8.9228112793e+02
    8.5599098206e+01   -7.5087298584e+02
    8.5699203491e+01   -5.7923034668e+02
    8.5799102783e+01   -3.7971832275e+02
    8.5899101257e+01   -1.5555020142e+02
    8.5999198914e+01    8.9264801025e+01
    8.6099098206e+01    3.4999176025e+02
    8.6199203491e+01    6.2130438232e+02
    8.6299201965e+01    8.9749072266e+02
    8.6399200439e+01    1.1727065430e+03
    8.6499198914e+01    1.4412622070e+03
    8.6599098206e+01    1.6979145508e+03
    8.6699096680e+01    1.9381455078e+03
    8.6799201965e+01    2.1584333496e+03
    8.6899101257e+01    2.3564992676e+03
    8.6999198914e+01    2.5315021973e+03
    8.7099098206e+01    2.6841542969e+03
    8.7199096680e+01    2.8167446289e+03
    8.7299102783e+01    2.9330705566e+03
    8.7399200439e+01    3.0382597656e+03
    8.7499198914e+01    3.1384916992e+03
    8.7599098206e+01    3.2406477051e+03
    8.7699096680e+01    3.3519013672e+03
    8.7799201965e+01    3.4792744141e+03
    8.7899101257e+01    3.6292055664e+03
    8.7999198914e+01    3.8071665039e+03
    8.8099098206e+01    4.0173330078e+03
    8.8199096680e+01    4.2623188477e+03
    8.8299102783e+01    4.5429956055e+03
    8.8399101257e+01    4.8584194336e+03
    8.8499198914e+01    5.2058754883e+03
    8.8598999023e+01    5.5810268555e+03
    8.8699096680e+01    5.9781484375e+03
    8.8799201965e+01    6.3904492188e+03
    8.8899101257e+01    6.8104501953e+03
    8.8999099731e+01    7.2303657227e+03
    8.9099098206e+01    7.6425229492e+03
    8.9198997498e+01    8.0398510742e+03
    8.9299003601e+01    8.4163544922e+03
    8.9399101257e+01    8.7675058594e+03
    8.9499198914e+01    9.0905361328e+03
    8.9599098206e+01    9.3845634766e+03
    8.9699203491e+01    9.6505527344e+03
    8.9799201965e+01    9.8911972656e+03
    8.9899101257e+01    1.0110759766e+04
    8.9999099731e+01    1.0314815430e+04
    9.0099197388e+01    1.0509883789e+04
    9.0199096680e+01    1.0702975586e+04
    9.0299102783e+01    1.0901105469e+04
    9.0399200439e+01    1.1110800781e+04
    9.0499099731e+01    1.1337650391e+04
    9.0599098206e+01    1.1585921875e+04
    9.0698997498e+01    1.1858276367e+04
    9.0799201965e+01    1.2155611328e+04
    9.0899200439e+01    1.2477040039e+04
    9.0999099731e+01    1.2820007812e+04
    9.1099098206e+01    1.3180523438e+04
    9.1199096680e+01    1.3553506836e+04
    9.1299003601e+01    1.3933226562e+04
    9.1399002075e+01    1.4313768555e+04
    9.1499099731e+01    1.4689487305e+04
    9.1598999023e+01    1.5055411133e+04
    9.1699203491e+01    1.5407547852e+04
    9.1799003601e+01    1.5743084961e+04
    9.1899002075e+01    1.6060517578e+04
    9.1999198914e+01    1.6359653320e+04
    9.2099098206e+01    1.6641449219e+04
    9.2198997498e+01    1.6907783203e+04
    9.2299003601e+01    1.7161269531e+04
    9.2399101257e+01    1.7405064453e+04
    9.2499099731e+01    1.7642572266e+04
    9.2599098206e+01    1.7877152344e+04
    9.2698997498e+01    1.8111927734e+04
    9.2799003601e+01    1.8349607422e+04
    9.2899002075e+01    1.8592267578e+04
    9.2999000549e+01    1.8841203125e+04
    9.3099098206e+01    1.9096933594e+04
    9.3198997498e+01    1.9359300781e+04
    9.3299102783e+01    1.9627599609e+04
    9.3399101257e+01    1.9900708984e+04
    9.3499000549e+01    2.0177226562e+04
    9.3598999023e+01    2.0455615234e+04
    9.3699096680e+01    2.0734347656e+04
    9.3799102783e+01    2.1011976562e+04
    9.3899002075e+01    2.1287074219e+04
    9.3999099731e+01    2.1558082031e+04
    9.4099098206e+01    2.1823279297e+04
    9.4198997498e+01    2.2080951172e+04
    9.4299003601e+01    2.2329621094e+04
    9.4399002075e+01    2.2568230469e+04
    9.4499099731e+01    2.2796273438e+04
    9.4598999023e+01    2.3013880859e+04
    9.4699096680e+01    2.3221802734e+04
    9.4799003601e+01    2.3421263672e+04
    9.4899101257e+01    2.3613787109e+04
    9.4999000549e+01    2.3801044922e+04
    9.5099098206e+01    2.3984666016e+04
    9.5198997498e+01    2.4166083984e+04
    9.5299102783e+01    2.4346513672e+04
    9.5399101257e+01    2.4526974609e+04
    9.5499000549e+01    2.4708292969e+04
    9.5599098206e+01    2.4891083984e+04
    9.5698997498e+01    2.5075707031e+04
    9.5799003601e+01    2.5262179688e+04
    9.5899101257e+01    2.5450113281e+04
    9.5998901367e+01    2.5638738281e+04
    9.6098999023e+01    2.5826976562e+04
    9.6198898315e+01    2.6013523438e+04
    9.6299003601e+01    2.6196917969e+04
    9.6399101257e+01    2.6375533203e+04
    9.6499099731e+01    2.6547537109e+04
    9.6598999023e+01    2.6710957031e+04
    9.6698997498e+01    2.6863906250e+04
    9.6799003601e+01    2.7004855469e+04
    9.6899002075e+01    2.7132853516e+04
    9.6999000549e+01    2.7247667969e+04
    9.7098899841e+01    2.7349855469e+04
    9.7198898315e+01    2.7440755859e+04
    9.7299003601e+01    2.7522417969e+04
    9.7398902893e+01    2.7597470703e+04
    9.7499099731e+01    2.7668921875e+04
    9.7598999023e+01    2.7739894531e+04
    9.7698898315e+01    2.7813345703e+04
    9.7798896790e+01    2.7891781250e+04
    9.7899002075e+01    2.7977025391e+04
    9.7998901367e+01    2.8070050781e+04
    9.8098999023e+01    2.8170896484e+04
    9.8198997498e+01    2.8278673828e+04
    9.8299003601e+01    2.8391628906e+04
    9.8398902893e+01    2.8507261719e+04
    9.8499099731e+01    2.8622505859e+04
    9.8598999023e+01    2.8733978516e+04
    9.8698997498e+01    2.8838259766e+04
    9.8799003601e+01    2.8932175781e+04
    9.8898902893e+01    2.9013068359e+04
    9.8998901367e+01    2.9079048828e+04
    9.9098999023e+01    2.9129185547e+04
    9.9198898315e+01    2.9163601562e+04
    9.9299003601e+01    2.9183478516e+04
    9.9399002075e+01    2.9190972656e+04
    9.9498901367e+01    2.9189021484e+04
    9.9598899841e+01    2.9181052734e+04
    9.9698997498e+01    2.9170619141e+04
    9.9799003601e+01    2.9161013672e+04
    9.9898902893e+01    2.9154914062e+04
    9.9999000549e+01    2.9154113281e+04
    1.0009899902e+02    2.9159345703e+04
    1.0019899750e+02    2.9170250000e+04
    1.0029900360e+02    2.9185462891e+04
    1.0039900208e+02    2.9202830078e+04
    1.0049900055e+02    2.9219705078e+04
    1.0059899902e+02    2.9233287109e+04
    1.0069899750e+02    2.9240931641e+04
    1.0079900360e+02    2.9240416016e+04
    1.0089900208e+02    2.9230144531e+04
    1.0099900055e+02    2.9209273438e+04
    1.0109899902e+02    2.9177763672e+04
    1.0119899750e+02    2.9136337891e+04
    1.0129900360e+02    2.9086341797e+04
    1.0139900208e+02    2.9029533203e+04
    1.0149900055e+02    2.8967832031e+04
    1.0159899902e+02    2.8903066406e+04
    1.0169899750e+02    2.8836751953e+04
    1.0179900360e+02    2.8769919922e+04
    1.0189900208e+02    2.8703035156e+04
    1.0199900055e+02    2.8635992188e+04
    1.0209899902e+02    2.8568195312e+04
    1.0219899750e+02    2.8498710938e+04
    1.0229900360e+02    2.8426445312e+04
    1.0239900208e+02    2.8350335938e+04
    1.0249900055e+02    2.8269513672e+04
    1.0259899902e+02    2.8183421875e+04
    1.0269899750e+02    2.8091865234e+04
    1.0279900360e+02    2.7994988281e+04
    1.0289900208e+02    2.7893201172e+04
    1.0299900055e+02    2.7787052734e+04
    1.0309899902e+02    2.7677095703e+04
    1.0319899750e+02    2.7563750000e+04
    1.0329900360e+02    2.7447210938e+04
    1.0339900208e+02    2.7327392578e+04
    1.0349900055e+02    2.7203933594e+04
    1.0359899902e+02    2.7076250000e+04
    1.0369899750e+02    2.6943642578e+04
    1.0379900360e+02    2.6805425781e+04
    1.0389900208e+02    2.6661066406e+04
    1.0399900055e+02    2.6510304688e+04
    1.0409899902e+02    2.6353240234e+04
    1.0419899750e+02    2.6190380859e+04
    1.0429900360e+02    2.6022632812e+04
    1.0439900208e+02    2.5851228516e+04
    1.0449900055e+02    2.5677613281e+04
    1.0459899902e+02    2.5503287109e+04
    1.0469899750e+02    2.5329625000e+04
    1.0479900360e+02    2.5157705078e+04
    1.0489900208e+02    2.4988142578e+04
    1.0499900055e+02    2.4820933594e+04
    1.0509899902e+02    2.4655376953e+04
    1.0519899750e+02    2.4490119141e+04
    1.0529900360e+02    2.4323298828e+04
    1.0539900208e+02    2.4152759766e+04
    1.0549900055e+02    2.3976306641e+04
    1.0559899902e+02    2.3791962891e+04
    1.0569899750e+02    2.3598210938e+04
    1.0579900360e+02    2.3394179688e+04
    1.0589900208e+02    2.3179755859e+04
    1.0599900055e+02    2.2955605469e+04
    1.0609899902e+02    2.2723097656e+04
    1.0619899750e+02    2.2484154297e+04
    1.0629900360e+02    2.2241039062e+04
    1.0639900208e+02    2.1996123047e+04
    1.0649900055e+02    2.1751646484e+04
    1.0659899902e+02    2.1509492188e+04
    1.0669899750e+02    2.1271009766e+04
    1.0679900360e+02    2.1036894531e+04
    1.0689900208e+02    2.0807138672e+04
    1.0699900055e+02    2.0581052734e+04
    1.0709899902e+02    2.0357357422e+04
    1.0719899750e+02    2.0134322266e+04
    1.0729900360e+02    1.9909949219e+04
    1.0739900208e+02    1.9682173828e+04
    1.0749900055e+02    1.9449068359e+04
    1.0759899902e+02    1.9209031250e+04
    1.0769899750e+02    1.8960935547e+04
    1.0779900360e+02    1.8704226562e+04
    1.0789900208e+02    1.8438960938e+04
    1.0799900055e+02    1.8165789062e+04
    1.0809899902e+02    1.7885875000e+04
    1.0819899750e+02    1.7600773438e+04
    1.0829900360e+02    1.7312275391e+04
    1.0839900208e+02    1.7022248047e+04
    1.0849900055e+02    1.6732480469e+04
    1.0859899902e+02    1.6444542969e+04
    1.0869899750e+02    1.6159669922e+04
    1.0879900360e+02    1.5878670898e+04
    1.0889900208e+02    1.5601887695e+04
    1.0899900055e+02    1.5329191406e+04
    1.0909899902e+02    1.5060019531e+04
    1.0919899750e+02    1.4793439453e+04
    1.0929900360e+02    1.4528240234e+04
    1.0939900208e+02    1.4263043945e+04
    1.0949900055e+02    1.3996424805e+04
    1.0959899902e+02    1.3727030273e+04
    1.0969899750e+02    1.3453684570e+04
    1.0979900360e+02    1.3175471680e+04
    1.0989900208e+02    1.2891791992e+04
    1.0999900055e+02    1.2602391602e+04
    1.1009899902e+02    1.2307364258e+04
    1.1019899750e+02    1.2007132812e+04
    1.1029900360e+02    1.1702420898e+04
    1.1039900208e+02    1.1394203125e+04
    1.1049900055e+02    1.1083641602e+04
    1.1059899902e+02    1.0772011719e+04
    1.1069899750e+02    1.0460625000e+04
    1.1079900360e+02    1.0150747070e+04
    1.1089900208e+02    9.8435361328e+03
    1.1099900055e+02    9.5400146484e+03
    1.1109899902e+02    9.2410517578e+03
    1.1119899750e+02    8.9473339844e+03
    1.1129900360e+02    8.6593339844e+03
    1.1139900208e+02    8.3772871094e+03
    1.1149900055e+02    8.1011777344e+03
    1.1159899902e+02    7.8307431641e+03
    1.1169899750e+02    7.5654921875e+03
    1.1179900360e+02    7.3047426758e+03
    1.1189900208e+02    7.0476767578e+03
    1.1199900055e+02    6.7934072266e+03
    1.1209899902e+02    6.5410346680e+03
    1.1219899750e+02    6.2896708984e+03
    1.1229900360e+02    6.0384409180e+03
    1.1239900208e+02    5.7864902344e+03
    1.1249900055e+02    5.5330097656e+03
    1.1259899902e+02    5.2772802734e+03
    1.1269899750e+02    5.0187265625e+03
    1.1279900360e+02    4.7569619141e+03
    1.1289900208e+02    4.4918144531e+03
    1.1299900055e+02    4.2233471680e+03
    1.1309899902e+02    3.9518898926e+03
    1.1319899750e+02    3.6780773926e+03
    1.1329900360e+02    3.4028554688e+03
    1.1339900208e+02    3.1274787598e+03
    1.1349900055e+02    2.8535231934e+03
    1.1359899902e+02    2.5828393555e+03
    1.1369899750e+02    2.3174113770e+03
    1.1379900360e+02    2.0592011719e+03
    1.1389900208e+02    1.8100415039e+03
    1.1399900055e+02    1.5715831299e+03
    1.1409899902e+02    1.3452628174e+03
    1.1419899750e+02    1.1322758789e+03
    1.1429900360e+02    9.3356408691e+02
    1.1439900208e+02    7.4982330322e+02
    1.1449900055e+02    5.8152435303e+02
    1.1459899902e+02    4.2893536377e+02
    1.1469899750e+02    2.9213430786e+02
    1.1479900360e+02    1.7102102661e+02
    1.1489900208e+02    6.5339767456e+01
    1.1499900055e+02   -2.5308252335e+01
    1.1509899902e+02   -1.0146739197e+02
    1.1519899750e+02   -1.6382254028e+02
    1.1529900360e+02   -2.1318699646e+02
    1.1539900208e+02   -2.5050714111e+02
    1.1549900055e+02   -2.7688583374e+02
    1.1559899902e+02   -2.9358258057e+02
    1.1569899750e+02   -3.0196359253e+02
    1.1579900360e+02   -3.0343283081e+02
    1.1589900208e+02   -2.9937405396e+02
    1.1599900055e+02   -2.9110113525e+02
    1.1609899902e+02   -2.7981649780e+02
    1.1619899750e+02   -2.6658581543e+02
    1.1629900360e+02   -2.5233311462e+02
    1.1639900208e+02   -2.3784062195e+02
    1.1649900055e+02   -2.2374687195e+02
    1.1659899902e+02   -2.1056031799e+02
    1.1669899750e+02   -1.9867958069e+02
    1.1679900360e+02   -1.8840420532e+02
    1.1689900208e+02   -1.7994447327e+02
    1.1699900055e+02   -1.7343089294e+02
    1.1709899902e+02   -1.6892488098e+02
    1.1719899750e+02   -1.6643568420e+02
    1.1729900360e+02   -1.6592884827e+02
    1.1739900208e+02   -1.6733108521e+02
    1.1749900055e+02   -1.7053787231e+02
    1.1759899902e+02   -1.7541654968e+02
    1.1769899750e+02   -1.8181388855e+02
    1.1779900360e+02   -1.8956069946e+02
    1.1789900208e+02   -1.9847532654e+02
    1.1799900055e+02   -2.0837922668e+02
    1.1809899902e+02   -2.1910264587e+02
    1.1819899750e+02   -2.3048248291e+02
    1.1829900360e+02   -2.4236750793e+02
    1.1839900208e+02   -2.5462040710e+02
    1.1849900055e+02   -2.6712127686e+02
    1.1859899902e+02   -2.7976745605e+02
    1.1869899750e+02   -2.9246813965e+02
    1.1879900360e+02   -3.0514907837e+02
    1.1889900208e+02   -3.1775366211e+02
    1.1899900055e+02   -3.3023779297e+02
    1.1909899902e+02   -3.4256884766e+02
    1.1919899750e+02   -3.5472314453e+02
    1.1929900360e+02   -3.6668923950e+02
    1.1939900208e+02   -3.7846981812e+02
    1.1949900055e+02   -3.9007507324e+02
    1.1959899902e+02   -4.0152511597e+02
    1.1969899750e+02   -4.1285330200e+02
    1.1979900360e+02   -4.2409838867e+02
    1.1989900208e+02   -4.3529904175e+02
    1.1999900055e+02   -4.4649652100e+02
    1.2009899902e+02   -4.5773559570e+02
    1.2019899750e+02   -4.6905895996e+02
    1.2029900360e+02   -4.8050384521e+02
    1.2039900208e+02   -4.9210202026e+02
    1.2049900055e+02   -5.0387686157e+02
    1.2059899902e+02   -5.1584283447e+02
    1.2069899750e+02   -5.2800555420e+02
    1.2079900360e+02   -5.4036053467e+02
    1.2089900208e+02   -5.5289404297e+02
    1.2099900055e+02   -5.6558483887e+02
    1.2109899902e+02   -5.7840814209e+02
    1.2119899750e+02   -5.9133496094e+02
    1.2129900360e+02   -6.0433398438e+02
    1.2139900208e+02   -6.1738104248e+02
    1.2149900055e+02   -6.3046026611e+02
    1.2159899902e+02   -6.4356127930e+02
    1.2169899750e+02   -6.5667932129e+02
    1.2179900360e+02   -6.6981439209e+02
    1.2189900208e+02   -6.8296850586e+02
    1.2199900055e+02   -6.9614050293e+02
    1.2209899902e+02   -7.0932641602e+02
    1.2219899750e+02   -7.2252679443e+02
    1.2229900360e+02   -7.3574450684e+02
    1.2239900208e+02   -7.4897985840e+02
    1.2249900055e+02   -7.6223547363e+02
    1.2259899902e+02   -7.7552050781e+02
    1.2269899750e+02   -7.8885229492e+02
    1.2279900360e+02   -8.0225787354e+02
    1.2289900208e+02   -8.1577062988e+02
    1.2299900055e+02   -8.2943225098e+02
    1.2309899902e+02   -8.4329718018e+02
    1.2319899750e+02   -8.5742773438e+02
    1.2329900360e+02   -8.7189715576e+02
    1.2339900208e+02   -8.8679016113e+02
    1.2349900055e+02   -9.0218731689e+02
    1.2359899902e+02   -9.1816009521e+02
    1.2369899750e+02   -9.3476837158e+02
    1.2379900360e+02   -9.5205163574e+02
    1.2389900208e+02   -9.7002722168e+02
    1.2399900055e+02   -9.8868280029e+02
    1.2409899902e+02   -1.0079694824e+03
    1.2419899750e+02   -1.0278034668e+03
    1.2429900360e+02   -1.0480567627e+03
    1.2439900208e+02   -1.0685537109e+03
    1.2449900055e+02   -1.0890805664e+03
    1.2459899902e+02   -1.1093854980e+03
    1.2469799805e+02   -1.1291805420e+03
    1.2479900360e+02   -1.1481518555e+03
    1.2489900208e+02   -1.1659635010e+03
    1.2499800110e+02   -1.1822679443e+03
    1.2509899902e+02   -1.1967224121e+03
    1.2519799805e+02   -1.2090012207e+03
    1.2529900360e+02   -1.2188175049e+03
    1.2539900208e+02   -1.2259478760e+03
    1.2549900055e+02   -1.2302633057e+03
    1.2559799957e+02   -1.2317657471e+03
    1.2569799805e+02   -1.2306197510e+03
    1.2579900360e+02   -1.2272023926e+03
    1.2589800262e+02   -1.2221665039e+03
    1.2599900055e+02   -1.2164916992e+03
    1.2609799957e+02   -1.2115292969e+03
    1.2619899750e+02   -1.2090294189e+03
    1.2629900360e+02   -1.2111507568e+03
    1.2639800262e+02   -1.2204654541e+03
    1.2649900055e+02   -1.2399340820e+03
    1.2659899902e+02   -1.2728566895e+03
    1.2669899750e+02   -1.3228029785e+03
    1.2679900360e+02   -1.3934979248e+03
    1.2689900208e+02   -1.4886693115e+03
    1.2699900055e+02   -1.6118547363e+03
    1.2709899902e+02   -1.7661542969e+03
    1.2719799805e+02   -1.9539393311e+03
    1.2729799652e+02   -2.1765134277e+03
    1.2739900208e+02   -2.4337199707e+03
    1.2749900055e+02   -2.7235141602e+03
    1.2759899902e+02   -3.0415073242e+03
    1.2769899750e+02   -3.3804953613e+03
    1.2779900360e+02   -3.7300976562e+03
    1.2789800262e+02   -4.0767751465e+03
    1.2799900055e+02   -4.4044467773e+03
    1.2809899902e+02   -4.6957167969e+03
    1.2819900513e+02   -4.9335209961e+03
    1.2829800415e+02   -5.1029013672e+03
    1.2839900208e+02   -5.1926503906e+03
    1.2849899292e+02   -5.1966040039e+03
    1.2859800720e+02   -5.1143999023e+03
    1.2869900513e+02   -4.9515820312e+03
    1.2879899597e+02   -4.7190219727e+03
    1.2889799500e+02   -4.4317963867e+03
    1.2899800110e+02   -4.1077719727e+03
    1.2909800720e+02   -3.7661308594e+03
    1.2919900513e+02   -3.4260346680e+03
    1.2929899597e+02   -3.1055664062e+03
    1.2939900208e+02   -2.8210307617e+03
    1.2949899292e+02   -2.5866093750e+03
    1.2959899902e+02   -2.4142226562e+03
    1.2969900513e+02   -2.3134455566e+03
    1.2979899597e+02   -2.2914345703e+03
    1.2989900208e+02   -2.3528525391e+03
    1.2999899292e+02   -2.4997626953e+03
    1.3009899902e+02   -2.7314716797e+03
    1.3019900513e+02   -3.0443300781e+03
    1.3029899597e+02   -3.4315434570e+03
    1.3039900208e+02   -3.8830390625e+03
    1.3049899292e+02   -4.3854438477e+03
    1.3059899902e+02   -4.9223164062e+03
    1.3069900513e+02   -5.4747294922e+03
    1.3079899597e+02   -6.0222016602e+03
    1.3089900208e+02   -6.5439423828e+03
    1.3099899292e+02   -7.0203500977e+03
    1.3109899902e+02   -7.4346420898e+03
    1.3119900513e+02   -7.7744038086e+03
    1.3129899597e+02   -8.0328188477e+03
    1.3139900208e+02   -8.2094013672e+03
    1.3149899292e+02   -8.3101630859e+03
    1.3159899902e+02   -8.3472138672e+03
    1.3169900513e+02   -8.3378066406e+03
    1.3179899597e+02   -8.3028662109e+03
    1.3189900208e+02   -8.2651640625e+03
    1.3199899292e+02   -8.2473505859e+03
    1.3209899902e+02   -8.2700117188e+03
    1.3219900513e+02   -8.3499072266e+03
    1.3229899597e+02   -8.4985527344e+03
    1.3239900208e+02   -8.7212460938e+03
    1.3249899292e+02   -9.0165878906e+03
    1.3259899902e+02   -9.3765302734e+03
    1.3269900513e+02   -9.7869863281e+03
    1.3279899597e+02   -1.0228944336e+04
    1.3289900208e+02   -1.0679986328e+04
    1.3299899292e+02   -1.1116091797e+04
    1.3309899902e+02   -1.1513591797e+04
    1.3319900513e+02   -1.1851114258e+04
    1.3329899597e+02   -1.2111366211e+04
    1.3339900208e+02   -1.2282556641e+04
    1.3349899292e+02   -1.2359305664e+04
    1.3359899902e+02   -1.2343070312e+04
    1.3369900513e+02   -1.2242169922e+04
    1.3379899597e+02   -1.2071283203e+04
    1.3389900208e+02   -1.1850360352e+04
    1.3399899292e+02   -1.1603062500e+04
    1.3409899902e+02   -1.1354900391e+04
    1.3419900513e+02   -1.1131268555e+04
    1.3429899597e+02   -1.0955569336e+04
    1.3439900208e+02   -1.0847586914e+04
    1.3449899292e+02   -1.0822175781e+04
    1.3459899902e+02   -1.0888337891e+04
    1.3469900513e+02   -1.1048750977e+04
    1.3479899597e+02   -1.1299769531e+04
    1.3489900208e+02   -1.1631896484e+04
    1.3499899292e+02   -1.2030673828e+04
    1.3509899902e+02   -1.2477920898e+04
    1.3519900513e+02   -1.2953207031e+04
    1.3529899597e+02   -1.3435421875e+04
    1.3539900208e+02   -1.3904315430e+04
    1.3549899292e+02   -1.4341891602e+04
    1.3559899902e+02   -1.4733586914e+04
    1.3569900513e+02   -1.5069187500e+04
    1.3579899597e+02   -1.5343385742e+04
    1.3589900208e+02   -1.5555913086e+04
    1.3599899292e+02   -1.5711277344e+04
    1.3609899902e+02   -1.5818107422e+04
    1.3619900513e+02   -1.5888141602e+04
    1.3629899597e+02   -1.5934959961e+04
    1.3639900208e+02   -1.5972581055e+04
    1.3649899292e+02   -1.6014067383e+04
    1.3659899902e+02   -1.6070277344e+04
    1.3669900513e+02   -1.6148868164e+04
    1.3679899597e+02   -1.6253642578e+04
    1.3689900208e+02   -1.6384294922e+04
    1.3699899292e+02   -1.6536583984e+04
    1.3709899902e+02   -1.6702912109e+04
    1.3719900513e+02   -1.6873197266e+04
    1.3729899597e+02   -1.7035951172e+04
    1.3739900208e+02   -1.7179460938e+04
    1.3749899292e+02   -1.7292921875e+04
    1.3759899902e+02   -1.7367455078e+04
    1.3769900513e+02   -1.7397021484e+04
    1.3779899597e+02   -1.7379162109e+04
    1.3789900208e+02   -1.7315423828e+04
    1.3799899292e+02   -1.7211406250e+04
    1.3809899902e+02   -1.7076400391e+04
    1.3819900513e+02   -1.6922656250e+04
    1.3829899597e+02   -1.6764349609e+04
    1.3839900208e+02   -1.6616359375e+04
    1.3849899292e+02   -1.6493009766e+04
    1.3859899902e+02   -1.6406892578e+04
    1.3869900513e+02   -1.6367873047e+04
    1.3879899597e+02   -1.6382346680e+04
    1.3889900208e+02   -1.6452800781e+04
    1.3899899292e+02   -1.6577716797e+04
    1.3909899902e+02   -1.6751828125e+04
    1.3919900513e+02   -1.6966673828e+04
    1.3929899597e+02   -1.7211386719e+04
    1.3939900208e+02   -1.7473615234e+04
    1.3949899292e+02   -1.7740494141e+04
    1.3959899902e+02   -1.7999582031e+04
    1.3969900513e+02   -1.8239712891e+04
    1.3979899597e+02   -1.8451683594e+04
    1.3989900208e+02   -1.8628730469e+04
    1.3999899292e+02   -1.8766761719e+04
    1.4009899902e+02   -1.8864376953e+04
    1.4019900513e+02   -1.8922669922e+04
    1.4029899597e+02   -1.8944832031e+04
    1.4039900208e+02   -1.8935621094e+04
    1.4049899292e+02   -1.8900742188e+04
    1.4059899902e+02   -1.8846214844e+04
    1.4069900513e+02   -1.8777796875e+04
    1.4079899597e+02   -1.8700509766e+04
    1.4089900208e+02   -1.8618300781e+04
    1.4099899292e+02   -1.8533857422e+04
    1.4109899902e+02   -1.8448570312e+04
    1.4119900513e+02   -1.8362625000e+04
    1.4129899597e+02   -1.8275195312e+04
    1.4139900208e+02   -1.8184716797e+04
    1.4149899292e+02   -1.8089201172e+04
    1.4159899902e+02   -1.7986548828e+04
    1.4169900513e+02   -1.7874855469e+04
    1.4179899597e+02   -1.7752667969e+04
    1.4189900208e+02   -1.7619183594e+04
    1.4199899292e+02   -1.7474392578e+04
    1.4209899902e+02   -1.7319158203e+04
    1.4219900513e+02   -1.7155253906e+04
    1.4229899597e+02   -1.6985330078e+04
    1.4239900208e+02   -1.6812828125e+04
    1.4249899292e+02   -1.6641828125e+04
    1.4259899902e+02   -1.6476839844e+04
    1.4269900513e+02   -1.6322559570e+04
    1.4279899597e+02   -1.6183589844e+04
    1.4289900208e+02   -1.6064136719e+04
    1.4299899292e+02   -1.5967699219e+04
    1.4309899902e+02   -1.5896762695e+04
    1.4319900513e+02   -1.5852514648e+04
    1.4330000305e+02   -1.5834617188e+04
    1.4339900208e+02   -1.5841056641e+04
    1.4349899292e+02   -1.5868092773e+04
    1.4359899902e+02   -1.5910338867e+04
    1.4369900513e+02   -1.5960981445e+04
    1.4380000305e+02   -1.6012145508e+04
    1.4389900208e+02   -1.6055369141e+04
    1.4399899292e+02   -1.6082165039e+04
    1.4409899902e+02   -1.6084622070e+04
    1.4419900513e+02   -1.6055998047e+04
    1.4430000305e+02   -1.5991244141e+04
    1.4439900208e+02   -1.5887415039e+04
    1.4449899292e+02   -1.5743916016e+04
    1.4460000610e+02   -1.5562545898e+04
    1.4469999695e+02   -1.5347325195e+04
    1.4479899597e+02   -1.5104111328e+04
    1.4489900208e+02   -1.4840057617e+04
    1.4499899292e+02   -1.4562996094e+04
    1.4510000610e+02   -1.4280795898e+04
    1.4519999695e+02   -1.4000770508e+04
    1.4530000305e+02   -1.3729188477e+04
    1.4539900208e+02   -1.3470897461e+04
    1.4550000000e+02   -1.3229084961e+04
    1.4560000610e+02   -1.3005185547e+04
    1.4569999695e+02   -1.2798929688e+04
    1.4580000305e+02   -1.2608532227e+04
    1.4589999390e+02   -1.2431009766e+04
    1.4600000000e+02   -1.2262594727e+04
    1.4610000610e+02   -1.2099199219e+04
    1.4619999695e+02   -1.1936902344e+04
    1.4630000305e+02   -1.1772399414e+04
    1.4639999390e+02   -1.1603365234e+04
    1.4650000000e+02   -1.1428705078e+04
    1.4660000610e+02   -1.1248668945e+04
    1.4669999695e+02   -1.1064826172e+04
    1.4680000305e+02   -1.0879908203e+04
    1.4689999390e+02   -1.0697534180e+04
    1.4700000000e+02   -1.0521830078e+04
    1.4710000610e+02   -1.0356978516e+04
    1.4719999695e+02   -1.0206763672e+04
    1.4730000305e+02   -1.0074152344e+04
    1.4739999390e+02   -9.9609375000e+03
    1.4750000000e+02   -9.8674775391e+03
    1.4760000610e+02   -9.7925605469e+03
    1.4769999695e+02   -9.7333867188e+03
    1.4780000305e+02   -9.6856679688e+03
    1.4789999390e+02   -9.6438593750e+03
    1.4800000000e+02   -9.6015205078e+03
    1.4810000610e+02   -9.5517724609e+03
    1.4819999695e+02   -9.4878281250e+03
    1.4830000305e+02   -9.4035439453e+03
    1.4839999390e+02   -9.2939326172e+03
    1.4850000000e+02   -9.1555820312e+03
    1.4860000610e+02   -8.9869414062e+03
    1.4869999695e+02   -8.7884433594e+03
    1.4880000305e+02   -8.5624550781e+03
    1.4889999390e+02   -8.3130761719e+03
    1.4900000000e+02   -8.0458300781e+03
    1.4910000610e+02   -7.7672836914e+03
    1.4919999695e+02   -7.4846049805e+03
    1.4930000305e+02   -7.2050991211e+03
    1.4939999390e+02   -6.9357622070e+03
    1.4950000000e+02   -6.6828754883e+03
    1.4960000610e+02   -6.4516606445e+03
    1.4969999695e+02   -6.2460185547e+03
    1.4980000305e+02   -6.0683764648e+03
    1.4989999390e+02   -5.9196513672e+03
    1.5000000000e+02   -5.7993100586e+03
    1.5010000610e+02   -5.7054941406e+03
    1.5019999695e+02   -5.6352055664e+03
    1.5030000305e+02   -5.5845488281e+03
    1.5039999390e+02   -5.5490205078e+03
    1.5050000000e+02   -5.5238320312e+03
    1.5060000610e+02   -5.5042441406e+03
    1.5069999695e+02   -5.4858784180e+03
    1.5080000305e+02   -5.4649858398e+03
    1.5089999390e+02   -5.4386489258e+03
    1.5100000000e+02   -5.4048969727e+03
    1.5110000610e+02   -5.3627260742e+03
    1.5119999695e+02   -5.3120361328e+03
    1.5130000305e+02   -5.2535087891e+03
    1.5139999390e+02   -5.1884501953e+03
    1.5150000000e+02   -5.1186123047e+03
    1.5160000610e+02   -5.0459907227e+03
    1.5169999695e+02   -4.9726137695e+03
    1.5180000305e+02   -4.9003530273e+03
    1.5189999390e+02   -4.8307666016e+03
    1.5200000000e+02   -4.7649804688e+03
    1.5210000610e+02   -4.7036074219e+03
    1.5219999695e+02   -4.6467124023e+03
    1.5230000305e+02   -4.5938286133e+03
    1.5239999390e+02   -4.5440136719e+03
    1.5250000000e+02   -4.4959438477e+03
    1.5260000610e+02   -4.4480439453e+03
    1.5269999695e+02   -4.3986396484e+03
    1.5280000305e+02   -4.3461250000e+03
    1.5289999390e+02   -4.2891279297e+03
    1.5300000000e+02   -4.2266640625e+03
    1.5310000610e+02   -4.1582680664e+03
    1.5319999695e+02   -4.0840888672e+03
    1.5330000305e+02   -4.0049355469e+03
    1.5339999390e+02   -3.9222734375e+03
    1.5350000000e+02   -3.8381696777e+03
    1.5360000610e+02   -3.7551889648e+03
    1.5369999695e+02   -3.6762541504e+03
    1.5380000305e+02   -3.6044919434e+03
    1.5389999390e+02   -3.5430676270e+03
    1.5400000000e+02   -3.4950024414e+03
    1.5410000610e+02   -3.4629753418e+03
    1.5419999695e+02   -3.4491340332e+03
    1.5430000305e+02   -3.4549357910e+03
    1.5439999390e+02   -3.4810202637e+03
    1.5450000000e+02   -3.5271154785e+03
    1.5460000610e+02   -3.5919758301e+03
    1.5469999695e+02   -3.6733601074e+03
    1.5480000305e+02   -3.7680734863e+03
    1.5489999390e+02   -3.8720917969e+03
    1.5500000000e+02   -3.9807644043e+03
    1.5510000610e+02   -4.0890769043e+03
    1.5519999695e+02   -4.1919570312e+03
    1.5530000305e+02   -4.2846044922e+03
    1.5539999390e+02   -4.3628125000e+03
    1.5550000000e+02   -4.4232592773e+03
    1.5560000610e+02   -4.4637524414e+03
    1.5569999695e+02   -4.4833935547e+03
    1.5580000305e+02   -4.4826440430e+03
    1.5589999390e+02   -4.4632924805e+03
    1.5600000000e+02   -4.4283256836e+03
    1.5610000610e+02   -4.3817167969e+03
    1.5619999695e+02   -4.3281411133e+03
    1.5630000305e+02   -4.2726445312e+03
    1.5639999390e+02   -4.2202954102e+03
    1.5650000000e+02   -4.1758491211e+03
    1.5660000610e+02   -4.1434550781e+03
    1.5669999695e+02   -4.1264238281e+03
    1.5680000305e+02   -4.1270761719e+03
    1.5689999390e+02   -4.1466640625e+03
    1.5700000000e+02   -4.1853442383e+03
    1.5710000610e+02   -4.2422163086e+03
    1.5719999695e+02   -4.3154331055e+03
    1.5730000305e+02   -4.4023681641e+03
    1.5739999390e+02   -4.4998266602e+03
    1.5750000000e+02   -4.6042875977e+03
    1.5760000610e+02   -4.7121533203e+03
    1.5769999695e+02   -4.8199916992e+03
    1.5780000305e+02   -4.9247592773e+03
    1.5789999390e+02   -5.0239785156e+03
    1.5800000000e+02   -5.1158662109e+03
    1.5810000610e+02   -5.1994057617e+03
    1.5819999695e+02   -5.2743579102e+03
    1.5830000305e+02   -5.3412119141e+03
    1.5839999390e+02   -5.4010883789e+03
    1.5850000000e+02   -5.4555976562e+03
    1.5860000610e+02   -5.5066689453e+03
    1.5869999695e+02   -5.5563588867e+03
    1.5880000305e+02   -5.6066606445e+03
    1.5889999390e+02   -5.6593242188e+03
    1.5900000000e+02   -5.7157084961e+03
    1.5910000610e+02   -5.7766752930e+03
    1.5919999695e+02   -5.8425322266e+03
    1.5930000305e+02   -5.9130297852e+03
    1.5939999390e+02   -5.9874125977e+03
    1.5950000000e+02   -6.0645107422e+03
    1.5960000610e+02   -6.1428593750e+03
    1.5969999695e+02   -6.2208388672e+03
    1.5980000305e+02   -6.2968344727e+03
    1.5989999390e+02   -6.3693969727e+03
    1.6000000000e+02   -6.4373876953e+03
    1.6010000610e+02   -6.5000952148e+03
    1.6020100403e+02   -6.5573271484e+03
    1.6030000305e+02   -6.6094663086e+03
    1.6039999390e+02   -6.6574790039e+03
    1.6050100708e+02   -6.7028676758e+03
    1.6060000610e+02   -6.7475776367e+03
    1.6070100403e+02   -6.7938583984e+03
    1.6080000305e+02   -6.8440932617e+03
    1.6089999390e+02   -6.9006098633e+03
    1.6100000000e+02   -6.9654897461e+03
    1.6110000610e+02   -7.0403994141e+03
    1.6119999695e+02   -7.1264506836e+03
    1.6130099487e+02   -7.2241000977e+03
    1.6140100098e+02   -7.3330976562e+03
    1.6150100708e+02   -7.4524882812e+03
    1.6160099792e+02   -7.5806611328e+03
    1.6170100403e+02   -7.7154433594e+03
    1.6180099487e+02   -7.8542250977e+03
    1.6190100098e+02   -7.9941137695e+03
    1.6200000000e+02   -8.1321147461e+03
    1.6210099792e+02   -8.2653261719e+03
    1.6220100403e+02   -8.3911308594e+03
    1.6230099487e+02   -8.5073671875e+03
    1.6240100098e+02   -8.6124687500e+03
    1.6250100708e+02   -8.7055634766e+03
    1.6260099792e+02   -8.7865185547e+03
    1.6270100403e+02   -8.8559306641e+03
    1.6280099487e+02   -8.9150693359e+03
    1.6290100098e+02   -8.9657763672e+03
    1.6300100708e+02   -9.0103339844e+03
    1.6310099792e+02   -9.0513095703e+03
    1.6320100403e+02   -9.0913886719e+03
    1.6330099487e+02   -9.1332089844e+03
    1.6340100098e+02   -9.1792109375e+03
    1.6350100708e+02   -9.2315097656e+03
    1.6360099792e+02   -9.2917998047e+03
    1.6370100403e+02   -9.3612919922e+03
    1.6380099487e+02   -9.4406787109e+03
    1.6390100098e+02   -9.5301269531e+03
    1.6400100708e+02   -9.6293007812e+03
    1.6410099792e+02   -9.7374169922e+03
    1.6420100403e+02   -9.8533115234e+03
    1.6430099487e+02   -9.9755068359e+03
    1.6440100098e+02   -1.0102281250e+04
    1.6450100708e+02   -1.0231777344e+04
    1.6460099792e+02   -1.0362128906e+04
    1.6470100403e+02   -1.0491581055e+04
    1.6480099487e+02   -1.0618577148e+04
    1.6490100098e+02   -1.0741826172e+04
    1.6500100708e+02   -1.0860346680e+04
    1.6510099792e+02   -1.0973488281e+04
    1.6520100403e+02   -1.1080932617e+04
    1.6530099487e+02   -1.1182670898e+04
    1.6540100098e+02   -1.1278963867e+04
    1.6550100708e+02   -1.1370295898e+04
    1.6560099792e+02   -1.1457321289e+04
    1.6570100403e+02   -1.1540808594e+04
    1.6580099487e+02   -1.1621588867e+04
    1.6590100098e+02   -1.1700509766e+04
    1.6600100708e+02   -1.1778399414e+04
    1.6610099792e+02   -1.1856027344e+04
    1.6620100403e+02   -1.1934079102e+04
    1.6630099487e+02   -1.2013143555e+04
    1.6640100098e+02   -1.2093706055e+04
    1.6650100708e+02   -1.2176153320e+04
    1.6660099792e+02   -1.2260783203e+04
    1.6670100403e+02   -1.2347813477e+04
    1.6680099487e+02   -1.2437397461e+04
    1.6690100098e+02   -1.2529625000e+04
    1.6700100708e+02   -1.2624497070e+04
    1.6710099792e+02   -1.2721885742e+04
    1.6720100403e+02   -1.2821525391e+04
    1.6730099487e+02   -1.2923045898e+04
    1.6740100098e+02   -1.3026010742e+04
    1.6750100708e+02   -1.3129953125e+04
    1.6760099792e+02   -1.3234412109e+04
    1.6770100403e+02   -1.3338966797e+04
    1.6780099487e+02   -1.3443260742e+04
    1.6790100098e+02   -1.3547020508e+04
    1.6800100708e+02   -1.3650069336e+04
    1.6810099792e+02   -1.3752330078e+04
    1.6820100403e+02   -1.3853812500e+04
    1.6830099487e+02   -1.3954593750e+04
    1.6840100098e+02   -1.4054791016e+04
    1.6850100708e+02   -1.4154528320e+04
    1.6860099792e+02   -1.4253899414e+04
    1.6870100403e+02   -1.4352932617e+04
    1.6880099487e+02   -1.4451556641e+04
    1.6890100098e+02   -1.4549583984e+04
    1.6900100708e+02   -1.4646711914e+04
    1.6910099792e+02   -1.4742539062e+04
    1.6920100403e+02   -1.4836590820e+04
    1.6930099487e+02   -1.4928356445e+04
    1.6940100098e+02   -1.5017333984e+04
    1.6950100708e+02   -1.5103073242e+04
    1.6960099792e+02   -1.5185232422e+04
    1.6970100403e+02   -1.5263647461e+04
    1.6980099487e+02   -1.5338390625e+04
    1.6990100098e+02   -1.5409804688e+04
    1.7000100708e+02   -1.5478516602e+04
    1.7010099792e+02   -1.5545425781e+04
    1.7020100403e+02   -1.5611668945e+04
    1.7030099487e+02   -1.5678555664e+04
    1.7040100098e+02   -1.5747474609e+04
    1.7050100708e+02   -1.5819779297e+04
    1.7060099792e+02   -1.5896670898e+04
    1.7070100403e+02   -1.5979085938e+04
    1.7080099487e+02   -1.6067596680e+04
    1.7090100098e+02   -1.6162333008e+04
    1.7100100708e+02   -1.6262938477e+04
    1.7110099792e+02   -1.6368570312e+04
    1.7120100403e+02   -1.6477935547e+04
    1.7130099487e+02   -1.6589351562e+04
    1.7140100098e+02   -1.6700816406e+04
    1.7150100708e+02   -1.6810115234e+04
    1.7160099792e+02   -1.6914988281e+04
    1.7170100403e+02   -1.7013328125e+04
    1.7180099487e+02   -1.7103369141e+04
    1.7190100098e+02   -1.7183837891e+04
    1.7200100708e+02   -1.7254074219e+04
    1.7210099792e+02   -1.7314105469e+04
    1.7220100403e+02   -1.7364654297e+04
    1.7230099487e+02   -1.7407093750e+04
    1.7240100098e+02   -1.7443339844e+04
    1.7250100708e+02   -1.7475697266e+04
    1.7260099792e+02   -1.7506667969e+04
    1.7270100403e+02   -1.7538740234e+04
    1.7280099487e+02   -1.7574191406e+04
    1.7290100098e+02   -1.7614919922e+04
    1.7300100708e+02   -1.7662320312e+04
    1.7310099792e+02   -1.7717214844e+04
    1.7320100403e+02   -1.7779835938e+04
    1.7330099487e+02   -1.7849851562e+04
    1.7340100098e+02   -1.7926449219e+04
    1.7350100708e+02   -1.8008429688e+04
    1.7360099792e+02   -1.8094261719e+04
    1.7370100403e+02   -1.8182130859e+04
    1.7380099487e+02   -1.8270070312e+04
    1.7390100098e+02   -1.8356138672e+04
    1.7400100708e+02   -1.8438609375e+04
    1.7410099792e+02   -1.8516111328e+04
    1.7420100403e+02   -1.8587716797e+04
    1.7430099487e+02   -1.8652974609e+04
    1.7440100098e+02   -1.8711890625e+04
    1.7450100708e+02   -1.8764876953e+04
    1.7460099792e+02   -1.8812662109e+04
    1.7470100403e+02   -1.8856199219e+04
    1.7480099487e+02   -1.8896556641e+04
    1.7490100098e+02   -1.8934802734e+04
    1.7500100708e+02   -1.8971900391e+04
    1.7510099792e+02   -1.9008625000e+04
    1.7520100403e+02   -1.9045525391e+04
    1.7530099487e+02   -1.9082925781e+04
    1.7540100098e+02   -1.9120955078e+04
    1.7550100708e+02   -1.9159589844e+04
    1.7560099792e+02   -1.9198718750e+04
    1.7570100403e+02   -1.9238205078e+04
    1.7580099487e+02   -1.9277943359e+04
    1.7590100098e+02   -1.9317900391e+04
    1.7600100708e+02   -1.9358140625e+04
    1.7610099792e+02   -1.9398828125e+04
    1.7620100403e+02   -1.9440216797e+04
    1.7630099487e+02   -1.9482630859e+04
    1.7640100098e+02   -1.9526433594e+04
    1.7650100708e+02   -1.9571978516e+04
    1.7660099792e+02   -1.9619546875e+04
    1.7670199585e+02   -1.9669283203e+04
    1.7680200195e+02   -1.9721150391e+04
    1.7690199280e+02   -1.9774910156e+04
    1.7700100708e+02   -1.9830125000e+04
    1.7710200500e+02   -1.9886181641e+04
    1.7720199585e+02   -1.9942330078e+04
    1.7730200195e+02   -1.9997750000e+04
    1.7740199280e+02   -2.0051625000e+04
    1.7750100708e+02   -2.0103222656e+04
    1.7760099792e+02   -2.0151966797e+04
    1.7770199585e+02   -2.0197492188e+04
    1.7780200195e+02   -2.0239673828e+04
    1.7790199280e+02   -2.0278628906e+04
    1.7800199890e+02   -2.0314697266e+04
    1.7810200500e+02   -2.0348398438e+04
    1.7820199585e+02   -2.0380367188e+04
    1.7830200195e+02   -2.0411269531e+04
    1.7840199280e+02   -2.0441724609e+04
    1.7850199890e+02   -2.0472224609e+04
    1.7860200500e+02   -2.0503066406e+04
    1.7870199585e+02   -2.0534306641e+04
    1.7880200195e+02   -2.0565748047e+04
    1.7890199280e+02   -2.0596951172e+04
    1.7900199890e+02   -2.0627275391e+04
    1.7910200500e+02   -2.0655962891e+04
    1.7920199585e+02   -2.0682230469e+04
    1.7930200195e+02   -2.0705330078e+04
    1.7940199280e+02   -2.0724591797e+04
    1.7950199890e+02   -2.0739519531e+04
    1.7960200500e+02   -2.0749925781e+04
    1.7970199585e+02   -2.0756046875e+04
    1.7980200195e+02   -2.0758660156e+04
    1.7990199280e+02   -2.0759224609e+04
endcurve
