Curveplot
LS-DYNA keyword deck by LS-PrePost
Time
Yrot-displ
Rigid Body Ids
300001 #pts=1800
* Minval=    -9.6572052002e+01 at time=        88.3990631104
* Maxval=     5.2770103455e+01 at time=       179.9015960693
    0.0000000000e+00    9.1538413471e-07
    9.9978476763e-02    7.9914110529e-07
    1.9995699823e-01    6.0621596276e-07
    2.9993548989e-01    3.2359085367e-07
    3.9991390705e-01   -6.0991176554e-08
    4.9999859929e-01   -5.5815763744e-07
    5.9997707605e-01   -1.1758615983e-06
    6.9997197390e-01   -1.9181568405e-06
    7.9986888170e-01   -2.7837966172e-06
    8.9999568462e-01   -3.7646807414e-06
    9.9989688396e-01   -4.8442047955e-06
    1.0998280048e+00   -5.9955700635e-06
    1.1998389959e+00   -7.1800795922e-06
    1.2999750376e+00   -8.3454624473e-06
    1.3999810219e+00   -9.4244132924e-06
    1.4999129772e+00   -1.0333782484e-05
    1.5998250246e+00   -1.0974874385e-05
    1.6998180151e+00   -1.1235087186e-05
    1.7999759912e+00   -1.0990794181e-05
    1.8998709917e+00   -1.0111161828e-05
    1.9999790192e+00   -8.4625089585e-06
    2.0999219418e+00   -5.9128251451e-06
    2.1998488903e+00   -2.3361449166e-06
    2.2999930382e+00    2.3834925287e-06
    2.3998599052e+00    8.3486547737e-06
    2.4998300076e+00    1.5645811800e-05
    2.5999898911e+00    2.4343396944e-05
    2.6998240948e+00    3.4490643884e-05
    2.7998731136e+00    4.6117096645e-05
    2.8998999596e+00    5.9232610511e-05
    2.9999260902e+00    7.3827803135e-05
    3.0998139381e+00    8.9874833066e-05
    3.1999969482e+00    1.0732864030e-04
    3.2999119759e+00    1.2612847786e-04
    3.3998370171e+00    1.4619964350e-04
    3.4999868870e+00    1.6745539324e-04
    3.5998790264e+00    1.8979852030e-04
    3.6999700069e+00    2.1312276658e-04
    3.7999300957e+00    2.3731343390e-04
    3.8998980522e+00    2.6224725298e-04
    3.9998691082e+00    2.8779151035e-04
    4.0999507904e+00    3.1380238943e-04
    4.1999168396e+00    3.4012316610e-04
    4.2999529839e+00    3.6658177851e-04
    4.3999309540e+00    3.9298884803e-04
    4.4998559952e+00    4.1913578752e-04
    4.5998678207e+00    4.4479308417e-04
    4.6999378204e+00    4.6970898984e-04
    4.7998619080e+00    4.9360824050e-04
    4.8998827934e+00    5.1619106671e-04
    4.9999279976e+00    5.3713191301e-04
    5.0999407768e+00    5.5607815739e-04
    5.1999220848e+00    5.7264784118e-04
    5.2998228073e+00    5.8642704971e-04
    5.3999190331e+00    5.9696735116e-04
    5.4999618530e+00    6.0378172202e-04
    5.5998740196e+00    6.0634152032e-04
    5.6998171806e+00    6.0407206183e-04
    5.7999792099e+00    5.9634831268e-04
    5.8999199867e+00    5.8249069843e-04
    5.9998340607e+00    5.6175974896e-04
    6.0998592377e+00    5.3335109260e-04
    6.1999621391e+00    4.9639039207e-04
    6.2998099327e+00    4.4992950279e-04
    6.3999280930e+00    3.9294399903e-04
    6.4999642372e+00    3.2433244633e-04
    6.5999422073e+00    2.4291787122e-04
    6.6999650002e+00    1.4745128283e-04
    6.7998399734e+00    3.6616958823e-05
    6.8999400139e+00   -9.0960784291e-05
    6.9999451637e+00   -2.3671024246e-04
    7.0999879837e+00   -4.0210501174e-04
    7.1998958588e+00   -5.8865710162e-04
    7.2999191284e+00   -7.9791131429e-04
    7.3999209404e+00   -1.0314405663e-03
    7.4999599457e+00   -1.2908434728e-03
    7.5999941826e+00   -1.5777425142e-03
    7.6999831200e+00   -1.8937849673e-03
    7.7998938560e+00   -2.2406436037e-03
    7.8999381065e+00   -2.6200183202e-03
    7.9999728203e+00   -3.0336396303e-03
    8.0998945236e+00   -3.4832707606e-03
    8.1998739243e+00   -3.9707114920e-03
    8.2998743057e+00   -4.4978004880e-03
    8.3998088837e+00   -5.0664176233e-03
    8.4998092651e+00   -5.6784860790e-03
    8.5999822617e+00   -6.3359718770e-03
    8.6999263763e+00   -7.0408810861e-03
    8.7999944687e+00   -7.7952593565e-03
    8.8999843597e+00   -8.6011812091e-03
    8.9998245239e+00   -9.4607453793e-03
    9.0998239517e+00   -1.0376057588e-02
    9.1999187469e+00   -1.1349220760e-02
    9.2999668121e+00   -1.2382311746e-02
    9.3998441696e+00   -1.3477372006e-02
    9.4999265671e+00   -1.4636384323e-02
    9.5998582840e+00   -1.5861254185e-02
    9.6998920441e+00   -1.7153784633e-02
    9.7998247147e+00   -1.8515668809e-02
    9.8998947144e+00   -1.9948456436e-02
    9.9998950958e+00   -2.1453551948e-02
    1.0099860191e+01   -2.3032197729e-02
    1.0199899673e+01   -2.4685464799e-02
    1.0299960136e+01   -2.6414277032e-02
    1.0399840355e+01   -2.8219405562e-02
    1.0499879837e+01   -3.0101519078e-02
    1.0599989891e+01   -3.2061226666e-02
    1.0699939728e+01   -3.4099142998e-02
    1.0799920082e+01   -3.6215994507e-02
    1.0899880409e+01   -3.8412716240e-02
    1.0999859810e+01   -4.0690608323e-02
    1.1099960327e+01   -4.3051484972e-02
    1.1199859619e+01   -4.5497864485e-02
    1.1299819946e+01   -4.8033174127e-02
    1.1399970055e+01   -5.0661969930e-02
    1.1499970436e+01   -5.3390178829e-02
    1.1599860191e+01   -5.6225318462e-02
    1.1699859619e+01   -5.9176716954e-02
    1.1800000191e+01   -6.2255702913e-02
    1.1899840355e+01   -6.5475754440e-02
    1.1999870300e+01   -6.8852566183e-02
    1.2100009918e+01   -7.2404012084e-02
    1.2199970245e+01   -7.6150059700e-02
    1.2299960136e+01   -8.0112412572e-02
    1.2399930000e+01   -8.4314130247e-02
    1.2499950409e+01   -8.8778972626e-02
    1.2599940300e+01   -9.3530677259e-02
    1.2699879646e+01   -9.8592191935e-02
    1.2799909592e+01   -1.0398476571e-01
    1.2899939537e+01   -1.0972722620e-01
    1.2999899864e+01   -1.1583532393e-01
    1.3099969864e+01   -1.2232123315e-01
    1.3199979782e+01   -1.2919332087e-01
    1.3300000191e+01   -1.3645610213e-01
    1.3400010109e+01   -1.4411056042e-01
    1.3500009537e+01   -1.5215453506e-01
    1.3599949837e+01   -1.6058349609e-01
    1.3700010300e+01   -1.6939124465e-01
    1.3799940109e+01   -1.7857091129e-01
    1.3899829865e+01   -1.8811579049e-01
    1.3999970436e+01   -1.9802026451e-01
    1.4099849701e+01   -2.0828054845e-01
    1.4199879646e+01   -2.1889539063e-01
    1.4299989700e+01   -2.2986651957e-01
    1.4399840355e+01   -2.4119895697e-01
    1.4499919891e+01   -2.5290113688e-01
    1.4600020409e+01   -2.6498475671e-01
    1.4699919701e+01   -2.7746456861e-01
    1.4799949646e+01   -2.9035773873e-01
    1.4899909973e+01   -3.0368348956e-01
    1.4999839783e+01   -3.1746214628e-01
    1.5099960327e+01   -3.3171463013e-01
    1.5199850082e+01   -3.4646153450e-01
    1.5299889565e+01   -3.6172264814e-01
    1.5399979591e+01   -3.7751632929e-01
    1.5499839783e+01   -3.9385914803e-01
    1.5599929810e+01   -4.1076579690e-01
    1.5699919701e+01   -4.2824909091e-01
    1.5799900055e+01   -4.4632029533e-01
    1.5899849892e+01   -4.6498945355e-01
    1.5999979973e+01   -4.8426601291e-01
    1.6099899292e+01   -5.0415962934e-01
    1.6199970245e+01   -5.2468073368e-01
    1.6299959183e+01   -5.4584145546e-01
    1.6400020599e+01   -5.6765580177e-01
    1.6499849319e+01   -5.9014064074e-01
    1.6599920273e+01   -6.1331570148e-01
    1.6699960709e+01   -6.3720363379e-01
    1.6800020218e+01   -6.6182994843e-01
    1.6900020599e+01   -6.8722254038e-01
    1.6999959946e+01   -7.1341109276e-01
    1.7099859238e+01   -7.4042659998e-01
    1.7199989319e+01   -7.6829999685e-01
    1.7300010681e+01   -7.9706162214e-01
    1.7399990082e+01   -8.2674002647e-01
    1.7500000000e+01   -8.5736131668e-01
    1.7599880219e+01   -8.8894808292e-01
    1.7699939728e+01   -9.2151892185e-01
    1.7800029755e+01   -9.5508807898e-01
    1.7899999619e+01   -9.8966509104e-01
    1.7999969482e+01   -1.0252550840e+00
    1.8099969864e+01   -1.0618592501e+00
    1.8199920654e+01   -1.0994751453e+00
    1.8299900055e+01   -1.1380978823e+00
    1.8399980545e+01   -1.1777205467e+00
    1.8499860764e+01   -1.2183358669e+00
    1.8599920273e+01   -1.2599368095e+00
    1.8699909210e+01   -1.3025180101e+00
    1.8799999237e+01   -1.3460766077e+00
    1.8899940491e+01   -1.3906126022e+00
    1.9000000000e+01   -1.4361298084e+00
    1.9099950790e+01   -1.4826357365e+00
    1.9200010300e+01   -1.5301421881e+00
    1.9300020218e+01   -1.5786638260e+00
    1.9400009155e+01   -1.6282190084e+00
    1.9499870300e+01   -1.6788282394e+00
    1.9599990845e+01   -1.7305134535e+00
    1.9699909210e+01   -1.7832974195e+00
    1.9799989700e+01   -1.8372030258e+00
    1.9900030136e+01   -1.8922520876e+00
    1.9999900818e+01   -1.9484655857e+00
    2.0099950790e+01   -2.0058619976e+00
    2.0199979782e+01   -2.0644583702e+00
    2.0299949646e+01   -2.1242697239e+00
    2.0399959564e+01   -2.1853091717e+00
    2.0499870300e+01   -2.2475883961e+00
    2.0599929810e+01   -2.3111181259e+00
    2.0700040817e+01   -2.3759083748e+00
    2.0799919128e+01   -2.4419696331e+00
    2.0899969101e+01   -2.5093123913e+00
    2.0999969482e+01   -2.5779488087e+00
    2.1099990845e+01   -2.6478917599e+00
    2.1199920654e+01   -2.7191550732e+00
    2.1299900055e+01   -2.7917547226e+00
    2.1400020599e+01   -2.8657062054e+00
    2.1499990463e+01   -2.9410266876e+00
    2.1599929810e+01   -3.0177321434e+00
    2.1700019836e+01   -3.0958387852e+00
    2.1799940109e+01   -3.1753606796e+00
    2.1900020599e+01   -3.2563107014e+00
    2.1999940872e+01   -3.3386988640e+00
    2.2099990845e+01   -3.4225330353e+00
    2.2199979782e+01   -3.5078184605e+00
    2.2300039291e+01   -3.5945568085e+00
    2.2399950027e+01   -3.6827480793e+00
    2.2500019073e+01   -3.7723898888e+00
    2.2599910736e+01   -3.8634777069e+00
    2.2699909210e+01   -3.9560067654e+00
    2.2799890518e+01   -4.0499711037e+00
    2.2900049210e+01   -4.1453661919e+00
    2.3000019073e+01   -4.2421879768e+00
    2.3100009918e+01   -4.3404345512e+00
    2.3199869156e+01   -4.4401054382e+00
    2.3299999237e+01   -4.5412034988e+00
    2.3399969101e+01   -4.6437349319e+00
    2.3500030518e+01   -4.7477068901e+00
    2.3599880219e+01   -4.8531293869e+00
    2.3700029373e+01   -4.9600157738e+00
    2.3799909592e+01   -5.0683784485e+00
    2.3899879456e+01   -5.1782336235e+00
    2.3999950409e+01   -5.2895946503e+00
    2.4099920273e+01   -5.4024767876e+00
    2.4200019836e+01   -5.5168933868e+00
    2.4299999237e+01   -5.6328573227e+00
    2.4400039673e+01   -5.7503786087e+00
    2.4499910355e+01   -5.8694667816e+00
    2.4599950790e+01   -5.9901299477e+00
    2.4700000763e+01   -6.1123743057e+00
    2.4799940109e+01   -6.2362041473e+00
    2.4899900436e+01   -6.3616242409e+00
    2.4999959946e+01   -6.4886379242e+00
    2.5099889755e+01   -6.6172485352e+00
    2.5199899673e+01   -6.7474579811e+00
    2.5300050735e+01   -6.8792705536e+00
    2.5399879456e+01   -7.0126895905e+00
    2.5499950409e+01   -7.1477193832e+00
    2.5600019455e+01   -7.2843637466e+00
    2.5699880600e+01   -7.4226274490e+00
    2.5799879074e+01   -7.5625138283e+00
    2.5900020599e+01   -7.7040262222e+00
    2.6000059128e+01   -7.8471670151e+00
    2.6099939346e+01   -7.9919381142e+00
    2.6199920654e+01   -8.1383399963e+00
    2.6299989700e+01   -8.2863712311e+00
    2.6400049210e+01   -8.4360303879e+00
    2.6500030518e+01   -8.5873126984e+00
    2.6599910736e+01   -8.7402133942e+00
    2.6699960709e+01   -8.8947257996e+00
    2.6799989700e+01   -9.0508422852e+00
    2.6899980545e+01   -9.2085552216e+00
    2.6999940872e+01   -9.3678541183e+00
    2.7100019455e+01   -9.5287332535e+00
    2.7199890137e+01   -9.6911840439e+00
    2.7300050735e+01   -9.8552026749e+00
    2.7399879456e+01   -1.0020785332e+01
    2.7499940872e+01   -1.0187931061e+01
    2.7600009918e+01   -1.0356638908e+01
    2.7699920654e+01   -1.0526909828e+01
    2.7799919128e+01   -1.0698749542e+01
    2.7899980545e+01   -1.0872159958e+01
    2.7999900818e+01   -1.1047147751e+01
    2.8099939346e+01   -1.1223717690e+01
    2.8199899673e+01   -1.1401877403e+01
    2.8299890518e+01   -1.1581631660e+01
    2.8399890900e+01   -1.1762985229e+01
    2.8499940872e+01   -1.1945942879e+01
    2.8600019455e+01   -1.2130504608e+01
    2.8700010300e+01   -1.2316671371e+01
    2.8799890518e+01   -1.2504441261e+01
    2.8900039673e+01   -1.2693813324e+01
    2.9000019073e+01   -1.2884781837e+01
    2.9099920273e+01   -1.3077342033e+01
    2.9199949265e+01   -1.3271488190e+01
    2.9299980164e+01   -1.3467211723e+01
    2.9399950027e+01   -1.3664504051e+01
    2.9499889374e+01   -1.3863357544e+01
    2.9600059509e+01   -1.4063763618e+01
    2.9699920654e+01   -1.4265711784e+01
    2.9799949646e+01   -1.4469197273e+01
    2.9900020599e+01   -1.4674209595e+01
    2.9999980927e+01   -1.4880743980e+01
    3.0100040436e+01   -1.5088788986e+01
    3.0199949265e+01   -1.5298339844e+01
    3.0300020218e+01   -1.5509387970e+01
    3.0400070190e+01   -1.5721926689e+01
    3.0499959946e+01   -1.5935948372e+01
    3.0600000381e+01   -1.6151443481e+01
    3.0699949265e+01   -1.6368408203e+01
    3.0799959183e+01   -1.6586828232e+01
    3.0900070190e+01   -1.6806697845e+01
    3.0999919891e+01   -1.7028003693e+01
    3.1099910736e+01   -1.7250736237e+01
    3.1199920654e+01   -1.7474884033e+01
    3.1300060272e+01   -1.7700433731e+01
    3.1400009155e+01   -1.7927373886e+01
    3.1499990463e+01   -1.8155694962e+01
    3.1600049973e+01   -1.8385385513e+01
    3.1699920654e+01   -1.8616437912e+01
    3.1799980164e+01   -1.8848838806e+01
    3.1899929047e+01   -1.9082586288e+01
    3.1999969482e+01   -1.9317670822e+01
    3.2100009918e+01   -1.9554086685e+01
    3.2199951172e+01   -1.9791828156e+01
    3.2300018311e+01   -2.0030893326e+01
    3.2400051117e+01   -2.0271278381e+01
    3.2499980927e+01   -2.0512977600e+01
    3.2599948883e+01   -2.0755989075e+01
    3.2700008392e+01   -2.1000308990e+01
    3.2799911499e+01   -2.1245935440e+01
    3.2900070190e+01   -2.1492858887e+01
    3.2999931335e+01   -2.1741071701e+01
    3.3099948883e+01   -2.1990566254e+01
    3.3200050354e+01   -2.2241327286e+01
    3.3300048828e+01   -2.2493339539e+01
    3.3399948120e+01   -2.2746589661e+01
    3.3499988556e+01   -2.3001058578e+01
    3.3600021362e+01   -2.3256725311e+01
    3.3699951172e+01   -2.3513572693e+01
    3.3800010681e+01   -2.3771583557e+01
    3.3899959564e+01   -2.4030733109e+01
    3.3999881744e+01   -2.4291007996e+01
    3.4100028992e+01   -2.4552383423e+01
    3.4200031281e+01   -2.4814842224e+01
    3.4300010681e+01   -2.5078369141e+01
    3.4399948120e+01   -2.5342945099e+01
    3.4499980927e+01   -2.5608556747e+01
    3.4599990845e+01   -2.5875186920e+01
    3.4699981689e+01   -2.6142824173e+01
    3.4799858093e+01   -2.6411458969e+01
    3.4900001526e+01   -2.6681077957e+01
    3.4999938965e+01   -2.6951669693e+01
    3.5100028992e+01   -2.7223224640e+01
    3.5200008392e+01   -2.7495735168e+01
    3.5299869537e+01   -2.7769186020e+01
    3.5400028229e+01   -2.8043573380e+01
    3.5499870300e+01   -2.8318883896e+01
    3.5599880219e+01   -2.8595108032e+01
    3.5699840546e+01   -2.8872238159e+01
    3.5799980164e+01   -2.9150257111e+01
    3.5899929047e+01   -2.9429155350e+01
    3.5999919891e+01   -2.9708923340e+01
    3.6099941254e+01   -2.9989543915e+01
    3.6199871063e+01   -3.0271003723e+01
    3.6299930573e+01   -3.0553295135e+01
    3.6399940491e+01   -3.0836402893e+01
    3.6499900818e+01   -3.1120315552e+01
    3.6599899292e+01   -3.1405017853e+01
    3.6699871063e+01   -3.1690504074e+01
    3.6799858093e+01   -3.1976762772e+01
    3.6900001526e+01   -3.2263782501e+01
    3.6999900818e+01   -3.2551559448e+01
    3.7099990845e+01   -3.2840080261e+01
    3.7199989319e+01   -3.3129348755e+01
    3.7299919128e+01   -3.3419349670e+01
    3.7399871826e+01   -3.3710086823e+01
    3.7499828339e+01   -3.4001556396e+01
    3.7599948883e+01   -3.4293758392e+01
    3.7699890137e+01   -3.4586688995e+01
    3.7799819946e+01   -3.4880348206e+01
    3.7899879456e+01   -3.5174736023e+01
    3.7999889374e+01   -3.5469844818e+01
    3.8099929810e+01   -3.5765682220e+01
    3.8199871063e+01   -3.6062236786e+01
    3.8299919128e+01   -3.6359512329e+01
    3.8399818420e+01   -3.6657501221e+01
    3.8499858856e+01   -3.6956199646e+01
    3.8599819183e+01   -3.7255607605e+01
    3.8699878693e+01   -3.7555721283e+01
    3.8799938202e+01   -3.7856536865e+01
    3.8899971008e+01   -3.8158054352e+01
    3.8999820709e+01   -3.8460269928e+01
    3.9099830627e+01   -3.8763183594e+01
    3.9199901581e+01   -3.9066791534e+01
    3.9299819946e+01   -3.9371097565e+01
    3.9399848938e+01   -3.9676101685e+01
    3.9499790192e+01   -3.9981800079e+01
    3.9599929810e+01   -4.0288196564e+01
    3.9699771881e+01   -4.0595291138e+01
    3.9799900055e+01   -4.0903083801e+01
    3.9899890900e+01   -4.1211570740e+01
    3.9999790192e+01   -4.1520759583e+01
    4.0099769592e+01   -4.1830650330e+01
    4.0199890137e+01   -4.2141239166e+01
    4.0299919128e+01   -4.2452526093e+01
    4.0399929047e+01   -4.2764507294e+01
    4.0499919891e+01   -4.3077186584e+01
    4.0599941254e+01   -4.3390552521e+01
    4.0699871063e+01   -4.3704605103e+01
    4.0799819946e+01   -4.4019329071e+01
    4.0899848938e+01   -4.4334712982e+01
    4.0999748230e+01   -4.4650745392e+01
    4.1099929810e+01   -4.4967403412e+01
    4.1199840546e+01   -4.5284660339e+01
    4.1299900055e+01   -4.5602481842e+01
    4.1399848938e+01   -4.5920837402e+01
    4.1499809265e+01   -4.6239673615e+01
    4.1599929810e+01   -4.6558944702e+01
    4.1699848175e+01   -4.6878593445e+01
    4.1799930573e+01   -4.7198554993e+01
    4.1899829865e+01   -4.7518764496e+01
    4.1999771118e+01   -4.7839149475e+01
    4.2099830627e+01   -4.8159645081e+01
    4.2199890137e+01   -4.8480182648e+01
    4.2299911499e+01   -4.8800712585e+01
    4.2399791718e+01   -4.9121189117e+01
    4.2499858856e+01   -4.9441589355e+01
    4.2599830627e+01   -4.9761894226e+01
    4.2699771881e+01   -5.0082115173e+01
    4.2799728394e+01   -5.0402263641e+01
    4.2899848938e+01   -5.0722381592e+01
    4.2999820709e+01   -5.1042522430e+01
    4.3099739075e+01   -5.1362735748e+01
    4.3199748993e+01   -5.1683094025e+01
    4.3299880981e+01   -5.2003650665e+01
    4.3399890900e+01   -5.2324478149e+01
    4.3499851227e+01   -5.2645633698e+01
    4.3599819183e+01   -5.2967163086e+01
    4.3699710846e+01   -5.3289112091e+01
    4.3799789429e+01   -5.3611499786e+01
    4.3899791718e+01   -5.3934349060e+01
    4.3999729156e+01   -5.4257652283e+01
    4.4099788666e+01   -5.4581386566e+01
    4.4199810028e+01   -5.4905513763e+01
    4.4299789429e+01   -5.5229995728e+01
    4.4399799347e+01   -5.5554759979e+01
    4.4499839783e+01   -5.5879737854e+01
    4.4599861145e+01   -5.6204845428e+01
    4.4699699402e+01   -5.6529998779e+01
    4.4799789429e+01   -5.6855106354e+01
    4.4899711609e+01   -5.7180080414e+01
    4.4999729156e+01   -5.7504840851e+01
    4.5099849701e+01   -5.7829307556e+01
    4.5199779510e+01   -5.8153419495e+01
    4.5299839020e+01   -5.8477123260e+01
    4.5399799347e+01   -5.8800376892e+01
    4.5499870300e+01   -5.9123138428e+01
    4.5599819183e+01   -5.9445377350e+01
    4.5699790955e+01   -5.9767070770e+01
    4.5799739838e+01   -6.0088199615e+01
    4.5899841309e+01   -6.0408733368e+01
    4.5999820709e+01   -6.0728649139e+01
    4.6099781036e+01   -6.1047931671e+01
    4.6199748993e+01   -6.1366550446e+01
    4.6299701691e+01   -6.1684467316e+01
    4.6399761200e+01   -6.2001644135e+01
    4.6499729156e+01   -6.2318035126e+01
    4.6599681854e+01   -6.2633598328e+01
    4.6699699402e+01   -6.2948295593e+01
    4.6799839020e+01   -6.3262081146e+01
    4.6899848938e+01   -6.3574935913e+01
    4.6999691010e+01   -6.3886829376e+01
    4.7099811554e+01   -6.4197753906e+01
    4.7199748993e+01   -6.4507705688e+01
    4.7299800873e+01   -6.4816703796e+01
    4.7399688721e+01   -6.5124755859e+01
    4.7499759674e+01   -6.5431892395e+01
    4.7599769592e+01   -6.5738136292e+01
    4.7699710846e+01   -6.6043518066e+01
    4.7799648285e+01   -6.6348068237e+01
    4.7899700165e+01   -6.6651802063e+01
    4.7999771118e+01   -6.6954727173e+01
    4.8099750519e+01   -6.7256835938e+01
    4.8199810028e+01   -6.7558097839e+01
    4.8299640656e+01   -6.7858474731e+01
    4.8399719238e+01   -6.8157913208e+01
    4.8499649048e+01   -6.8456352234e+01
    4.8599658966e+01   -6.8753715515e+01
    4.8699718475e+01   -6.9049934387e+01
    4.8799800873e+01   -6.9344917297e+01
    4.8899780273e+01   -6.9638572693e+01
    4.8999649048e+01   -6.9930816650e+01
    4.9099739075e+01   -7.0221580505e+01
    4.9199699402e+01   -7.0510780334e+01
    4.9299758911e+01   -7.0798355103e+01
    4.9399810791e+01   -7.1084274292e+01
    4.9499710083e+01   -7.1368469238e+01
    4.9599811554e+01   -7.1650924683e+01
    4.9699668884e+01   -7.1931617737e+01
    4.9799739838e+01   -7.2210548401e+01
    4.9899791718e+01   -7.2487716675e+01
    4.9999759674e+01   -7.2763145447e+01
    5.0099781036e+01   -7.3036834717e+01
    5.0199760437e+01   -7.3308807373e+01
    5.0299640656e+01   -7.3579078674e+01
    5.0399768829e+01   -7.3847656250e+01
    5.0499679565e+01   -7.4114562988e+01
    5.0599651337e+01   -7.4379791260e+01
    5.0699771881e+01   -7.4643363953e+01
    5.0799629211e+01   -7.4905265808e+01
    5.0899711609e+01   -7.5165512085e+01
    5.0999740601e+01   -7.5424102783e+01
    5.1099689484e+01   -7.5681015015e+01
    5.1199729919e+01   -7.5936256409e+01
    5.1299701691e+01   -7.6189788818e+01
    5.1399780273e+01   -7.6441604614e+01
    5.1499771118e+01   -7.6691665649e+01
    5.1599720001e+01   -7.6939941406e+01
    5.1699710846e+01   -7.7186386108e+01
    5.1799770355e+01   -7.7430946350e+01
    5.1899711609e+01   -7.7673583984e+01
    5.1999759674e+01   -7.7914245605e+01
    5.2099769592e+01   -7.8152870178e+01
    5.2199729919e+01   -7.8389427185e+01
    5.2299671173e+01   -7.8623855591e+01
    5.2399749756e+01   -7.8856117249e+01
    5.2499729156e+01   -7.9086174011e+01
    5.2599639893e+01   -7.9313995361e+01
    5.2699649811e+01   -7.9539558411e+01
    5.2799690247e+01   -7.9762855530e+01
    5.2899639130e+01   -7.9983879089e+01
    5.2999649048e+01   -8.0202621460e+01
    5.3099689484e+01   -8.0419105530e+01
    5.3199668884e+01   -8.0633331299e+01
    5.3299709320e+01   -8.0845321655e+01
    5.3399578094e+01   -8.1055084229e+01
    5.3499679565e+01   -8.1262641907e+01
    5.3599720001e+01   -8.1468002319e+01
    5.3699680328e+01   -8.1671165466e+01
    5.3799671173e+01   -8.1872146606e+01
    5.3899589539e+01   -8.2070938110e+01
    5.3999618530e+01   -8.2267539978e+01
    5.4099731445e+01   -8.2461952209e+01
    5.4199600220e+01   -8.2654167175e+01
    5.4299598694e+01   -8.2844192505e+01
    5.4399658203e+01   -8.3032020569e+01
    5.4499649048e+01   -8.3217658997e+01
    5.4599590302e+01   -8.3401100159e+01
    5.4699600220e+01   -8.3582344055e+01
    5.4799640656e+01   -8.3761383057e+01
    5.4899589539e+01   -8.3938217163e+01
    5.4999599457e+01   -8.4112831116e+01
    5.5099609375e+01   -8.4285202026e+01
    5.5199718475e+01   -8.4455314636e+01
    5.5299659729e+01   -8.4623138428e+01
    5.5399650574e+01   -8.4788665771e+01
    5.5499649048e+01   -8.4951873779e+01
    5.5599670410e+01   -8.5112754822e+01
    5.5699581146e+01   -8.5271286011e+01
    5.5799621582e+01   -8.5427452087e+01
    5.5899608612e+01   -8.5581253052e+01
    5.5999561310e+01   -8.5732666016e+01
    5.6099639893e+01   -8.5881690979e+01
    5.6199638367e+01   -8.6028343201e+01
    5.6299579620e+01   -8.6172630310e+01
    5.6399620056e+01   -8.6314567566e+01
    5.6499591827e+01   -8.6454177856e+01
    5.6599700928e+01   -8.6591491699e+01
    5.6699550629e+01   -8.6726547241e+01
    5.6799510956e+01   -8.6859367371e+01
    5.6899578094e+01   -8.6989982605e+01
    5.6999538422e+01   -8.7118431091e+01
    5.7099620819e+01   -8.7244728088e+01
    5.7199600220e+01   -8.7368911743e+01
    5.7299530029e+01   -8.7490982056e+01
    5.7399589539e+01   -8.7610969543e+01
    5.7499549866e+01   -8.7728881836e+01
    5.7599548340e+01   -8.7844711304e+01
    5.7699581146e+01   -8.7958465576e+01
    5.7799568176e+01   -8.8070137024e+01
    5.7899620056e+01   -8.8179725647e+01
    5.7999511719e+01   -8.8287231445e+01
    5.8099540710e+01   -8.8392631531e+01
    5.8199531555e+01   -8.8495925903e+01
    5.8299621582e+01   -8.8597091675e+01
    5.8399509430e+01   -8.8696144104e+01
    5.8499549866e+01   -8.8793060303e+01
    5.8599651337e+01   -8.8887863159e+01
    5.8699539185e+01   -8.8980537415e+01
    5.8799499512e+01   -8.9071113586e+01
    5.8899608612e+01   -8.9159606934e+01
    5.8999660492e+01   -8.9246055603e+01
    5.9099491119e+01   -8.9330482483e+01
    5.9199531555e+01   -8.9412933350e+01
    5.9299530029e+01   -8.9493461609e+01
    5.9399520874e+01   -8.9572082520e+01
    5.9499591827e+01   -8.9648857117e+01
    5.9599620819e+01   -8.9723808289e+01
    5.9699539185e+01   -8.9796974182e+01
    5.9799621582e+01   -8.9868385315e+01
    5.9899539948e+01   -8.9938064575e+01
    5.9999649048e+01   -9.0006019592e+01
    6.0099540710e+01   -9.0072288513e+01
    6.0199550629e+01   -9.0136871338e+01
    6.0299591064e+01   -9.0199790955e+01
    6.0399559021e+01   -9.0261062622e+01
    6.0499500275e+01   -9.0320701599e+01
    6.0599548340e+01   -9.0378707886e+01
    6.0699638367e+01   -9.0435104370e+01
    6.0799629211e+01   -9.0489883423e+01
    6.0899639130e+01   -9.0543052673e+01
    6.0999519348e+01   -9.0594627380e+01
    6.1099578857e+01   -9.0644615173e+01
    6.1199531555e+01   -9.0693038940e+01
    6.1299591064e+01   -9.0739906311e+01
    6.1399631500e+01   -9.0785247803e+01
    6.1499591827e+01   -9.0829086304e+01
    6.1599449158e+01   -9.0871459961e+01
    6.1699539185e+01   -9.0912391663e+01
    6.1799499512e+01   -9.0951919556e+01
    6.1899501801e+01   -9.0990066528e+01
    6.1999568939e+01   -9.1026885986e+01
    6.2099529266e+01   -9.1062408447e+01
    6.2199619293e+01   -9.1096664429e+01
    6.2299480438e+01   -9.1129699707e+01
    6.2399539948e+01   -9.1161544800e+01
    6.2499530792e+01   -9.1192237854e+01
    6.2599601746e+01   -9.1221801758e+01
    6.2699440002e+01   -9.1250267029e+01
    6.2799491882e+01   -9.1277671814e+01
    6.2899459839e+01   -9.1304031372e+01
    6.2999458313e+01   -9.1329383850e+01
    6.3099460602e+01   -9.1353759766e+01
    6.3199420929e+01   -9.1377166748e+01
    6.3299579620e+01   -9.1399642944e+01
    6.3399490356e+01   -9.1421203613e+01
    6.3499469757e+01   -9.1441864014e+01
    6.3599418640e+01   -9.1461624146e+01
    6.3699478149e+01   -9.1480506897e+01
    6.3799579620e+01   -9.1498519897e+01
    6.3899459839e+01   -9.1515686035e+01
    6.3999530792e+01   -9.1532020569e+01
    6.4099563599e+01   -9.1547546387e+01
    6.4199432373e+01   -9.1562294006e+01
    6.4299499512e+01   -9.1576286316e+01
    6.4399482727e+01   -9.1589561462e+01
    6.4499526978e+01   -9.1602142334e+01
    6.4599517822e+01   -9.1614059448e+01
    6.4699478149e+01   -9.1625343323e+01
    6.4799537659e+01   -9.1636039734e+01
    6.4899566650e+01   -9.1646171570e+01
    6.4999557495e+01   -9.1655754089e+01
    6.5099563599e+01   -9.1664833069e+01
    6.5199546814e+01   -9.1673416138e+01
    6.5299423218e+01   -9.1681533813e+01
    6.5399482727e+01   -9.1689216614e+01
    6.5499557495e+01   -9.1696479797e+01
    6.5599540710e+01   -9.1703346252e+01
    6.5699546814e+01   -9.1709831238e+01
    6.5799476624e+01   -9.1715950012e+01
    6.5899513245e+01   -9.1721717834e+01
    6.5999389648e+01   -9.1727149963e+01
    6.6099472046e+01   -9.1732246399e+01
    6.6199501038e+01   -9.1737030029e+01
    6.6299468994e+01   -9.1741523743e+01
    6.6399383545e+01   -9.1745758057e+01
    6.6499511719e+01   -9.1749755859e+01
    6.6599487305e+01   -9.1753555298e+01
    6.6699470520e+01   -9.1757186890e+01
    6.6799499512e+01   -9.1760688782e+01
    6.6899391174e+01   -9.1764076233e+01
    6.6999526978e+01   -9.1767379761e+01
    6.7099456787e+01   -9.1770606995e+01
    6.7199363708e+01   -9.1773796082e+01
    6.7299392700e+01   -9.1776947021e+01
    6.7399459839e+01   -9.1780082703e+01
    6.7499366760e+01   -9.1783218384e+01
    6.7599411011e+01   -9.1786361694e+01
    6.7699462891e+01   -9.1789527893e+01
    6.7799530029e+01   -9.1792716980e+01
    6.7899436951e+01   -9.1795951843e+01
    6.7999382019e+01   -9.1799224854e+01
    6.8099372864e+01   -9.1802574158e+01
    6.8199462891e+01   -9.1806015015e+01
    6.8299392700e+01   -9.1809562683e+01
    6.8399452209e+01   -9.1813240051e+01
    6.8499481201e+01   -9.1817070007e+01
    6.8599441528e+01   -9.1821083069e+01
    6.8699447632e+01   -9.1825294495e+01
    6.8799362183e+01   -9.1829727173e+01
    6.8899436951e+01   -9.1834411621e+01
    6.8999382019e+01   -9.1839355469e+01
    6.9099403381e+01   -9.1844573975e+01
    6.9199340820e+01   -9.1850074768e+01
    6.9299453735e+01   -9.1855865479e+01
    6.9399391174e+01   -9.1861938477e+01
    6.9499351501e+01   -9.1868293762e+01
    6.9599441528e+01   -9.1874931335e+01
    6.9699417114e+01   -9.1881843567e+01
    6.9799339294e+01   -9.1889045715e+01
    6.9899353027e+01   -9.1896522522e+01
    6.9999458313e+01   -9.1904312134e+01
    7.0099487305e+01   -9.1912406921e+01
    7.0199333191e+01   -9.1920829773e+01
    7.0299461365e+01   -9.1929603577e+01
    7.0399482727e+01   -9.1938720703e+01
    7.0499313354e+01   -9.1948188782e+01
    7.0599403381e+01   -9.1958030701e+01
    7.0699310303e+01   -9.1968246460e+01
    7.0799316406e+01   -9.1978851318e+01
    7.0899406433e+01   -9.1989852905e+01
    7.0999313354e+01   -9.2001258850e+01
    7.1099388123e+01   -9.2013084412e+01
    7.1199371338e+01   -9.2025337219e+01
    7.1299346924e+01   -9.2038032532e+01
    7.1399452209e+01   -9.2051177979e+01
    7.1499473572e+01   -9.2064781189e+01
    7.1599449158e+01   -9.2078857422e+01
    7.1699470520e+01   -9.2093391418e+01
    7.1799316406e+01   -9.2108383179e+01
    7.1899360657e+01   -9.2123825073e+01
    7.1999366760e+01   -9.2139724731e+01
    7.2099403381e+01   -9.2156059265e+01
    7.2199386597e+01   -9.2172836304e+01
    7.2299369812e+01   -9.2190048218e+01
    7.2399337769e+01   -9.2207702637e+01
    7.2499359131e+01   -9.2225791931e+01
    7.2599342346e+01   -9.2244308472e+01
    7.2699432373e+01   -9.2263259888e+01
    7.2799293518e+01   -9.2282638550e+01
    7.2899436951e+01   -9.2302452087e+01
    7.2999290466e+01   -9.2322692871e+01
    7.3099327087e+01   -9.2343368530e+01
    7.3199417114e+01   -9.2364463806e+01
    7.3299293518e+01   -9.2385971069e+01
    7.3399337769e+01   -9.2407890320e+01
    7.3499397278e+01   -9.2430198669e+01
    7.3599372864e+01   -9.2452903748e+01
    7.3699363708e+01   -9.2475982666e+01
    7.3799423218e+01   -9.2499458313e+01
    7.3899330139e+01   -9.2523323059e+01
    7.3999282837e+01   -9.2547584534e+01
    7.4099319458e+01   -9.2572250366e+01
    7.4199401855e+01   -9.2597335815e+01
    7.4299423218e+01   -9.2622848511e+01
    7.4399322510e+01   -9.2648780823e+01
    7.4499237061e+01   -9.2675140381e+01
    7.4599342346e+01   -9.2701927185e+01
    7.4699417114e+01   -9.2729148865e+01
    7.4799392700e+01   -9.2756790161e+01
    7.4899276733e+01   -9.2784851074e+01
    7.4999298096e+01   -9.2813331604e+01
    7.5099243164e+01   -9.2842201233e+01
    7.5199226379e+01   -9.2871452332e+01
    7.5299392700e+01   -9.2901062012e+01
    7.5399322510e+01   -9.2931022644e+01
    7.5499290466e+01   -9.2961334229e+01
    7.5599243164e+01   -9.2991981506e+01
    7.5699272156e+01   -9.3022964478e+01
    7.5799331665e+01   -9.3054275513e+01
    7.5899291992e+01   -9.3085914612e+01
    7.5999267578e+01   -9.3117874146e+01
    7.6099288940e+01   -9.3150154114e+01
    7.6199409485e+01   -9.3182739258e+01
    7.6299346924e+01   -9.3215614319e+01
    7.6399391174e+01   -9.3248779297e+01
    7.6499221802e+01   -9.3282211304e+01
    7.6599342346e+01   -9.3315910339e+01
    7.6699317932e+01   -9.3349853516e+01
    7.6799293518e+01   -9.3384017944e+01
    7.6899307251e+01   -9.3418411255e+01
    7.6999259949e+01   -9.3453002930e+01
    7.7099281311e+01   -9.3487800598e+01
    7.7199378967e+01   -9.3522796631e+01
    7.7299377441e+01   -9.3557998657e+01
    7.7399383545e+01   -9.3593399048e+01
    7.7499221802e+01   -9.3628997803e+01
    7.7599273682e+01   -9.3664802551e+01
    7.7699256897e+01   -9.3700805664e+01
    7.7799316406e+01   -9.3736991882e+01
    7.7899246216e+01   -9.3773376465e+01
    7.7999237061e+01   -9.3809951782e+01
    7.8099327087e+01   -9.3846717834e+01
    7.8199333191e+01   -9.3883666992e+01
    7.8299339294e+01   -9.3920814514e+01
    7.8399383545e+01   -9.3958152771e+01
    7.8499237061e+01   -9.3995658875e+01
    7.8599349976e+01   -9.4033340454e+01
    7.8699249268e+01   -9.4071174622e+01
    7.8799346924e+01   -9.4109130859e+01
    7.8899192810e+01   -9.4147209167e+01
    7.8999351501e+01   -9.4185379028e+01
    7.9099357605e+01   -9.4223617554e+01
    7.9199256897e+01   -9.4261909485e+01
    7.9299179077e+01   -9.4300239563e+01
    7.9399291992e+01   -9.4338592529e+01
    7.9499252319e+01   -9.4376953125e+01
    7.9599349976e+01   -9.4415298462e+01
    7.9699226379e+01   -9.4453636169e+01
    7.9799301147e+01   -9.4491950989e+01
    7.9899200439e+01   -9.4530220032e+01
    7.9999282837e+01   -9.4568443298e+01
    8.0099281311e+01   -9.4606597900e+01
    8.0199203491e+01   -9.4644660950e+01
    8.0299331665e+01   -9.4682617188e+01
    8.0399223328e+01   -9.4720458984e+01
    8.0499290466e+01   -9.4758155823e+01
    8.0599296570e+01   -9.4795692444e+01
    8.0699157715e+01   -9.4833053589e+01
    8.0799209595e+01   -9.4870239258e+01
    8.0899261475e+01   -9.4907226562e+01
    8.0999252319e+01   -9.4944023132e+01
    8.1099311829e+01   -9.4980613708e+01
    8.1199302673e+01   -9.5017005920e+01
    8.1299232483e+01   -9.5053184509e+01
    8.1399269104e+01   -9.5089141846e+01
    8.1499153137e+01   -9.5124870300e+01
    8.1599273682e+01   -9.5160354614e+01
    8.1699241638e+01   -9.5195594788e+01
    8.1799148560e+01   -9.5230583191e+01
    8.1899208069e+01   -9.5265312195e+01
    8.1999130249e+01   -9.5299774170e+01
    8.2099288940e+01   -9.5333969116e+01
    8.2199172974e+01   -9.5367897034e+01
    8.2299247742e+01   -9.5401557922e+01
    8.2399276733e+01   -9.5434928894e+01
    8.2499206543e+01   -9.5468025208e+01
    8.2599212646e+01   -9.5500831604e+01
    8.2699157715e+01   -9.5533348083e+01
    8.2799186707e+01   -9.5565559387e+01
    8.2899116516e+01   -9.5597442627e+01
    8.2999252319e+01   -9.5628990173e+01
    8.3099243164e+01   -9.5660194397e+01
    8.3199226379e+01   -9.5691032410e+01
    8.3299133301e+01   -9.5721496582e+01
    8.3399147034e+01   -9.5751571655e+01
    8.3499191284e+01   -9.5781250000e+01
    8.3599273682e+01   -9.5810501099e+01
    8.3699241638e+01   -9.5839324951e+01
    8.3799133301e+01   -9.5867713928e+01
    8.3899269104e+01   -9.5895652771e+01
    8.3999282837e+01   -9.5923156738e+01
    8.4099243164e+01   -9.5950202942e+01
    8.4199172974e+01   -9.5976791382e+01
    8.4299118042e+01   -9.6002914429e+01
    8.4399093628e+01   -9.6028572083e+01
    8.4499183655e+01   -9.6053741455e+01
    8.4599113464e+01   -9.6078437805e+01
    8.4699218750e+01   -9.6102630615e+01
    8.4799110413e+01   -9.6126327515e+01
    8.4899116516e+01   -9.6149497986e+01
    8.4999107361e+01   -9.6172142029e+01
    8.5099212646e+01   -9.6194259644e+01
    8.5199188232e+01   -9.6215835571e+01
    8.5299209595e+01   -9.6236862183e+01
    8.5399192810e+01   -9.6257324219e+01
    8.5499206543e+01   -9.6277229309e+01
    8.5599212646e+01   -9.6296554565e+01
    8.5699188232e+01   -9.6315292358e+01
    8.5799263000e+01   -9.6333435059e+01
    8.5899223328e+01   -9.6350959778e+01
    8.5999237061e+01   -9.6367858887e+01
    8.6099166870e+01   -9.6384124756e+01
    8.6199089050e+01   -9.6399749756e+01
    8.6299118042e+01   -9.6414718628e+01
    8.6399230957e+01   -9.6429039001e+01
    8.6499198914e+01   -9.6442695618e+01
    8.6599113464e+01   -9.6455696106e+01
    8.6699096680e+01   -9.6468025208e+01
    8.6799179077e+01   -9.6479690552e+01
    8.6899093628e+01   -9.6490684509e+01
    8.6999061584e+01   -9.6500991821e+01
    8.7099166870e+01   -9.6510620117e+01
    8.7199089050e+01   -9.6519561768e+01
    8.7299118042e+01   -9.6527809143e+01
    8.7399169922e+01   -9.6535369873e+01
    8.7499137878e+01   -9.6542228699e+01
    8.7599212646e+01   -9.6548393250e+01
    8.7699188232e+01   -9.6553855896e+01
    8.7799110413e+01   -9.6558609009e+01
    8.7899131775e+01   -9.6562652588e+01
    8.7999206543e+01   -9.6565986633e+01
    8.8099197388e+01   -9.6568603516e+01
    8.8199188232e+01   -9.6570495605e+01
    8.8299102783e+01   -9.6571640015e+01
    8.8399063110e+01   -9.6572052002e+01
    8.8499099731e+01   -9.6571716309e+01
    8.8599136353e+01   -9.6570632935e+01
    8.8699150085e+01   -9.6568801880e+01
    8.8799156189e+01   -9.6566223145e+01
    8.8899101257e+01   -9.6562881470e+01
    8.8999046326e+01   -9.6558776855e+01
    8.9099052429e+01   -9.6553916931e+01
    8.9199127197e+01   -9.6548294067e+01
    8.9299079895e+01   -9.6541908264e+01
    8.9399078369e+01   -9.6534751892e+01
    8.9499198914e+01   -9.6526832581e+01
    8.9599082947e+01   -9.6518142700e+01
    8.9699111938e+01   -9.6508674622e+01
    8.9799118042e+01   -9.6498428345e+01
    8.9899131775e+01   -9.6487411499e+01
    8.9999092102e+01   -9.6475601196e+01
    9.0099166870e+01   -9.6462997437e+01
    9.0199127197e+01   -9.6449592590e+01
    9.0299133301e+01   -9.6435371399e+01
    9.0399101257e+01   -9.6420326233e+01
    9.0499130249e+01   -9.6404464722e+01
    9.0599113464e+01   -9.6387763977e+01
    9.0699142456e+01   -9.6370246887e+01
    9.0799110413e+01   -9.6351905823e+01
    9.0899017334e+01   -9.6332748413e+01
    9.0999137878e+01   -9.6312789917e+01
    9.1099037170e+01   -9.6292030334e+01
    9.1199058533e+01   -9.6270484924e+01
    9.1299102783e+01   -9.6248153687e+01
    9.1399108887e+01   -9.6225059509e+01
    9.1499153137e+01   -9.6201187134e+01
    9.1599136353e+01   -9.6176551819e+01
    9.1698997498e+01   -9.6151145935e+01
    9.1799102783e+01   -9.6124961853e+01
    9.1899093628e+01   -9.6098014832e+01
    9.1999107361e+01   -9.6070281982e+01
    9.2099037170e+01   -9.6041770935e+01
    9.2199043274e+01   -9.6012481689e+01
    9.2298973083e+01   -9.5982421875e+01
    9.2399093628e+01   -9.5951591492e+01
    9.2499076843e+01   -9.5919982910e+01
    9.2599090576e+01   -9.5887596130e+01
    9.2699096680e+01   -9.5854431152e+01
    9.2799041748e+01   -9.5820495605e+01
    9.2899078369e+01   -9.5785766602e+01
    9.2999076843e+01   -9.5750274658e+01
    9.3099090576e+01   -9.5714012146e+01
    9.3199096680e+01   -9.5676979065e+01
    9.3298957825e+01   -9.5639183044e+01
    9.3398971558e+01   -9.5600624084e+01
    9.3499137878e+01   -9.5561309814e+01
    9.3598960876e+01   -9.5521240234e+01
    9.3698997498e+01   -9.5480415344e+01
    9.3799049377e+01   -9.5438842773e+01
    9.3899009705e+01   -9.5396537781e+01
    9.3999000549e+01   -9.5353500366e+01
    9.4099037170e+01   -9.5309745789e+01
    9.4199020386e+01   -9.5265281677e+01
    9.4298957825e+01   -9.5220108032e+01
    9.4399040222e+01   -9.5174240112e+01
    9.4499031067e+01   -9.5127685547e+01
    9.4599052429e+01   -9.5080429077e+01
    9.4699050903e+01   -9.5032478333e+01
    9.4799057007e+01   -9.4983825684e+01
    9.4898933411e+01   -9.4934471130e+01
    9.4998977661e+01   -9.4884414673e+01
    9.5098983765e+01   -9.4833656311e+01
    9.5199073792e+01   -9.4782203674e+01
    9.5299011230e+01   -9.4730049133e+01
    9.5399017334e+01   -9.4677223206e+01
    9.5499099731e+01   -9.4623710632e+01
    9.5599098206e+01   -9.4569541931e+01
    9.5699028015e+01   -9.4514717102e+01
    9.5798927307e+01   -9.4459243774e+01
    9.5899047852e+01   -9.4403121948e+01
    9.5999107361e+01   -9.4346366882e+01
    9.6098983765e+01   -9.4288986206e+01
    9.6198913574e+01   -9.4230987549e+01
    9.6299011230e+01   -9.4172363281e+01
    9.6399093628e+01   -9.4113128662e+01
    9.6498992920e+01   -9.4053298950e+01
    9.6599052429e+01   -9.3992866516e+01
    9.6699012756e+01   -9.3931846619e+01
    9.6799003601e+01   -9.3870246887e+01
    9.6899009705e+01   -9.3808082581e+01
    9.6998916626e+01   -9.3745353699e+01
    9.7098999023e+01   -9.3682075500e+01
    9.7199012756e+01   -9.3618247986e+01
    9.7299003601e+01   -9.3553878784e+01
    9.7399047852e+01   -9.3488960266e+01
    9.7498962402e+01   -9.3423492432e+01
    9.7598953247e+01   -9.3357475281e+01
    9.7698928833e+01   -9.3290901184e+01
    9.7798912048e+01   -9.3223770142e+01
    9.7898956299e+01   -9.3156089783e+01
    9.7998901367e+01   -9.3087860107e+01
    9.8098953247e+01   -9.3019073486e+01
    9.8198951721e+01   -9.2949752808e+01
    9.8298912048e+01   -9.2879905701e+01
    9.8398933411e+01   -9.2809532166e+01
    9.8498916626e+01   -9.2738647461e+01
    9.8598892212e+01   -9.2667259216e+01
    9.8698928833e+01   -9.2595382690e+01
    9.8799049377e+01   -9.2523017883e+01
    9.8898933411e+01   -9.2450164795e+01
    9.8999023438e+01   -9.2376823425e+01
    9.9098953247e+01   -9.2303001404e+01
    9.9199043274e+01   -9.2228691101e+01
    9.9298927307e+01   -9.2153892517e+01
    9.9398872375e+01   -9.2078613281e+01
    9.9498962402e+01   -9.2002861023e+01
    9.9598983765e+01   -9.1926628113e+01
    9.9698890686e+01   -9.1849937439e+01
    9.9798896790e+01   -9.1772781372e+01
    9.9898941040e+01   -9.1695182800e+01
    9.9999023438e+01   -9.1617134094e+01
    1.0009899902e+02   -9.1538650513e+01
    1.0019889832e+02   -9.1459732056e+01
    1.0029900360e+02   -9.1380386353e+01
    1.0039900208e+02   -9.1300621033e+01
    1.0049900055e+02   -9.1220451355e+01
    1.0059899902e+02   -9.1139869690e+01
    1.0069899750e+02   -9.1058883667e+01
    1.0079889679e+02   -9.0977493286e+01
    1.0089890289e+02   -9.0895706177e+01
    1.0099880219e+02   -9.0813514709e+01
    1.0109889984e+02   -9.0730926514e+01
    1.0119889832e+02   -9.0647941589e+01
    1.0129900360e+02   -9.0564552307e+01
    1.0139890289e+02   -9.0480751038e+01
    1.0149900055e+02   -9.0396530151e+01
    1.0159889984e+02   -9.0311889648e+01
    1.0169889832e+02   -9.0226821899e+01
    1.0179889679e+02   -9.0141326904e+01
    1.0189890289e+02   -9.0055404663e+01
    1.0199890137e+02   -8.9969047546e+01
    1.0209899902e+02   -8.9882255554e+01
    1.0219889832e+02   -8.9795043945e+01
    1.0229879761e+02   -8.9707397461e+01
    1.0239890289e+02   -8.9619331360e+01
    1.0249880219e+02   -8.9530845642e+01
    1.0259899902e+02   -8.9441932678e+01
    1.0269889832e+02   -8.9352592468e+01
    1.0279889679e+02   -8.9262832642e+01
    1.0289890289e+02   -8.9172630310e+01
    1.0299890137e+02   -8.9082000732e+01
    1.0309889984e+02   -8.8990928650e+01
    1.0319879913e+02   -8.8899414062e+01
    1.0329889679e+02   -8.8807464600e+01
    1.0339880371e+02   -8.8715065002e+01
    1.0349890137e+02   -8.8622215271e+01
    1.0359899902e+02   -8.8528907776e+01
    1.0369879913e+02   -8.8435134888e+01
    1.0379889679e+02   -8.8340904236e+01
    1.0389890289e+02   -8.8246200562e+01
    1.0399880219e+02   -8.8151031494e+01
    1.0409880066e+02   -8.8055381775e+01
    1.0419879913e+02   -8.7959266663e+01
    1.0429900360e+02   -8.7862686157e+01
    1.0439880371e+02   -8.7765640259e+01
    1.0449900055e+02   -8.7668128967e+01
    1.0459889984e+02   -8.7570137024e+01
    1.0469889832e+02   -8.7471664429e+01
    1.0479889679e+02   -8.7372695923e+01
    1.0489890289e+02   -8.7273208618e+01
    1.0499890137e+02   -8.7173202515e+01
    1.0509889984e+02   -8.7072654724e+01
    1.0519889832e+02   -8.6971572876e+01
    1.0529889679e+02   -8.6869941711e+01
    1.0539890289e+02   -8.6767768860e+01
    1.0549880219e+02   -8.6665039062e+01
    1.0559889984e+02   -8.6561744690e+01
    1.0569879913e+02   -8.6457885742e+01
    1.0579879761e+02   -8.6353446960e+01
    1.0589890289e+02   -8.6248413086e+01
    1.0599890137e+02   -8.6142784119e+01
    1.0609889984e+02   -8.6036521912e+01
    1.0619879913e+02   -8.5929641724e+01
    1.0629889679e+02   -8.5822113037e+01
    1.0639890289e+02   -8.5713935852e+01
    1.0649890137e+02   -8.5605102539e+01
    1.0659889984e+02   -8.5495597839e+01
    1.0669879913e+02   -8.5385421753e+01
    1.0679889679e+02   -8.5274559021e+01
    1.0689880371e+02   -8.5163002014e+01
    1.0699890137e+02   -8.5050735474e+01
    1.0709880066e+02   -8.4937751770e+01
    1.0719889832e+02   -8.4824028015e+01
    1.0729879761e+02   -8.4709564209e+01
    1.0739880371e+02   -8.4594352722e+01
    1.0749890137e+02   -8.4478370667e+01
    1.0759889984e+02   -8.4361618042e+01
    1.0769879913e+02   -8.4244071960e+01
    1.0779879761e+02   -8.4125717163e+01
    1.0789890289e+02   -8.4006546021e+01
    1.0799890137e+02   -8.3886550903e+01
    1.0809880066e+02   -8.3765716553e+01
    1.0819889832e+02   -8.3644042969e+01
    1.0829879761e+02   -8.3521514893e+01
    1.0839869690e+02   -8.3398132324e+01
    1.0849890137e+02   -8.3273887634e+01
    1.0859889984e+02   -8.3148780823e+01
    1.0869879913e+02   -8.3022796631e+01
    1.0879889679e+02   -8.2895919800e+01
    1.0889869690e+02   -8.2768142700e+01
    1.0899880219e+02   -8.2639457703e+01
    1.0909870148e+02   -8.2509834290e+01
    1.0919879913e+02   -8.2379272461e+01
    1.0929889679e+02   -8.2247749329e+01
    1.0939890289e+02   -8.2115257263e+01
    1.0949880219e+02   -8.1981788635e+01
    1.0959889984e+02   -8.1847335815e+01
    1.0969889832e+02   -8.1711891174e+01
    1.0979879761e+02   -8.1575424194e+01
    1.0989890289e+02   -8.1437942505e+01
    1.0999870300e+02   -8.1299415588e+01
    1.1009880066e+02   -8.1159835815e+01
    1.1019879913e+02   -8.1019203186e+01
    1.1029889679e+02   -8.0877494812e+01
    1.1039880371e+02   -8.0734695435e+01
    1.1049880219e+02   -8.0590805054e+01
    1.1059880066e+02   -8.0445808411e+01
    1.1069869995e+02   -8.0299697876e+01
    1.1079879761e+02   -8.0152465820e+01
    1.1089880371e+02   -8.0004112244e+01
    1.1099880219e+02   -7.9854614258e+01
    1.1109870148e+02   -7.9703979492e+01
    1.1119879913e+02   -7.9552192688e+01
    1.1129879761e+02   -7.9399246216e+01
    1.1139880371e+02   -7.9245117188e+01
    1.1149880219e+02   -7.9089805603e+01
    1.1159870148e+02   -7.8933311462e+01
    1.1169879913e+02   -7.8775619507e+01
    1.1179869843e+02   -7.8616729736e+01
    1.1189880371e+02   -7.8456634521e+01
    1.1199880219e+02   -7.8295333862e+01
    1.1209880066e+02   -7.8132820129e+01
    1.1219879913e+02   -7.7969085693e+01
    1.1229879761e+02   -7.7804122925e+01
    1.1239880371e+02   -7.7637939453e+01
    1.1249880219e+02   -7.7470512390e+01
    1.1259880066e+02   -7.7301841736e+01
    1.1269879913e+02   -7.7131927490e+01
    1.1279879761e+02   -7.6960739136e+01
    1.1289880371e+02   -7.6788291931e+01
    1.1299870300e+02   -7.6614555359e+01
    1.1309870148e+02   -7.6439537048e+01
    1.1319879913e+02   -7.6263237000e+01
    1.1329869843e+02   -7.6085647583e+01
    1.1339869690e+02   -7.5906761169e+01
    1.1349870300e+02   -7.5726585388e+01
    1.1359870148e+02   -7.5545120239e+01
    1.1369879913e+02   -7.5362350464e+01
    1.1379869843e+02   -7.5178283691e+01
    1.1389880371e+02   -7.4992919922e+01
    1.1399870300e+02   -7.4806243896e+01
    1.1409870148e+02   -7.4618255615e+01
    1.1419879913e+02   -7.4428955078e+01
    1.1429879761e+02   -7.4238342285e+01
    1.1439869690e+02   -7.4046424866e+01
    1.1449870300e+02   -7.3853187561e+01
    1.1459870148e+02   -7.3658638000e+01
    1.1469869995e+02   -7.3462783813e+01
    1.1479869843e+02   -7.3265632629e+01
    1.1489869690e+02   -7.3067169189e+01
    1.1499870300e+02   -7.2867416382e+01
    1.1509880066e+02   -7.2666366577e+01
    1.1519869995e+02   -7.2464019775e+01
    1.1529879761e+02   -7.2260383606e+01
    1.1539869690e+02   -7.2055465698e+01
    1.1549870300e+02   -7.1849266052e+01
    1.1559880066e+02   -7.1641792297e+01
    1.1569869995e+02   -7.1433059692e+01
    1.1579879761e+02   -7.1223068237e+01
    1.1589869690e+02   -7.1011825562e+01
    1.1599880219e+02   -7.0799339294e+01
    1.1609860229e+02   -7.0585601807e+01
    1.1619860077e+02   -7.0370613098e+01
    1.1629859924e+02   -7.0154373169e+01
    1.1639869690e+02   -6.9936889648e+01
    1.1649880219e+02   -6.9718154907e+01
    1.1659860229e+02   -6.9498184204e+01
    1.1669869995e+02   -6.9276992798e+01
    1.1679869843e+02   -6.9054565430e+01
    1.1689869690e+02   -6.8830932617e+01
    1.1699880219e+02   -6.8606079102e+01
    1.1709870148e+02   -6.8380035400e+01
    1.1719869995e+02   -6.8152809143e+01
    1.1729859924e+02   -6.7924392700e+01
    1.1739869690e+02   -6.7694808960e+01
    1.1749870300e+02   -6.7464065552e+01
    1.1759880066e+02   -6.7232162476e+01
    1.1769879913e+02   -6.6999114990e+01
    1.1779869843e+02   -6.6764923096e+01
    1.1789880371e+02   -6.6529594421e+01
    1.1799870300e+02   -6.6293136597e+01
    1.1809860229e+02   -6.6055564880e+01
    1.1819860077e+02   -6.5816894531e+01
    1.1829879761e+02   -6.5577140808e+01
    1.1839869690e+02   -6.5336318970e+01
    1.1849870300e+02   -6.5094459534e+01
    1.1859870148e+02   -6.4851570129e+01
    1.1869860077e+02   -6.4607673645e+01
    1.1879869843e+02   -6.4362777710e+01
    1.1889869690e+02   -6.4116912842e+01
    1.1899859619e+02   -6.3870086670e+01
    1.1909870148e+02   -6.3622318268e+01
    1.1919869995e+02   -6.3373626709e+01
    1.1929859924e+02   -6.3124031067e+01
    1.1939859772e+02   -6.2873535156e+01
    1.1949859619e+02   -6.2622150421e+01
    1.1959870148e+02   -6.2369895935e+01
    1.1969869995e+02   -6.2116767883e+01
    1.1979869843e+02   -6.1862789154e+01
    1.1989869690e+02   -6.1607975006e+01
    1.1999859619e+02   -6.1352336884e+01
    1.2009870148e+02   -6.1095882416e+01
    1.2019860077e+02   -6.0838638306e+01
    1.2029859924e+02   -6.0580612183e+01
    1.2039869690e+02   -6.0321823120e+01
    1.2049870300e+02   -6.0062286377e+01
    1.2059870148e+02   -5.9802024841e+01
    1.2069850159e+02   -5.9541069031e+01
    1.2079850006e+02   -5.9279438019e+01
    1.2089869690e+02   -5.9017147064e+01
    1.2099859619e+02   -5.8754230499e+01
    1.2109860229e+02   -5.8490703583e+01
    1.2119860077e+02   -5.8226581573e+01
    1.2129859924e+02   -5.7961887360e+01
    1.2139859772e+02   -5.7696624756e+01
    1.2149859619e+02   -5.7430809021e+01
    1.2159850311e+02   -5.7164451599e+01
    1.2169860077e+02   -5.6897567749e+01
    1.2179869843e+02   -5.6630176544e+01
    1.2189849854e+02   -5.6362297058e+01
    1.2199859619e+02   -5.6093948364e+01
    1.2209860229e+02   -5.5825149536e+01
    1.2219860077e+02   -5.5555919647e+01
    1.2229859924e+02   -5.5286270142e+01
    1.2239869690e+02   -5.5016223907e+01
    1.2249859619e+02   -5.4745800018e+01
    1.2259860229e+02   -5.4475009918e+01
    1.2269860077e+02   -5.4203868866e+01
    1.2279850006e+02   -5.3932399750e+01
    1.2289859772e+02   -5.3660614014e+01
    1.2299859619e+02   -5.3388530731e+01
    1.2309870148e+02   -5.3116161346e+01
    1.2319860077e+02   -5.2843524933e+01
    1.2329859924e+02   -5.2570648193e+01
    1.2339859772e+02   -5.2297546387e+01
    1.2349859619e+02   -5.2024253845e+01
    1.2359860229e+02   -5.1750789642e+01
    1.2369860077e+02   -5.1477188110e+01
    1.2379869843e+02   -5.1203472137e+01
    1.2389859772e+02   -5.0929668427e+01
    1.2399849701e+02   -5.0655803680e+01
    1.2409860229e+02   -5.0381900787e+01
    1.2419869995e+02   -5.0107986450e+01
    1.2429850006e+02   -4.9834087372e+01
    1.2439859772e+02   -4.9560226440e+01
    1.2449849701e+02   -4.9286434174e+01
    1.2459860229e+02   -4.9012729645e+01
    1.2469860077e+02   -4.8739135742e+01
    1.2479850006e+02   -4.8465682983e+01
    1.2489859772e+02   -4.8192382812e+01
    1.2499849701e+02   -4.7919258118e+01
    1.2509860229e+02   -4.7646327972e+01
    1.2519860077e+02   -4.7373596191e+01
    1.2529859924e+02   -4.7101078033e+01
    1.2539849854e+02   -4.6828792572e+01
    1.2549859619e+02   -4.6556743622e+01
    1.2559850311e+02   -4.6284950256e+01
    1.2569860077e+02   -4.6013420105e+01
    1.2579850006e+02   -4.5742172241e+01
    1.2589849854e+02   -4.5471214294e+01
    1.2599859619e+02   -4.5200557709e+01
    1.2609860229e+02   -4.4930217743e+01
    1.2619860077e+02   -4.4660198212e+01
    1.2629859924e+02   -4.4390518188e+01
    1.2639859772e+02   -4.4121185303e+01
    1.2649859619e+02   -4.3852214813e+01
    1.2659860229e+02   -4.3583610535e+01
    1.2669860077e+02   -4.3315383911e+01
    1.2679850006e+02   -4.3047538757e+01
    1.2689859772e+02   -4.2780082703e+01
    1.2699859619e+02   -4.2513019562e+01
    1.2709850311e+02   -4.2246356964e+01
    1.2719850159e+02   -4.1980098724e+01
    1.2729859924e+02   -4.1714244843e+01
    1.2739849854e+02   -4.1448799133e+01
    1.2749859619e+02   -4.1183773041e+01
    1.2759850311e+02   -4.0919166565e+01
    1.2769860077e+02   -4.0654979706e+01
    1.2779840088e+02   -4.0391216278e+01
    1.2789859772e+02   -4.0127887726e+01
    1.2799839783e+02   -3.9864990234e+01
    1.2809840393e+02   -3.9602531433e+01
    1.2819859314e+02   -3.9340518951e+01
    1.2829859924e+02   -3.9078960419e+01
    1.2839860535e+02   -3.8817859650e+01
    1.2849859619e+02   -3.8557228088e+01
    1.2859860229e+02   -3.8297073364e+01
    1.2869859314e+02   -3.8037391663e+01
    1.2879859924e+02   -3.7778198242e+01
    1.2889849854e+02   -3.7519496918e+01
    1.2899859619e+02   -3.7261291504e+01
    1.2909860229e+02   -3.7003589630e+01
    1.2919859314e+02   -3.6746391296e+01
    1.2929859924e+02   -3.6489704132e+01
    1.2939860535e+02   -3.6233539581e+01
    1.2949870300e+02   -3.5977897644e+01
    1.2959860229e+02   -3.5722785950e+01
    1.2969869995e+02   -3.5468215942e+01
    1.2979870605e+02   -3.5214191437e+01
    1.2989860535e+02   -3.4960720062e+01
    1.2999870300e+02   -3.4707813263e+01
    1.3009869385e+02   -3.4455467224e+01
    1.3019859314e+02   -3.4203697205e+01
    1.3029859924e+02   -3.3952503204e+01
    1.3039860535e+02   -3.3701892853e+01
    1.3049870300e+02   -3.3451869965e+01
    1.3059860229e+02   -3.3202449799e+01
    1.3069859314e+02   -3.2953628540e+01
    1.3079870605e+02   -3.2705413818e+01
    1.3089869690e+02   -3.2457809448e+01
    1.3099870300e+02   -3.2210819244e+01
    1.3109860229e+02   -3.1964441299e+01
    1.3119859314e+02   -3.1718683243e+01
    1.3129879761e+02   -3.1473546982e+01
    1.3139869690e+02   -3.1229034424e+01
    1.3149870300e+02   -3.0985151291e+01
    1.3159880066e+02   -3.0741901398e+01
    1.3169869995e+02   -3.0499286652e+01
    1.3179879761e+02   -3.0257308960e+01
    1.3189880371e+02   -3.0015972137e+01
    1.3199870300e+02   -2.9775278091e+01
    1.3209869385e+02   -2.9535228729e+01
    1.3219869995e+02   -2.9295824051e+01
    1.3229879761e+02   -2.9057069778e+01
    1.3239869690e+02   -2.8818965912e+01
    1.3249879456e+02   -2.8581510544e+01
    1.3259890747e+02   -2.8344703674e+01
    1.3269869995e+02   -2.8108545303e+01
    1.3279890442e+02   -2.7873037338e+01
    1.3289880371e+02   -2.7638175964e+01
    1.3299879456e+02   -2.7403955460e+01
    1.3309890747e+02   -2.7170375824e+01
    1.3319889832e+02   -2.6937433243e+01
    1.3329879761e+02   -2.6705123901e+01
    1.3339880371e+02   -2.6473442078e+01
    1.3349890137e+02   -2.6242385864e+01
    1.3359880066e+02   -2.6011949539e+01
    1.3369889832e+02   -2.5782131195e+01
    1.3379879761e+02   -2.5552925110e+01
    1.3389880371e+02   -2.5324327469e+01
    1.3399890137e+02   -2.5096334457e+01
    1.3409880066e+02   -2.4868942261e+01
    1.3419889832e+02   -2.4642143250e+01
    1.3429890442e+02   -2.4415935516e+01
    1.3439889526e+02   -2.4190311432e+01
    1.3449890137e+02   -2.3965267181e+01
    1.3459899902e+02   -2.3740795135e+01
    1.3469889832e+02   -2.3516887665e+01
    1.3479890442e+02   -2.3293537140e+01
    1.3489889526e+02   -2.3070735931e+01
    1.3499899292e+02   -2.2848476410e+01
    1.3509899902e+02   -2.2626749039e+01
    1.3519889832e+02   -2.2405550003e+01
    1.3529899597e+02   -2.2184867859e+01
    1.3539889526e+02   -2.1964702606e+01
    1.3549899292e+02   -2.1745046616e+01
    1.3559899902e+02   -2.1525899887e+01
    1.3569889832e+02   -2.1307262421e+01
    1.3579890442e+02   -2.1089136124e+01
    1.3589900208e+02   -2.0871530533e+01
    1.3599899292e+02   -2.0654453278e+01
    1.3609899902e+02   -2.0437915802e+01
    1.3619909668e+02   -2.0221931458e+01
    1.3629899597e+02   -2.0006523132e+01
    1.3639900208e+02   -1.9791707993e+01
    1.3649899292e+02   -1.9577508926e+01
    1.3659910583e+02   -1.9363950729e+01
    1.3669900513e+02   -1.9151056290e+01
    1.3679910278e+02   -1.8938850403e+01
    1.3689900208e+02   -1.8727357864e+01
    1.3699899292e+02   -1.8516595840e+01
    1.3709899902e+02   -1.8306579590e+01
    1.3719909668e+02   -1.8097324371e+01
    1.3729899597e+02   -1.7888832092e+01
    1.3739900208e+02   -1.7681106567e+01
    1.3749920654e+02   -1.7474140167e+01
    1.3759899902e+02   -1.7267923355e+01
    1.3769920349e+02   -1.7062438965e+01
    1.3779910278e+02   -1.6857666016e+01
    1.3789900208e+02   -1.6653585434e+01
    1.3799909973e+02   -1.6450166702e+01
    1.3809919739e+02   -1.6247388840e+01
    1.3819909668e+02   -1.6045223236e+01
    1.3829919434e+02   -1.5843647957e+01
    1.3839909363e+02   -1.5642639160e+01
    1.3849920654e+02   -1.5442179680e+01
    1.3859919739e+02   -1.5242252350e+01
    1.3869920349e+02   -1.5042844772e+01
    1.3879910278e+02   -1.4843947411e+01
    1.3889920044e+02   -1.4645554543e+01
    1.3899929810e+02   -1.4447660446e+01
    1.3909919739e+02   -1.4250263214e+01
    1.3919920349e+02   -1.4053359032e+01
    1.3929919434e+02   -1.3856946945e+01
    1.3939909363e+02   -1.3661024094e+01
    1.3949920654e+02   -1.3465588570e+01
    1.3959919739e+02   -1.3270636559e+01
    1.3969929504e+02   -1.3076162338e+01
    1.3979919434e+02   -1.2882160187e+01
    1.3989920044e+02   -1.2688621521e+01
    1.3999920654e+02   -1.2495534897e+01
    1.4009930420e+02   -1.2302893639e+01
    1.4019929504e+02   -1.2110687256e+01
    1.4029930115e+02   -1.1918906212e+01
    1.4039930725e+02   -1.1727544785e+01
    1.4049929810e+02   -1.1536595345e+01
    1.4059930420e+02   -1.1346055984e+01
    1.4069929504e+02   -1.1155925751e+01
    1.4079930115e+02   -1.0966208458e+01
    1.4089939880e+02   -1.0776908875e+01
    1.4099929810e+02   -1.0588037491e+01
    1.4109939575e+02   -1.0399603844e+01
    1.4119940186e+02   -1.0211620331e+01
    1.4129930115e+02   -1.0024102211e+01
    1.4139930725e+02   -9.8370599747e+00
    1.4149929810e+02   -9.6505060196e+00
    1.4159930420e+02   -9.4644508362e+00
    1.4169940186e+02   -9.2789020538e+00
    1.4179930115e+02   -9.0938625336e+00
    1.4189939880e+02   -8.9093303680e+00
    1.4199929810e+02   -8.7253007889e+00
    1.4209939575e+02   -8.5417623520e+00
    1.4219929504e+02   -8.3586997986e+00
    1.4229930115e+02   -8.1760892868e+00
    1.4239939880e+02   -7.9939079285e+00
    1.4249929810e+02   -7.8121252060e+00
    1.4259950256e+02   -7.6307101250e+00
    1.4269949341e+02   -7.4496321678e+00
    1.4279949951e+02   -7.2688579559e+00
    1.4289950562e+02   -7.0883560181e+00
    1.4299949646e+02   -6.9080948830e+00
    1.4309939575e+02   -6.7280468941e+00
    1.4319949341e+02   -6.5481872559e+00
    1.4329949951e+02   -6.3684954643e+00
    1.4339950562e+02   -6.1889533997e+00
    1.4349940491e+02   -6.0095496178e+00
    1.4359939575e+02   -5.8302750587e+00
    1.4369949341e+02   -5.6511254311e+00
    1.4379949951e+02   -5.4720993042e+00
    1.4389950562e+02   -5.2931990623e+00
    1.4399949646e+02   -5.1144285202e+00
    1.4409939575e+02   -4.9357938766e+00
    1.4419949341e+02   -4.7573018074e+00
    1.4429949951e+02   -4.5789599419e+00
    1.4439959717e+02   -4.4007754326e+00
    1.4449960327e+02   -4.2227540016e+00
    1.4459959412e+02   -4.0449008942e+00
    1.4469949341e+02   -3.8672192097e+00
    1.4479960632e+02   -3.6897099018e+00
    1.4489959717e+02   -3.5123727322e+00
    1.4499949646e+02   -3.3352053165e+00
    1.4509959412e+02   -3.1582038403e+00
    1.4519949341e+02   -2.9813632965e+00
    1.4529960632e+02   -2.8046774864e+00
    1.4539950562e+02   -2.6281399727e+00
    1.4549949646e+02   -2.4517440796e+00
    1.4559950256e+02   -2.2754838467e+00
    1.4569949341e+02   -2.0993535519e+00
    1.4579960632e+02   -1.9233481884e+00
    1.4589970398e+02   -1.7474641800e+00
    1.4599960327e+02   -1.5716981888e+00
    1.4609959412e+02   -1.3960474730e+00
    1.4619970703e+02   -1.2205100060e+00
    1.4629960632e+02   -1.0450839996e+00
    1.4639959717e+02   -8.6976754665e-01
    1.4649960327e+02   -6.9455885887e-01
    1.4659970093e+02   -5.1945602894e-01
    1.4669970703e+02   -3.4445670247e-01
    1.4679969788e+02   -1.6955830157e-01
    1.4689959717e+02    5.2425791509e-03
    1.4699969482e+02    1.7994992435e-01
    1.4709970093e+02    3.5456815362e-01
    1.4719970703e+02    5.2910220623e-01
    1.4729969788e+02    7.0355749130e-01
    1.4739970398e+02    8.7793970108e-01
    1.4749969482e+02    1.0522545576e+00
    1.4759979248e+02    1.2265077829e+00
    1.4769970703e+02    1.4007042646e+00
    1.4779980469e+02    1.5748490095e+00
    1.4789970398e+02    1.7489458323e+00
    1.4799960327e+02    1.9229979515e+00
    1.4809979248e+02    2.0970077515e+00
    1.4819979858e+02    2.2709765434e+00
    1.4829969788e+02    2.4449048042e+00
    1.4839979553e+02    2.6187922955e+00
    1.4849969482e+02    2.7926378250e+00
    1.4859970093e+02    2.9664399624e+00
    1.4869970703e+02    3.1401960850e+00
    1.4879980469e+02    3.3139030933e+00
    1.4889979553e+02    3.4875578880e+00
    1.4899980164e+02    3.6611559391e+00
    1.4909979248e+02    3.8346931934e+00
    1.4919990540e+02    4.0081648827e+00
    1.4929980469e+02    4.1815671921e+00
    1.4939990234e+02    4.3548955917e+00
    1.4949989319e+02    4.5281457901e+00
    1.4959989929e+02    4.7013144493e+00
    1.4969990540e+02    4.8743982315e+00
    1.4979989624e+02    5.0473933220e+00
    1.4989979553e+02    5.2202973366e+00
    1.4999989319e+02    5.3931064606e+00
    1.5009989929e+02    5.5658187866e+00
    1.5019990540e+02    5.7384314537e+00
    1.5029980469e+02    5.9109411240e+00
    1.5039999390e+02    6.0833449364e+00
    1.5049980164e+02    6.2556395531e+00
    1.5060000610e+02    6.4278225899e+00
    1.5069999695e+02    6.5998897552e+00
    1.5079989624e+02    6.7718377113e+00
    1.5089979553e+02    6.9436626434e+00
    1.5099989319e+02    7.1153607368e+00
    1.5109989929e+02    7.2869281769e+00
    1.5119999695e+02    7.4583606720e+00
    1.5129980469e+02    7.6296539307e+00
    1.5139990234e+02    7.8008031845e+00
    1.5149989319e+02    7.9718046188e+00
    1.5160000610e+02    8.1426515579e+00
    1.5169990540e+02    8.3133401871e+00
    1.5180000305e+02    8.4838647842e+00
    1.5189999390e+02    8.6542196274e+00
    1.5200000000e+02    8.8244009018e+00
    1.5210000610e+02    8.9944038391e+00
    1.5219999695e+02    9.1642236710e+00
    1.5229989624e+02    9.3338565826e+00
    1.5239999390e+02    9.5032997131e+00
    1.5249989319e+02    9.6725492477e+00
    1.5260000610e+02    9.8416004181e+00
    1.5269999695e+02    1.0010451317e+01
    1.5280000305e+02    1.0179099083e+01
    1.5289999390e+02    1.0347541809e+01
    1.5300000000e+02    1.0515777588e+01
    1.5310000610e+02    1.0683802605e+01
    1.5320010376e+02    1.0851614952e+01
    1.5330009460e+02    1.1019211769e+01
    1.5339999390e+02    1.1186591148e+01
    1.5350000000e+02    1.1353749275e+01
    1.5360009766e+02    1.1520685196e+01
    1.5370010376e+02    1.1687396049e+01
    1.5380000305e+02    1.1853878975e+01
    1.5390010071e+02    1.2020132065e+01
    1.5400000000e+02    1.2186151505e+01
    1.5410000610e+02    1.2351933479e+01
    1.5420010376e+02    1.2517476082e+01
    1.5430009460e+02    1.2682774544e+01
    1.5440010071e+02    1.2847826004e+01
    1.5450010681e+02    1.3012624741e+01
    1.5460020447e+02    1.3177169800e+01
    1.5470019531e+02    1.3341457367e+01
    1.5480020142e+02    1.3505482674e+01
    1.5490010071e+02    1.3669243813e+01
    1.5500019836e+02    1.3832736015e+01
    1.5510009766e+02    1.3995957375e+01
    1.5520019531e+02    1.4158903122e+01
    1.5530009460e+02    1.4321570396e+01
    1.5540020752e+02    1.4483956337e+01
    1.5550019836e+02    1.4646055222e+01
    1.5560029602e+02    1.4807864189e+01
    1.5570019531e+02    1.4969379425e+01
    1.5580009460e+02    1.5130595207e+01
    1.5590010071e+02    1.5291507721e+01
    1.5600030518e+02    1.5452110291e+01
    1.5610020447e+02    1.5612401009e+01
    1.5620010376e+02    1.5772373199e+01
    1.5630020142e+02    1.5932022095e+01
    1.5640020752e+02    1.6091344833e+01
    1.5650019836e+02    1.6250331879e+01
    1.5660020447e+02    1.6408985138e+01
    1.5670019531e+02    1.6567295074e+01
    1.5680029297e+02    1.6725259781e+01
    1.5690029907e+02    1.6882877350e+01
    1.5700019836e+02    1.7040145874e+01
    1.5710029602e+02    1.7197061539e+01
    1.5720030212e+02    1.7353622437e+01
    1.5730029297e+02    1.7509828568e+01
    1.5740040588e+02    1.7665678024e+01
    1.5750030518e+02    1.7821170807e+01
    1.5760029602e+02    1.7976308823e+01
    1.5770039368e+02    1.8131092072e+01
    1.5780039978e+02    1.8285524368e+01
    1.5790029907e+02    1.8439607620e+01
    1.5800039673e+02    1.8593345642e+01
    1.5810040283e+02    1.8746740341e+01
    1.5820039368e+02    1.8899797440e+01
    1.5830039978e+02    1.9052520752e+01
    1.5840040588e+02    1.9204910278e+01
    1.5850039673e+02    1.9356973648e+01
    1.5860029602e+02    1.9508716583e+01
    1.5870030212e+02    1.9660139084e+01
    1.5880039978e+02    1.9811248779e+01
    1.5890040588e+02    1.9962047577e+01
    1.5900039673e+02    2.0112537384e+01
    1.5910049438e+02    2.0262723923e+01
    1.5920039368e+02    2.0412609100e+01
    1.5930039978e+02    2.0562192917e+01
    1.5940049744e+02    2.0711481094e+01
    1.5950039673e+02    2.0860473633e+01
    1.5960040283e+02    2.1009174347e+01
    1.5970050049e+02    2.1157583237e+01
    1.5980039978e+02    2.1305706024e+01
    1.5990040588e+02    2.1453538895e+01
    1.6000050354e+02    2.1601087570e+01
    1.6010040283e+02    2.1748355865e+01
    1.6020039368e+02    2.1895339966e+01
    1.6030059814e+02    2.2042047501e+01
    1.6040040588e+02    2.2188474655e+01
    1.6050050354e+02    2.2334627151e+01
    1.6060040283e+02    2.2480506897e+01
    1.6070050049e+02    2.2626115799e+01
    1.6080050659e+02    2.2771455765e+01
    1.6090060425e+02    2.2916528702e+01
    1.6100050354e+02    2.3061338425e+01
    1.6110060120e+02    2.3205890656e+01
    1.6120060730e+02    2.3350181580e+01
    1.6130059814e+02    2.3494220734e+01
    1.6140060425e+02    2.3638008118e+01
    1.6150059509e+02    2.3781551361e+01
    1.6160060120e+02    2.3924852371e+01
    1.6170050049e+02    2.4067918777e+01
    1.6180059814e+02    2.4210756302e+01
    1.6190060425e+02    2.4353368759e+01
    1.6200070190e+02    2.4495765686e+01
    1.6210060120e+02    2.4637950897e+01
    1.6220060730e+02    2.4779930115e+01
    1.6230059814e+02    2.4921710968e+01
    1.6240060425e+02    2.5063301086e+01
    1.6250059509e+02    2.5204704285e+01
    1.6260060120e+02    2.5345928192e+01
    1.6270060730e+02    2.5486980438e+01
    1.6280059814e+02    2.5627864838e+01
    1.6290060425e+02    2.5768589020e+01
    1.6300059509e+02    2.5909156799e+01
    1.6310060120e+02    2.6049573898e+01
    1.6320060730e+02    2.6189849854e+01
    1.6330059814e+02    2.6329984665e+01
    1.6340060425e+02    2.6469989777e+01
    1.6350059509e+02    2.6609869003e+01
    1.6360069275e+02    2.6749631882e+01
    1.6370060730e+02    2.6889282227e+01
    1.6380079651e+02    2.7028827667e+01
    1.6390069580e+02    2.7168275833e+01
    1.6400070190e+02    2.7307632446e+01
    1.6410079956e+02    2.7446907043e+01
    1.6420069885e+02    2.7586105347e+01
    1.6430079651e+02    2.7725242615e+01
    1.6440069580e+02    2.7864328384e+01
    1.6450070190e+02    2.8003374100e+01
    1.6460069275e+02    2.8142393112e+01
    1.6470069885e+02    2.8281396866e+01
    1.6480079651e+02    2.8420396805e+01
    1.6490069580e+02    2.8559400558e+01
    1.6500079346e+02    2.8698419571e+01
    1.6510069275e+02    2.8837457657e+01
    1.6520080566e+02    2.8976514816e+01
    1.6530079651e+02    2.9115596771e+01
    1.6540069580e+02    2.9254703522e+01
    1.6550070190e+02    2.9393833160e+01
    1.6560079956e+02    2.9532987595e+01
    1.6570089722e+02    2.9672166824e+01
    1.6580079651e+02    2.9811380386e+01
    1.6590089417e+02    2.9950626373e+01
    1.6600070190e+02    3.0089912415e+01
    1.6610079956e+02    3.0229248047e+01
    1.6620089722e+02    3.0368637085e+01
    1.6630079651e+02    3.0508094788e+01
    1.6640080261e+02    3.0647634506e+01
    1.6650090027e+02    3.0787265778e+01
    1.6660090637e+02    3.0927007675e+01
    1.6670089722e+02    3.1066867828e+01
    1.6680090332e+02    3.1206863403e+01
    1.6690089417e+02    3.1347003937e+01
    1.6700079346e+02    3.1487302780e+01
    1.6710090637e+02    3.1627767563e+01
    1.6720100403e+02    3.1768411636e+01
    1.6730090332e+02    3.1909238815e+01
    1.6740100098e+02    3.2050262451e+01
    1.6750079346e+02    3.2191490173e+01
    1.6760090637e+02    3.2332931519e+01
    1.6770089722e+02    3.2474601746e+01
    1.6780099487e+02    3.2616504669e+01
    1.6790089417e+02    3.2758655548e+01
    1.6800100708e+02    3.2901058197e+01
    1.6810090637e+02    3.3043724060e+01
    1.6820100403e+02    3.3186664581e+01
    1.6830090332e+02    3.3329883575e+01
    1.6840100098e+02    3.3473392487e+01
    1.6850090027e+02    3.3617206573e+01
    1.6860099792e+02    3.3761325836e+01
    1.6870100403e+02    3.3905765533e+01
    1.6880099487e+02    3.4050529480e+01
    1.6890109253e+02    3.4195629120e+01
    1.6900109863e+02    3.4341072083e+01
    1.6910099792e+02    3.4486873627e+01
    1.6920100403e+02    3.4633037567e+01
    1.6930099487e+02    3.4779579163e+01
    1.6940100098e+02    3.4926502228e+01
    1.6950109863e+02    3.5073818207e+01
    1.6960110474e+02    3.5221534729e+01
    1.6970100403e+02    3.5369663239e+01
    1.6980099487e+02    3.5518207550e+01
    1.6990109253e+02    3.5667186737e+01
    1.7000100708e+02    3.5816604614e+01
    1.7010110474e+02    3.5966472626e+01
    1.7020109558e+02    3.6116798401e+01
    1.7030099487e+02    3.6267593384e+01
    1.7040119934e+02    3.6418865204e+01
    1.7050109863e+02    3.6570625305e+01
    1.7060119629e+02    3.6722877502e+01
    1.7070109558e+02    3.6875637054e+01
    1.7080099487e+02    3.7028915405e+01
    1.7090109253e+02    3.7182716370e+01
    1.7100109863e+02    3.7337051392e+01
    1.7110110474e+02    3.7491928101e+01
    1.7120109558e+02    3.7647354126e+01
    1.7130110168e+02    3.7803344727e+01
    1.7140109253e+02    3.7959903717e+01
    1.7150120544e+02    3.8117038727e+01
    1.7160119629e+02    3.8274765015e+01
    1.7170120239e+02    3.8433082581e+01
    1.7180110168e+02    3.8592002869e+01
    1.7190130615e+02    3.8751533508e+01
    1.7200120544e+02    3.8911685944e+01
    1.7210119629e+02    3.9072471619e+01
    1.7220120239e+02    3.9233890533e+01
    1.7230119324e+02    3.9395957947e+01
    1.7240119934e+02    3.9558681488e+01
    1.7250120544e+02    3.9722064972e+01
    1.7260119629e+02    3.9886123657e+01
    1.7270129395e+02    4.0050865173e+01
    1.7280119324e+02    4.0216293335e+01
    1.7290119934e+02    4.0382419586e+01
    1.7300120544e+02    4.0549251556e+01
    1.7310130310e+02    4.0716804504e+01
    1.7320120239e+02    4.0885082245e+01
    1.7330130005e+02    4.1054100037e+01
    1.7340130615e+02    4.1223865509e+01
    1.7350129700e+02    4.1394386292e+01
    1.7360130310e+02    4.1565677643e+01
    1.7370120239e+02    4.1737743378e+01
    1.7380130005e+02    4.1910587311e+01
    1.7390130615e+02    4.2084228516e+01
    1.7400140381e+02    4.2258666992e+01
    1.7410130310e+02    4.2433910370e+01
    1.7420140076e+02    4.2609958649e+01
    1.7430140686e+02    4.2786815643e+01
    1.7440139771e+02    4.2964488983e+01
    1.7450140381e+02    4.3142974854e+01
    1.7460130310e+02    4.3322269440e+01
    1.7470129395e+02    4.3502380371e+01
    1.7480130005e+02    4.3683292389e+01
    1.7490130615e+02    4.3865001678e+01
    1.7500129700e+02    4.4047500610e+01
    1.7510139465e+02    4.4230770111e+01
    1.7520129395e+02    4.4414806366e+01
    1.7530140686e+02    4.4599582672e+01
    1.7540139771e+02    4.4785091400e+01
    1.7550140381e+02    4.4971317291e+01
    1.7560130310e+02    4.5158241272e+01
    1.7570150757e+02    4.5345859528e+01
    1.7580140686e+02    4.5534168243e+01
    1.7590139771e+02    4.5723171234e+01
    1.7600149536e+02    4.5912891388e+01
    1.7610139465e+02    4.6103355408e+01
    1.7620140076e+02    4.6294609070e+01
    1.7630149841e+02    4.6486721039e+01
    1.7640150452e+02    4.6679775238e+01
    1.7650149536e+02    4.6873886108e+01
    1.7660150146e+02    4.7069183350e+01
    1.7670159912e+02    4.7265830994e+01
    1.7680140686e+02    4.7464012146e+01
    1.7690150452e+02    4.7663925171e+01
    1.7700140381e+02    4.7865791321e+01
    1.7710159302e+02    4.8069828033e+01
    1.7720150757e+02    4.8276248932e+01
    1.7730149841e+02    4.8485256195e+01
    1.7740159607e+02    4.8697021484e+01
    1.7750140381e+02    4.8911663055e+01
    1.7760150146e+02    4.9129230499e+01
    1.7770150757e+02    4.9349678040e+01
    1.7780149841e+02    4.9572837830e+01
    1.7790159607e+02    4.9798412323e+01
    1.7800149536e+02    5.0025905609e+01
    1.7810150146e+02    5.0254642487e+01
    1.7820150757e+02    5.0483715057e+01
    1.7830160522e+02    5.0711963654e+01
    1.7840170288e+02    5.0937988281e+01
    1.7850160217e+02    5.1160110474e+01
    1.7860159302e+02    5.1376403809e+01
    1.7870150757e+02    5.1584716797e+01
    1.7880149841e+02    5.1782714844e+01
    1.7890159607e+02    5.1967933655e+01
    1.7900160217e+02    5.2137889862e+01
    1.7910169983e+02    5.2290199280e+01
    1.7920159912e+02    5.2422718048e+01
    1.7930169678e+02    5.2533752441e+01
    1.7940159607e+02    5.2622253418e+01
    1.7950160217e+02    5.2688083649e+01
    1.7960169983e+02    5.2732299805e+01
    1.7970159912e+02    5.2757453918e+01
    1.7980160522e+02    5.2767894745e+01
    1.7990159607e+02    5.2770103455e+01
endcurve
