Curveplot
LS-DYNA keyword deck by LS-PrePost
Time
Yrot-displ
Rigid Body Ids
300001 #pts=1800
* Minval=    -8.7498336792e+01 at time=       179.9017028809
* Maxval=     1.0305204773e+02 at time=        67.1995010376
    0.0000000000e+00   -1.3295892813e-06
    9.9978476763e-02   -1.1690555084e-06
    1.9995699823e-01   -8.9920888513e-07
    2.9993548989e-01   -5.0122201856e-07
    3.9991390705e-01    4.2714763282e-08
    4.9993839860e-01    7.4815824291e-07
    5.9985560179e-01    1.6269254957e-06
    6.9993019104e-01    2.6853635973e-06
    7.9993540049e-01    3.9223955355e-06
    8.9984267950e-01    5.3273683989e-06
    9.9984687567e-01    6.8777653723e-06
    1.0998810530e+00    8.5368365035e-06
    1.1999349594e+00    1.0251224012e-05
    1.2999269962e+00    1.1948674910e-05
    1.3999129534e+00    1.3536273400e-05
    1.4999619722e+00    1.4899808775e-05
    1.5999490023e+00    1.5904759493e-05
    1.6998590231e+00    1.6398940716e-05
    1.7999550104e+00    1.6216525182e-05
    1.8999309540e+00    1.5183001778e-05
    1.9999929667e+00    1.3120710719e-05
    2.0999779701e+00    9.8544987850e-06
    2.1998178959e+00    5.2171758398e-06
    2.2999179363e+00   -9.4549170626e-07
    2.3998789787e+00   -8.7704283942e-06
    2.4998950958e+00   -1.8373737475e-05
    2.5999629498e+00   -2.9848131817e-05
    2.6999669075e+00   -4.3261301471e-05
    2.7998719215e+00   -5.8655026805e-05
    2.8999910355e+00   -7.6044882007e-05
    2.9999370575e+00   -9.5420407888e-05
    3.0998280048e+00   -1.1674602865e-04
    3.1998329163e+00   -1.3996251801e-04
    3.2998809814e+00   -1.6498916375e-04
    3.3998949528e+00   -1.9172640168e-04
    3.4998281002e+00   -2.2005829669e-04
    3.5999100208e+00   -2.4985484197e-04
    3.6999599934e+00   -2.8097318136e-04
    3.7998960018e+00   -3.1325817690e-04
    3.8998661041e+00   -3.4654163755e-04
    3.9999270439e+00   -3.8064099499e-04
    4.0998330116e+00   -4.1535729542e-04
    4.1998929977e+00   -4.5047292951e-04
    4.2999172211e+00   -4.8574930406e-04
    4.3999428749e+00   -5.2092480473e-04
    4.4998769760e+00   -5.5571296252e-04
    4.5998668671e+00   -5.8980105678e-04
    4.6999797821e+00   -6.2284851447e-04
    4.7998461723e+00   -6.5448600799e-04
    4.8999738693e+00   -6.8431399995e-04
    4.9999408722e+00   -7.1190076414e-04
    5.0999398232e+00   -7.3678034823e-04
    5.1999630928e+00   -7.5844896492e-04
    5.2999639511e+00   -7.7636167407e-04
    5.3999309540e+00   -7.8992830822e-04
    5.4999408722e+00   -7.9850881593e-04
    5.5998859406e+00   -8.0140819773e-04
    5.6998310089e+00   -7.9787051072e-04
    5.7998647690e+00   -7.8707194189e-04
    5.8999199867e+00   -7.6811289182e-04
    5.9998621941e+00   -7.4000860332e-04
    6.0998148918e+00   -7.0167967351e-04
    6.1998691559e+00   -6.5194244962e-04
    6.2999720573e+00   -5.8950064704e-04
    6.3999371529e+00   -5.1293929573e-04
    6.4998798370e+00   -4.2072086944e-04
    6.5999479294e+00   -3.1118455809e-04
    6.6999249458e+00   -1.8254888710e-04
    6.7998671532e+00   -3.2917436329e-05
    6.8999562263e+00    1.3971285080e-04
    6.9999327660e+00    3.3744162647e-04
    7.0998191833e+00    5.6245387532e-04
    7.1998071671e+00    8.1700808369e-04
    7.2998070717e+00    1.1034238851e-03
    7.3998990059e+00    1.4240696328e-03
    7.4998550415e+00    1.7813497689e-03
    7.5998430252e+00    2.1776920184e-03
    7.6999120712e+00    2.6155316737e-03
    7.7999038696e+00    3.0972973909e-03
    7.8999371529e+00    3.6253933795e-03
    7.9999589920e+00    4.2021838017e-03
    8.0998249054e+00    4.8299757764e-03
    8.1998910904e+00    5.5110012181e-03
    8.2998323441e+00    6.2474003062e-03
    8.3998775482e+00    7.0412047207e-03
    8.4998970032e+00    7.8943232074e-03
    8.5998849869e+00    8.8085262105e-03
    8.6998519897e+00    9.7854379565e-03
    8.7998647690e+00    1.0826532729e-02
    8.8999519348e+00    1.1933130212e-02
    8.9998245239e+00    1.3106414117e-02
    9.0999956131e+00    1.4347450808e-02
    9.1999826431e+00    1.5657234937e-02
    9.2999582291e+00    1.7036750913e-02
    9.3999853134e+00    1.8487058580e-02
    9.4999065399e+00    2.0009405911e-02
    9.5998163223e+00    2.1605366841e-02
    9.6999387741e+00    2.3276999593e-02
    9.7999725342e+00    2.5027042255e-02
    9.8999156952e+00    2.6859126985e-02
    9.9998359680e+00    2.8778016567e-02
    1.0099920273e+01    3.0789854005e-02
    1.0199950218e+01    3.2902408391e-02
    1.0299839973e+01    3.5125326365e-02
    1.0399889946e+01    3.7470363081e-02
    1.0499979973e+01    3.9951559156e-02
    1.0599949837e+01    4.2585372925e-02
    1.0699850082e+01    4.5390706509e-02
    1.0799960136e+01    4.8388846219e-02
    1.0899999619e+01    5.1603212953e-02
    1.0999930382e+01    5.5058982223e-02
    1.1099920273e+01    5.8782473207e-02
    1.1199890137e+01    6.2800347805e-02
    1.1299909592e+01    6.7138664424e-02
    1.1399920464e+01    7.1821816266e-02
    1.1499910355e+01    7.6871499419e-02
    1.1599869728e+01    8.2305721939e-02
    1.1699879646e+01    8.8138051331e-02
    1.1799940109e+01    9.4377122819e-02
    1.1899849892e+01    1.0102642328e-01
    1.1999979973e+01    1.0808453709e-01
    1.2099949837e+01    1.1554558575e-01
    1.2199950218e+01    1.2340012938e-01
    1.2299900055e+01    1.3163612783e-01
    1.2399959564e+01    1.4024020731e-01
    1.2500000000e+01    1.4919881523e-01
    1.2599969864e+01    1.5849946439e-01
    1.2699930191e+01    1.6813191772e-01
    1.2799850464e+01    1.7808908224e-01
    1.2899979591e+01    1.8836788833e-01
    1.2999979973e+01    1.9896978140e-01
    1.3099829674e+01    2.0990110934e-01
    1.3199930191e+01    2.2117319703e-01
    1.3299860001e+01    2.3280210793e-01
    1.3399909973e+01    2.4480818212e-01
    1.3499979973e+01    2.5721547008e-01
    1.3599960327e+01    2.7005070448e-01
    1.3699970245e+01    2.8334242105e-01
    1.3799909592e+01    2.9711982608e-01
    1.3899889946e+01    3.1141176820e-01
    1.3999890327e+01    3.2624563575e-01
    1.4099860191e+01    3.4164658189e-01
    1.4199999809e+01    3.5763692856e-01
    1.4299860001e+01    3.7423589826e-01
    1.4399999619e+01    3.9145958424e-01
    1.4499839783e+01    4.0932130814e-01
    1.4599889755e+01    4.2783209682e-01
    1.4699859619e+01    4.4700163603e-01
    1.4800020218e+01    4.6683910489e-01
    1.4899990082e+01    4.8735427856e-01
    1.4999899864e+01    5.0855839252e-01
    1.5099849701e+01    5.3046530485e-01
    1.5199879646e+01    5.5309170485e-01
    1.5299929619e+01    5.7645809650e-01
    1.5399900436e+01    6.0058832169e-01
    1.5499870300e+01    6.2550973892e-01
    1.5599929810e+01    6.5125256777e-01
    1.5699919701e+01    6.7784917355e-01
    1.5799860001e+01    7.0533293486e-01
    1.5899990082e+01    7.3373746872e-01
    1.5999850273e+01    7.6309496164e-01
    1.6099840164e+01    7.9343551397e-01
    1.6199850082e+01    8.2478570938e-01
    1.6299900055e+01    8.5716772079e-01
    1.6399900436e+01    8.9059889317e-01
    1.6499860764e+01    9.2509108782e-01
    1.6599920273e+01    9.6065109968e-01
    1.6699869156e+01    9.9728053808e-01
    1.6800020218e+01    1.0349768400e+00
    1.6899919510e+01    1.0737336874e+00
    1.6999849319e+01    1.1135424376e+00
    1.7099899292e+01    1.1543935537e+00
    1.7199850082e+01    1.1962776184e+00
    1.7299970627e+01    1.2391864061e+00
    1.7399839401e+01    1.2831149101e+00
    1.7500000000e+01    1.3280614614e+00
    1.7599840164e+01    1.3740291595e+00
    1.7699909210e+01    1.4210259914e+00
    1.7800010681e+01    1.4690648317e+00
    1.7899919510e+01    1.5181634426e+00
    1.7999879837e+01    1.5683435202e+00
    1.8099840164e+01    1.6196305752e+00
    1.8200029373e+01    1.6720521450e+00
    1.8299930573e+01    1.7256374359e+00
    1.8399990082e+01    1.7804155350e+00
    1.8500009537e+01    1.8364151716e+00
    1.8599960327e+01    1.8936632872e+00
    1.8699899673e+01    1.9521845579e+00
    1.8799890518e+01    2.0120007992e+00
    1.8899900436e+01    2.0731308460e+00
    1.8999860764e+01    2.1355903149e+00
    1.9099969864e+01    2.1993925571e+00
    1.9199939728e+01    2.2645483017e+00
    1.9299959183e+01    2.3310666084e+00
    1.9399909973e+01    2.3989560604e+00
    1.9499849319e+01    2.4682245255e+00
    1.9599939346e+01    2.5388808250e+00
    1.9699899673e+01    2.6109347343e+00
    1.9799869537e+01    2.6843969822e+00
    1.9900030136e+01    2.7592804432e+00
    2.0000000000e+01    2.8355987072e+00
    2.0100040436e+01    2.9133670330e+00
    2.0199939728e+01    2.9926009178e+00
    2.0299989700e+01    3.0733170509e+00
    2.0399999619e+01    3.1555306911e+00
    2.0499889374e+01    3.2392556667e+00
    2.0599899292e+01    3.3245048523e+00
    2.0699890137e+01    3.4112873077e+00
    2.0799999237e+01    3.4996099472e+00
    2.0899890900e+01    3.5894761086e+00
    2.0999950409e+01    3.6808860302e+00
    2.1099969864e+01    3.7738373280e+00
    2.1199939728e+01    3.8683254719e+00
    2.1299860001e+01    3.9643437862e+00
    2.1399929047e+01    4.0618853569e+00
    2.1499980927e+01    4.1609430313e+00
    2.1599979401e+01    4.2615113258e+00
    2.1699939728e+01    4.3635864258e+00
    2.1799869537e+01    4.4671673775e+00
    2.1899909973e+01    4.5722565651e+00
    2.2000040054e+01    4.6788597107e+00
    2.2099889755e+01    4.7869863510e+00
    2.2199920654e+01    4.8966479301e+00
    2.2299999237e+01    5.0078601837e+00
    2.2399929047e+01    5.1206398010e+00
    2.2499889374e+01    5.2350049019e+00
    2.2599870682e+01    5.3509736061e+00
    2.2700040817e+01    5.4685635567e+00
    2.2799940109e+01    5.5877914429e+00
    2.2899990082e+01    5.7086710930e+00
    2.2999950409e+01    5.8312144279e+00
    2.3100009918e+01    5.9554305077e+00
    2.3200000763e+01    6.0813255310e+00
    2.3299959183e+01    6.2089037895e+00
    2.3399929047e+01    6.3381671906e+00
    2.3499980927e+01    6.4691152573e+00
    2.3600000381e+01    6.6017470360e+00
    2.3699989319e+01    6.7360610962e+00
    2.3799879074e+01    6.8720555305e+00
    2.3900009155e+01    7.0097279549e+00
    2.3999950409e+01    7.1490755081e+00
    2.4099899292e+01    7.2900981903e+00
    2.4200019836e+01    7.4327940941e+00
    2.4299949646e+01    7.5771646500e+00
    2.4399869919e+01    7.7232098579e+00
    2.4499980927e+01    7.8709311485e+00
    2.4600049973e+01    8.0203294754e+00
    2.4699890137e+01    8.1714048386e+00
    2.4800020218e+01    8.3241577148e+00
    2.4899980545e+01    8.4785852432e+00
    2.5000059128e+01    8.6346855164e+00
    2.5099880219e+01    8.7924518585e+00
    2.5200050354e+01    8.9518795013e+00
    2.5299980164e+01    9.1129598618e+00
    2.5399940491e+01    9.2756843567e+00
    2.5499900818e+01    9.4400434494e+00
    2.5599910736e+01    9.6060266495e+00
    2.5699920654e+01    9.7736244202e+00
    2.5799999237e+01    9.9428272247e+00
    2.5900009155e+01    1.0113627434e+01
    2.5999879837e+01    1.0286018372e+01
    2.6099990845e+01    1.0459996223e+01
    2.6200010300e+01    1.0635556221e+01
    2.6300039291e+01    1.0812697411e+01
    2.6399890900e+01    1.0991421700e+01
    2.6500049591e+01    1.1171729088e+01
    2.6599960327e+01    1.1353623390e+01
    2.6700040817e+01    1.1537107468e+01
    2.6799989700e+01    1.1722187042e+01
    2.6900009155e+01    1.1908864975e+01
    2.7000019073e+01    1.2097145081e+01
    2.7099880219e+01    1.2287028313e+01
    2.7200040817e+01    1.2478516579e+01
    2.7299919128e+01    1.2671605110e+01
    2.7399890900e+01    1.2866291046e+01
    2.7500040054e+01    1.3062565804e+01
    2.7599990845e+01    1.3260420799e+01
    2.7700019836e+01    1.3459844589e+01
    2.7799890518e+01    1.3660821915e+01
    2.7900039673e+01    1.3863339424e+01
    2.8000019073e+01    1.4067382812e+01
    2.8100040436e+01    1.4272933960e+01
    2.8200019836e+01    1.4479976654e+01
    2.8299940109e+01    1.4688497543e+01
    2.8400060654e+01    1.4898480415e+01
    2.8500000000e+01    1.5109911919e+01
    2.8599920273e+01    1.5322779655e+01
    2.8699899673e+01    1.5537075043e+01
    2.8799909592e+01    1.5752784729e+01
    2.8899929047e+01    1.5969900131e+01
    2.9000040054e+01    1.6188411713e+01
    2.9099910736e+01    1.6408311844e+01
    2.9199939728e+01    1.6629590988e+01
    2.9299999237e+01    1.6852239609e+01
    2.9399900436e+01    1.7076244354e+01
    2.9500030518e+01    1.7301595688e+01
    2.9600070953e+01    1.7528280258e+01
    2.9699960709e+01    1.7756284714e+01
    2.9800069809e+01    1.7985597610e+01
    2.9899919510e+01    1.8216199875e+01
    2.9999950409e+01    1.8448080063e+01
    3.0099910736e+01    1.8681221008e+01
    3.0199899673e+01    1.8915605545e+01
    3.0299909592e+01    1.9151224136e+01
    3.0399959564e+01    1.9388057709e+01
    3.0500059128e+01    1.9626094818e+01
    3.0600030899e+01    1.9865322113e+01
    3.0699939728e+01    2.0105730057e+01
    3.0800039291e+01    2.0347307205e+01
    3.0900039673e+01    2.0590047836e+01
    3.0999980927e+01    2.0833940506e+01
    3.1099969864e+01    2.1078979492e+01
    3.1200000763e+01    2.1325159073e+01
    3.1300079346e+01    2.1572469711e+01
    3.1399969101e+01    2.1820901871e+01
    3.1500080109e+01    2.2070447922e+01
    3.1599950790e+01    2.2321096420e+01
    3.1699949265e+01    2.2572839737e+01
    3.1799919128e+01    2.2825658798e+01
    3.1900039673e+01    2.3079540253e+01
    3.1999950409e+01    2.3334468842e+01
    3.2100009918e+01    2.3590423584e+01
    3.2199920654e+01    2.3847385406e+01
    3.2300041199e+01    2.4105333328e+01
    3.2400051117e+01    2.4364244461e+01
    3.2500019073e+01    2.4624095917e+01
    3.2600059509e+01    2.4884862900e+01
    3.2699928284e+01    2.5146522522e+01
    3.2800010681e+01    2.5409051895e+01
    3.2899940491e+01    2.5672426224e+01
    3.3000049591e+01    2.5936630249e+01
    3.3099948883e+01    2.6201639175e+01
    3.3199939728e+01    2.6467437744e+01
    3.3300010681e+01    2.6734008789e+01
    3.3400051117e+01    2.7001340866e+01
    3.3499950409e+01    2.7269416809e+01
    3.3599880219e+01    2.7538228989e+01
    3.3699939728e+01    2.7807765961e+01
    3.3799900055e+01    2.8078016281e+01
    3.3899921417e+01    2.8348970413e+01
    3.3999931335e+01    2.8620618820e+01
    3.4100021362e+01    2.8892950058e+01
    3.4200031281e+01    2.9165954590e+01
    3.4299991608e+01    2.9439622879e+01
    3.4399909973e+01    2.9713941574e+01
    3.4500011444e+01    2.9988904953e+01
    3.4599948883e+01    3.0264497757e+01
    3.4699920654e+01    3.0540714264e+01
    3.4799930573e+01    3.0817543030e+01
    3.4899921417e+01    3.1094974518e+01
    3.4999950409e+01    3.1373003006e+01
    3.5099910736e+01    3.1651617050e+01
    3.5199871063e+01    3.1930809021e+01
    3.5299938202e+01    3.2210571289e+01
    3.5400009155e+01    3.2490898132e+01
    3.5499900818e+01    3.2771785736e+01
    3.5599899292e+01    3.3053226471e+01
    3.5700000763e+01    3.3335212708e+01
    3.5799938202e+01    3.3617744446e+01
    3.5900020599e+01    3.3900814056e+01
    3.5999919891e+01    3.4184417725e+01
    3.6099960327e+01    3.4468555450e+01
    3.6199928284e+01    3.4753219604e+01
    3.6299930573e+01    3.5038402557e+01
    3.6399841309e+01    3.5324108124e+01
    3.6499881744e+01    3.5610328674e+01
    3.6599861145e+01    3.5897060394e+01
    3.6699920654e+01    3.6184295654e+01
    3.6799999237e+01    3.6472030640e+01
    3.6899971008e+01    3.6760265350e+01
    3.6999900818e+01    3.7048992157e+01
    3.7099979401e+01    3.7338203430e+01
    3.7199871063e+01    3.7627906799e+01
    3.7299850464e+01    3.7918094635e+01
    3.7399909973e+01    3.8208766937e+01
    3.7499820709e+01    3.8499923706e+01
    3.7599990845e+01    3.8791557312e+01
    3.7699970245e+01    3.9083675385e+01
    3.7799831390e+01    3.9376266479e+01
    3.7899829865e+01    3.9669334412e+01
    3.7999938965e+01    3.9962875366e+01
    3.8099899292e+01    4.0256885529e+01
    3.8199920654e+01    4.0551364899e+01
    3.8299911499e+01    4.0846309662e+01
    3.8399971008e+01    4.1141712189e+01
    3.8499858856e+01    4.1437576294e+01
    3.8599819183e+01    4.1733894348e+01
    3.8699859619e+01    4.2030666351e+01
    3.8799880981e+01    4.2327888489e+01
    3.8899959564e+01    4.2625560760e+01
    3.8999851227e+01    4.2923671722e+01
    3.9099929810e+01    4.3222221375e+01
    3.9199871063e+01    4.3521202087e+01
    3.9299850464e+01    4.3820613861e+01
    3.9399940491e+01    4.4120460510e+01
    3.9499900818e+01    4.4420730591e+01
    3.9599960327e+01    4.4721424103e+01
    3.9699890137e+01    4.5022541046e+01
    3.9799800873e+01    4.5324085236e+01
    3.9899921417e+01    4.5626049042e+01
    3.9999771118e+01    4.5928440094e+01
    4.0099948883e+01    4.6231250763e+01
    4.0199810028e+01    4.6534488678e+01
    4.0299800873e+01    4.6838150024e+01
    4.0399848938e+01    4.7142246246e+01
    4.0499950409e+01    4.7446773529e+01
    4.0599929810e+01    4.7751739502e+01
    4.0699821472e+01    4.8057140350e+01
    4.0799880981e+01    4.8362987518e+01
    4.0899818420e+01    4.8669269562e+01
    4.0999881744e+01    4.8975997925e+01
    4.1099880219e+01    4.9283168793e+01
    4.1199790955e+01    4.9590778351e+01
    4.1299869537e+01    4.9898822784e+01
    4.1399871826e+01    5.0207294464e+01
    4.1499839783e+01    5.0516185760e+01
    4.1599788666e+01    5.0825481415e+01
    4.1699810028e+01    5.1135169983e+01
    4.1799789429e+01    5.1445228577e+01
    4.1899810791e+01    5.1755638123e+01
    4.1999771118e+01    5.2066371918e+01
    4.2099868774e+01    5.2377403259e+01
    4.2199821472e+01    5.2688694000e+01
    4.2299758911e+01    5.3000221252e+01
    4.2399898529e+01    5.3311946869e+01
    4.2499858856e+01    5.3623847961e+01
    4.2599918365e+01    5.3935886383e+01
    4.2699890137e+01    5.4248054504e+01
    4.2799800873e+01    5.4560317993e+01
    4.2899799347e+01    5.4872661591e+01
    4.2999820709e+01    5.5185073853e+01
    4.3099880219e+01    5.5497531891e+01
    4.3199779510e+01    5.5810020447e+01
    4.3299758911e+01    5.6122528076e+01
    4.3399848938e+01    5.6435035706e+01
    4.3499820709e+01    5.6747528076e+01
    4.3599731445e+01    5.7059993744e+01
    4.3699748993e+01    5.7372417450e+01
    4.3799900055e+01    5.7684787750e+01
    4.3899730682e+01    5.7997100830e+01
    4.3999858856e+01    5.8309345245e+01
    4.4099861145e+01    5.8621505737e+01
    4.4199779510e+01    5.8933586121e+01
    4.4299739838e+01    5.9245567322e+01
    4.4399700165e+01    5.9557441711e+01
    4.4499729156e+01    5.9869186401e+01
    4.4599758148e+01    6.0180782318e+01
    4.4699829102e+01    6.0492191315e+01
    4.4799880981e+01    6.0803375244e+01
    4.4899871826e+01    6.1114284515e+01
    4.4999710083e+01    6.1424877167e+01
    4.5099849701e+01    6.1735095978e+01
    4.5199840546e+01    6.2044891357e+01
    4.5299831390e+01    6.2354209900e+01
    4.5399780273e+01    6.2662998199e+01
    4.5499698639e+01    6.2971195221e+01
    4.5599769592e+01    6.3278751373e+01
    4.5699810028e+01    6.3585617065e+01
    4.5799758911e+01    6.3891742706e+01
    4.5899688721e+01    6.4197082520e+01
    4.5999809265e+01    6.4501594543e+01
    4.6099681854e+01    6.4805252075e+01
    4.6199821472e+01    6.5108016968e+01
    4.6299800873e+01    6.5409866333e+01
    4.6399829865e+01    6.5710784912e+01
    4.6499771118e+01    6.6010772705e+01
    4.6599769592e+01    6.6309822083e+01
    4.6699771881e+01    6.6607955933e+01
    4.6799800873e+01    6.6905174255e+01
    4.6899799347e+01    6.7201484680e+01
    4.6999790192e+01    6.7496910095e+01
    4.7099788666e+01    6.7791465759e+01
    4.7199718475e+01    6.8085174561e+01
    4.7299739838e+01    6.8378028870e+01
    4.7399810791e+01    6.8670043945e+01
    4.7499721527e+01    6.8961227417e+01
    4.7599681854e+01    6.9251571655e+01
    4.7699821472e+01    6.9541091919e+01
    4.7799819946e+01    6.9829765320e+01
    4.7899719238e+01    7.0117607117e+01
    4.7999839783e+01    7.0404609680e+01
    4.8099758148e+01    7.0690788269e+01
    4.8199821472e+01    7.0976135254e+01
    4.8299671173e+01    7.1260650635e+01
    4.8399700165e+01    7.1544326782e+01
    4.8499820709e+01    7.1827178955e+01
    4.8599658966e+01    7.2109207153e+01
    4.8699771881e+01    7.2390419006e+01
    4.8799751282e+01    7.2670822144e+01
    4.8899799347e+01    7.2950416565e+01
    4.8999710083e+01    7.3229225159e+01
    4.9099670410e+01    7.3507255554e+01
    4.9199638367e+01    7.3784507751e+01
    4.9299629211e+01    7.4060997009e+01
    4.9399768829e+01    7.4336730957e+01
    4.9499668121e+01    7.4611701965e+01
    4.9599750519e+01    7.4885917664e+01
    4.9699760437e+01    7.5159370422e+01
    4.9799709320e+01    7.5432060242e+01
    4.9899669647e+01    7.5703971863e+01
    4.9999710083e+01    7.5975090027e+01
    5.0099700928e+01    7.6245391846e+01
    5.0199779510e+01    7.6514846802e+01
    5.0299659729e+01    7.6783439636e+01
    5.0399620056e+01    7.7051139832e+01
    5.0499710083e+01    7.7317924500e+01
    5.0599750519e+01    7.7583763123e+01
    5.0699771881e+01    7.7848632812e+01
    5.0799640656e+01    7.8112495422e+01
    5.0899669647e+01    7.8375320435e+01
    5.0999668121e+01    7.8637107849e+01
    5.1099639893e+01    7.8897827148e+01
    5.1199748993e+01    7.9157485962e+01
    5.1299678802e+01    7.9416076660e+01
    5.1399639130e+01    7.9673591614e+01
    5.1499610901e+01    7.9930053711e+01
    5.1599620819e+01    8.0185462952e+01
    5.1699668884e+01    8.0439826965e+01
    5.1799598694e+01    8.0693176270e+01
    5.1899639130e+01    8.0945503235e+01
    5.1999660492e+01    8.1196807861e+01
    5.2099639893e+01    8.1447090149e+01
    5.2199649811e+01    8.1696342468e+01
    5.2299610138e+01    8.1944549561e+01
    5.2399719238e+01    8.2191688538e+01
    5.2499618530e+01    8.2437736511e+01
    5.2599689484e+01    8.2682685852e+01
    5.2699718475e+01    8.2926498413e+01
    5.2799629211e+01    8.3169181824e+01
    5.2899749756e+01    8.3410682678e+01
    5.2999629974e+01    8.3651008606e+01
    5.3099739075e+01    8.3890113831e+01
    5.3199581146e+01    8.4127990723e+01
    5.3299739838e+01    8.4364608765e+01
    5.3399711609e+01    8.4599960327e+01
    5.3499759674e+01    8.4834030151e+01
    5.3599720001e+01    8.5066825867e+01
    5.3699668884e+01    8.5298324585e+01
    5.3799621582e+01    8.5528541565e+01
    5.3899749756e+01    8.5757476807e+01
    5.3999641418e+01    8.5985137939e+01
    5.4099708557e+01    8.6211524963e+01
    5.4199611664e+01    8.6436660767e+01
    5.4299568176e+01    8.6660545349e+01
    5.4399570465e+01    8.6883193970e+01
    5.4499660492e+01    8.7104606628e+01
    5.4599731445e+01    8.7324783325e+01
    5.4699600220e+01    8.7543731689e+01
    5.4799648285e+01    8.7761451721e+01
    5.4899589539e+01    8.7977920532e+01
    5.4999660492e+01    8.8193130493e+01
    5.5099720001e+01    8.8407073975e+01
    5.5199710846e+01    8.8619728088e+01
    5.5299659729e+01    8.8831085205e+01
    5.5399681091e+01    8.9041122437e+01
    5.5499641418e+01    8.9249832153e+01
    5.5599689484e+01    8.9457191467e+01
    5.5699588776e+01    8.9663192749e+01
    5.5799610138e+01    8.9867828369e+01
    5.5899700165e+01    9.0071083069e+01
    5.5999580383e+01    9.0272964478e+01
    5.6099548340e+01    9.0473464966e+01
    5.6199611664e+01    9.0672584534e+01
    5.6299709320e+01    9.0870315552e+01
    5.6399620056e+01    9.1066665649e+01
    5.6499568939e+01    9.1261634827e+01
    5.6599548340e+01    9.1455245972e+01
    5.6699630737e+01    9.1647491455e+01
    5.6799579620e+01    9.1838401794e+01
    5.6899650574e+01    9.2027969360e+01
    5.6999568939e+01    9.2216217041e+01
    5.7099620819e+01    9.2403144836e+01
    5.7199630737e+01    9.2588752747e+01
    5.7299659729e+01    9.2773048401e+01
    5.7399639130e+01    9.2956016541e+01
    5.7499679565e+01    9.3137664795e+01
    5.7599620819e+01    9.3317970276e+01
    5.7699508667e+01    9.3496948242e+01
    5.7799621582e+01    9.3674575806e+01
    5.7899578094e+01    9.3850845337e+01
    5.7999549866e+01    9.4025741577e+01
    5.8099559784e+01    9.4199272156e+01
    5.8199619293e+01    9.4371437073e+01
    5.8299510956e+01    9.4542213440e+01
    5.8399589539e+01    9.4711616516e+01
    5.8499591827e+01    9.4879631042e+01
    5.8599609375e+01    9.5046257019e+01
    5.8699539185e+01    9.5211509705e+01
    5.8799549103e+01    9.5375389099e+01
    5.8899600983e+01    9.5537902832e+01
    5.8999618530e+01    9.5699081421e+01
    5.9099620819e+01    9.5858909607e+01
    5.9199558258e+01    9.6017425537e+01
    5.9299610138e+01    9.6174629211e+01
    5.9399578094e+01    9.6330558777e+01
    5.9499649048e+01    9.6485206604e+01
    5.9599601746e+01    9.6638610840e+01
    5.9699649811e+01    9.6790771484e+01
    5.9799629211e+01    9.6941726685e+01
    5.9899650574e+01    9.7091468811e+01
    5.9999549866e+01    9.7240028381e+01
    6.0099620819e+01    9.7387413025e+01
    6.0199539185e+01    9.7533645630e+01
    6.0299579620e+01    9.7678741455e+01
    6.0399490356e+01    9.7822700500e+01
    6.0499641418e+01    9.7965522766e+01
    6.0599540710e+01    9.8107208252e+01
    6.0699630737e+01    9.8247749329e+01
    6.0799568176e+01    9.8387115479e+01
    6.0899631500e+01    9.8525276184e+01
    6.0999530792e+01    9.8662193298e+01
    6.1099510193e+01    9.8797790527e+01
    6.1199630737e+01    9.8932014465e+01
    6.1299518585e+01    9.9064758301e+01
    6.1399459839e+01    9.9195915222e+01
    6.1499488831e+01    9.9325363159e+01
    6.1599540710e+01    9.9452964783e+01
    6.1699630737e+01    9.9578567505e+01
    6.1799499512e+01    9.9702011108e+01
    6.1899570465e+01    9.9823143005e+01
    6.1999610901e+01    9.9941802979e+01
    6.2099491119e+01    1.0005785370e+02
    6.2199489594e+01    1.0017119598e+02
    6.2299480438e+01    1.0028176117e+02
    6.2399620056e+01    1.0038950348e+02
    6.2499469757e+01    1.0049445343e+02
    6.2599529266e+01    1.0059664917e+02
    6.2699470520e+01    1.0069618988e+02
    6.2799449921e+01    1.0079318237e+02
    6.2899459839e+01    1.0088777161e+02
    6.2999530792e+01    1.0098007965e+02
    6.3099548340e+01    1.0107024384e+02
    6.3199459076e+01    1.0115837860e+02
    6.3299568176e+01    1.0124461365e+02
    6.3399440765e+01    1.0132904053e+02
    6.3499580383e+01    1.0141172791e+02
    6.3599430084e+01    1.0149272919e+02
    6.3699558258e+01    1.0157209778e+02
    6.3799560547e+01    1.0164984131e+02
    6.3899559021e+01    1.0172594452e+02
    6.3999450684e+01    1.0180039978e+02
    6.4099487305e+01    1.0187316132e+02
    6.4199516296e+01    1.0194420624e+02
    6.4299522400e+01    1.0201348114e+02
    6.4399559021e+01    1.0208095551e+02
    6.4499420166e+01    1.0214656830e+02
    6.4599563599e+01    1.0221028137e+02
    6.4699493408e+01    1.0227202606e+02
    6.4799423218e+01    1.0233175659e+02
    6.4899482727e+01    1.0238939667e+02
    6.4999572754e+01    1.0244488525e+02
    6.5099449158e+01    1.0249816132e+02
    6.5199462891e+01    1.0254915619e+02
    6.5299423218e+01    1.0259783936e+02
    6.5399421692e+01    1.0264413452e+02
    6.5499549866e+01    1.0268801117e+02
    6.5599418640e+01    1.0272944641e+02
    6.5699562073e+01    1.0276840210e+02
    6.5799423218e+01    1.0280487823e+02
    6.5899421692e+01    1.0283885193e+02
    6.5999542236e+01    1.0287033844e+02
    6.6099411011e+01    1.0289931488e+02
    6.6199417114e+01    1.0292580414e+02
    6.6299522400e+01    1.0294979858e+02
    6.6399497986e+01    1.0297129822e+02
    6.6499549866e+01    1.0299029541e+02
    6.6599487305e+01    1.0300678253e+02
    6.6699447632e+01    1.0302075195e+02
    6.6799468994e+01    1.0303217316e+02
    6.6899459839e+01    1.0304103851e+02
    6.6999427795e+01    1.0304731750e+02
    6.7099456787e+01    1.0305099487e+02
    6.7199501038e+01    1.0305204773e+02
    6.7299407959e+01    1.0305045319e+02
    6.7399513245e+01    1.0304618835e+02
    6.7499473572e+01    1.0303923798e+02
    6.7599533081e+01    1.0302956390e+02
    6.7699432373e+01    1.0301716614e+02
    6.7799377441e+01    1.0300200653e+02
    6.7899398804e+01    1.0298407745e+02
    6.7999511719e+01    1.0296337128e+02
    6.8099426270e+01    1.0293984985e+02
    6.8199501038e+01    1.0291352844e+02
    6.8299438477e+01    1.0288439178e+02
    6.8399497986e+01    1.0285244751e+02
    6.8499481201e+01    1.0281769562e+02
    6.8599357605e+01    1.0278015137e+02
    6.8699462891e+01    1.0273982239e+02
    6.8799392700e+01    1.0269670868e+02
    6.8899436951e+01    1.0265081024e+02
    6.8999488831e+01    1.0260213470e+02
    6.9099472046e+01    1.0255068207e+02
    6.9199447632e+01    1.0249645996e+02
    6.9299423218e+01    1.0243945312e+02
    6.9399383545e+01    1.0237966156e+02
    6.9499351501e+01    1.0231707764e+02
    6.9599349976e+01    1.0225170135e+02
    6.9699470520e+01    1.0218354797e+02
    6.9799468994e+01    1.0211260223e+02
    6.9899436951e+01    1.0203886414e+02
    6.9999382019e+01    1.0196234131e+02
    7.0099349976e+01    1.0188302612e+02
    7.0199348450e+01    1.0180092621e+02
    7.0299461365e+01    1.0171604156e+02
    7.0399353027e+01    1.0162837219e+02
    7.0499420166e+01    1.0153793335e+02
    7.0599327087e+01    1.0144472504e+02
    7.0699363708e+01    1.0134877777e+02
    7.0799392700e+01    1.0125011444e+02
    7.0899337769e+01    1.0114875793e+02
    7.0999320984e+01    1.0104473877e+02
    7.1099403381e+01    1.0093807983e+02
    7.1199363708e+01    1.0082881165e+02
    7.1299392700e+01    1.0071695709e+02
    7.1399406433e+01    1.0060253906e+02
    7.1499336243e+01    1.0048558044e+02
    7.1599456787e+01    1.0036610413e+02
    7.1699401855e+01    1.0024411774e+02
    7.1799392700e+01    1.0011962891e+02
    7.1899459839e+01    9.9992637634e+01
    7.1999443054e+01    9.9863143921e+01
    7.2099349976e+01    9.9731155396e+01
    7.2199363708e+01    9.9596664429e+01
    7.2299392700e+01    9.9459686279e+01
    7.2399421692e+01    9.9320220947e+01
    7.2499298096e+01    9.9178276062e+01
    7.2599426270e+01    9.9033874512e+01
    7.2699363708e+01    9.8887039185e+01
    7.2799400330e+01    9.8737800598e+01
    7.2899276733e+01    9.8586174011e+01
    7.2999412537e+01    9.8432197571e+01
    7.3099372864e+01    9.8275901794e+01
    7.3199417114e+01    9.8117332458e+01
    7.3299308777e+01    9.7956497192e+01
    7.3399337769e+01    9.7793441772e+01
    7.3499420166e+01    9.7628189087e+01
    7.3599296570e+01    9.7460777283e+01
    7.3699340820e+01    9.7291252136e+01
    7.3799331665e+01    9.7119644165e+01
    7.3899391174e+01    9.6945991516e+01
    7.3999420166e+01    9.6770339966e+01
    7.4099349976e+01    9.6592712402e+01
    7.4199386597e+01    9.6413146973e+01
    7.4299346924e+01    9.6231674194e+01
    7.4399398804e+01    9.6048324585e+01
    7.4499389648e+01    9.5863143921e+01
    7.4599281311e+01    9.5676147461e+01
    7.4699363708e+01    9.5487373352e+01
    7.4799346924e+01    9.5296852112e+01
    7.4899322510e+01    9.5104614258e+01
    7.4999313354e+01    9.4910690308e+01
    7.5099403381e+01    9.4715110779e+01
    7.5199417114e+01    9.4517913818e+01
    7.5299392700e+01    9.4319160461e+01
    7.5399276733e+01    9.4118881226e+01
    7.5499366760e+01    9.3917152405e+01
    7.5599273682e+01    9.3714027405e+01
    7.5699371338e+01    9.3509552002e+01
    7.5799377441e+01    9.3303810120e+01
    7.5899383545e+01    9.3096855164e+01
    7.5999313354e+01    9.2888771057e+01
    7.6099403381e+01    9.2679626465e+01
    7.6199256897e+01    9.2469497681e+01
    7.6299392700e+01    9.2258460999e+01
    7.6399269104e+01    9.2046592712e+01
    7.6499290466e+01    9.1833953857e+01
    7.6599243164e+01    9.1620620728e+01
    7.6699302673e+01    9.1406654358e+01
    7.6799278259e+01    9.1192115784e+01
    7.6899368286e+01    9.0977050781e+01
    7.6999351501e+01    9.0761528015e+01
    7.7099349976e+01    9.0545578003e+01
    7.7199363708e+01    9.0329269409e+01
    7.7299247742e+01    9.0112625122e+01
    7.7399230957e+01    8.9895698547e+01
    7.7499282837e+01    8.9678535461e+01
    7.7599380493e+01    8.9461166382e+01
    7.7699241638e+01    8.9243659973e+01
    7.7799263000e+01    8.9026069641e+01
    7.7899246216e+01    8.8808464050e+01
    7.7999328613e+01    8.8590927124e+01
    7.8099250793e+01    8.8373535156e+01
    7.8199203491e+01    8.8156387329e+01
    7.8299217224e+01    8.7939582825e+01
    7.8399360657e+01    8.7723220825e+01
    7.8499336243e+01    8.7507392883e+01
    7.8599372864e+01    8.7292190552e+01
    7.8699272156e+01    8.7077682495e+01
    7.8799263000e+01    8.6863945007e+01
    7.8899208069e+01    8.6651039124e+01
    7.8999328613e+01    8.6439033508e+01
    7.9099349976e+01    8.6227973938e+01
    7.9199279785e+01    8.6017913818e+01
    7.9299316406e+01    8.5808898926e+01
    7.9399353027e+01    8.5600982666e+01
    7.9499267578e+01    8.5394203186e+01
    7.9599342346e+01    8.5188606262e+01
    7.9699203491e+01    8.4984237671e+01
    7.9799293518e+01    8.4781143188e+01
    7.9899261475e+01    8.4579360962e+01
    7.9999282837e+01    8.4378936768e+01
    8.0099243164e+01    8.4179908752e+01
    8.0199256897e+01    8.3982330322e+01
    8.0299331665e+01    8.3786239624e+01
    8.0399276733e+01    8.3591674805e+01
    8.0499336243e+01    8.3398696899e+01
    8.0599243164e+01    8.3207336426e+01
    8.0699241638e+01    8.3017654419e+01
    8.0799232483e+01    8.2829696655e+01
    8.0899322510e+01    8.2643516541e+01
    8.0999221802e+01    8.2459152222e+01
    8.1099273682e+01    8.2276672363e+01
    8.1199226379e+01    8.2096099854e+01
    8.1299217224e+01    8.1917503357e+01
    8.1399322510e+01    8.1740921021e+01
    8.1499290466e+01    8.1566406250e+01
    8.1599296570e+01    8.1394004822e+01
    8.1699310303e+01    8.1223770142e+01
    8.1799263000e+01    8.1055740356e+01
    8.1899169922e+01    8.0889953613e+01
    8.1999153137e+01    8.0726425171e+01
    8.2099258423e+01    8.0565200806e+01
    8.2199172974e+01    8.0406295776e+01
    8.2299301147e+01    8.0249740601e+01
    8.2399276733e+01    8.0095535278e+01
    8.2499206543e+01    7.9943710327e+01
    8.2599136353e+01    7.9794250488e+01
    8.2699203491e+01    7.9647171021e+01
    8.2799270630e+01    7.9502464294e+01
    8.2899116516e+01    7.9360145569e+01
    8.2999137878e+01    7.9220214844e+01
    8.3099189758e+01    7.9082656860e+01
    8.3199142456e+01    7.8947486877e+01
    8.3299217224e+01    7.8814682007e+01
    8.3399192810e+01    7.8684265137e+01
    8.3499267578e+01    7.8556221008e+01
    8.3599243164e+01    7.8430549622e+01
    8.3699218750e+01    7.8307243347e+01
    8.3799293518e+01    7.8186294556e+01
    8.3899223328e+01    7.8067695618e+01
    8.3999282837e+01    7.7951416016e+01
    8.4099273682e+01    7.7837455750e+01
    8.4199127197e+01    7.7725799561e+01
    8.4299217224e+01    7.7616409302e+01
    8.4399177551e+01    7.7509284973e+01
    8.4499237061e+01    7.7404396057e+01
    8.4599197388e+01    7.7301719666e+01
    8.4699119568e+01    7.7201232910e+01
    8.4799102783e+01    7.7102905273e+01
    8.4899246216e+01    7.7006706238e+01
    8.4999198914e+01    7.6912605286e+01
    8.5099212646e+01    7.6820571899e+01
    8.5199203491e+01    7.6730567932e+01
    8.5299140930e+01    7.6642539978e+01
    8.5399177551e+01    7.6556442261e+01
    8.5499259949e+01    7.6472213745e+01
    8.5599090576e+01    7.6389785767e+01
    8.5699203491e+01    7.6309089661e+01
    8.5799133301e+01    7.6230072021e+01
    8.5899108887e+01    7.6152671814e+01
    8.5999191284e+01    7.6076812744e+01
    8.6099090576e+01    7.6002449036e+01
    8.6199226379e+01    7.5929519653e+01
    8.6299240112e+01    7.5857955933e+01
    8.6399208069e+01    7.5787704468e+01
    8.6499237061e+01    7.5718719482e+01
    8.6599090576e+01    7.5650939941e+01
    8.6699127197e+01    7.5584327698e+01
    8.6799232483e+01    7.5518829346e+01
    8.6899139404e+01    7.5454391479e+01
    8.6999206543e+01    7.5390975952e+01
    8.7099060059e+01    7.5328536987e+01
    8.7199119568e+01    7.5267036438e+01
    8.7299102783e+01    7.5206436157e+01
    8.7399223328e+01    7.5146697998e+01
    8.7499229431e+01    7.5087806702e+01
    8.7599060059e+01    7.5029731750e+01
    8.7699073792e+01    7.4972434998e+01
    8.7799201965e+01    7.4915901184e+01
    8.7899147034e+01    7.4860107422e+01
    8.7999183655e+01    7.4805015564e+01
    8.8099136353e+01    7.4750617981e+01
    8.8199081421e+01    7.4696868896e+01
    8.8299102783e+01    7.4643745422e+01
    8.8399093628e+01    7.4591217041e+01
    8.8499206543e+01    7.4539253235e+01
    8.8599029541e+01    7.4487823486e+01
    8.8699096680e+01    7.4436897278e+01
    8.8799201965e+01    7.4386451721e+01
    8.8899093628e+01    7.4336448669e+01
    8.8999137878e+01    7.4286872864e+01
    8.9099128723e+01    7.4237693787e+01
    8.9199043274e+01    7.4188903809e+01
    8.9299026489e+01    7.4140472412e+01
    8.9399063110e+01    7.4092399597e+01
    8.9499168396e+01    7.4044662476e+01
    8.9599128723e+01    7.3997253418e+01
    8.9699203491e+01    7.3950141907e+01
    8.9799156189e+01    7.3903312683e+01
    8.9899063110e+01    7.3856735229e+01
    8.9999130249e+01    7.3810371399e+01
    9.0099182129e+01    7.3764190674e+01
    9.0199050903e+01    7.3718147278e+01
    9.0299057007e+01    7.3672195435e+01
    9.0399192810e+01    7.3626312256e+01
    9.0499107361e+01    7.3580444336e+01
    9.0599060059e+01    7.3534561157e+01
    9.0699020386e+01    7.3488639832e+01
    9.0799171448e+01    7.3442649841e+01
    9.0899169922e+01    7.3396553040e+01
    9.0999069214e+01    7.3350326538e+01
    9.1099098206e+01    7.3303909302e+01
    9.1199096680e+01    7.3257270813e+01
    9.1299011230e+01    7.3210365295e+01
    9.1399017334e+01    7.3163146973e+01
    9.1499107361e+01    7.3115577698e+01
    9.1599029541e+01    7.3067626953e+01
    9.1699172974e+01    7.3019264221e+01
    9.1799049377e+01    7.2970466614e+01
    9.1899002075e+01    7.2921218872e+01
    9.1999153137e+01    7.2871498108e+01
    9.2099136353e+01    7.2821281433e+01
    9.2199043274e+01    7.2770561218e+01
    9.2299026489e+01    7.2719322205e+01
    9.2399093628e+01    7.2667518616e+01
    9.2499076843e+01    7.2615150452e+01
    9.2599060059e+01    7.2562187195e+01
    9.2699020386e+01    7.2508613586e+01
    9.2799018860e+01    7.2454429626e+01
    9.2899047852e+01    7.2399589539e+01
    9.2998977661e+01    7.2344078064e+01
    9.3099052429e+01    7.2287864685e+01
    9.3199043274e+01    7.2230918884e+01
    9.3299118042e+01    7.2173217773e+01
    9.3399116516e+01    7.2114723206e+01
    9.3498962402e+01    7.2055419922e+01
    9.3599037170e+01    7.1995277405e+01
    9.3699119568e+01    7.1934272766e+01
    9.3799102783e+01    7.1872352600e+01
    9.3898956299e+01    7.1809516907e+01
    9.3999092102e+01    7.1745712280e+01
    9.4099113464e+01    7.1680931091e+01
    9.4199012756e+01    7.1615135193e+01
    9.4298988342e+01    7.1548309326e+01
    9.4399040222e+01    7.1480430603e+01
    9.4499122620e+01    7.1411483765e+01
    9.4599037170e+01    7.1341438293e+01
    9.4699050903e+01    7.1270278931e+01
    9.4799003601e+01    7.1197982788e+01
    9.4899063110e+01    7.1124534607e+01
    9.4999046326e+01    7.1049903870e+01
    9.5099113464e+01    7.0974075317e+01
    9.5198966980e+01    7.0897018433e+01
    9.5299072266e+01    7.0818717957e+01
    9.5399093628e+01    7.0739151001e+01
    9.5498992920e+01    7.0658302307e+01
    9.5599098206e+01    7.0576141357e+01
    9.5698959351e+01    7.0492645264e+01
    9.5799049377e+01    7.0407798767e+01
    9.5899093628e+01    7.0321571350e+01
    9.5998939514e+01    7.0233955383e+01
    9.6098983765e+01    7.0144920349e+01
    9.6198936462e+01    7.0054450989e+01
    9.6298957825e+01    6.9962524414e+01
    9.6399070740e+01    6.9869125366e+01
    9.6499092102e+01    6.9774238586e+01
    9.6599037170e+01    6.9677856445e+01
    9.6699028015e+01    6.9579963684e+01
    9.6799018860e+01    6.9480552673e+01
    9.6898971558e+01    6.9379592896e+01
    9.6998947144e+01    6.9277084351e+01
    9.7098922729e+01    6.9173004150e+01
    9.7198928833e+01    6.9067329407e+01
    9.7299026489e+01    6.8960067749e+01
    9.7398941040e+01    6.8851188660e+01
    9.7499076843e+01    6.8740699768e+01
    9.7598953247e+01    6.8628578186e+01
    9.7698936462e+01    6.8514823914e+01
    9.7798927307e+01    6.8399421692e+01
    9.7899002075e+01    6.8282371521e+01
    9.7998931885e+01    6.8163650513e+01
    9.8099029541e+01    6.8043251038e+01
    9.8198989868e+01    6.7921150208e+01
    9.8299018860e+01    6.7797348022e+01
    9.8398910522e+01    6.7671821594e+01
    9.8499046326e+01    6.7544563293e+01
    9.8598968506e+01    6.7415573120e+01
    9.8699012756e+01    6.7284835815e+01
    9.8799003601e+01    6.7152351379e+01
    9.8898887634e+01    6.7018104553e+01
    9.8998878479e+01    6.6882087708e+01
    9.9099037170e+01    6.6744285583e+01
    9.9198898315e+01    6.6604698181e+01
    9.9298950195e+01    6.6463310242e+01
    9.9398956299e+01    6.6320114136e+01
    9.9498916626e+01    6.6175109863e+01
    9.9598876953e+01    6.6028297424e+01
    9.9699012756e+01    6.5879669189e+01
    9.9799026489e+01    6.5729240417e+01
    9.9898887634e+01    6.5576988220e+01
    9.9999031067e+01    6.5422935486e+01
    1.0009899902e+02    6.5267082214e+01
    1.0019889832e+02    6.5109420776e+01
    1.0029900360e+02    6.4949935913e+01
    1.0039890289e+02    6.4788627625e+01
    1.0049890137e+02    6.4625495911e+01
    1.0059889984e+02    6.4460533142e+01
    1.0069889832e+02    6.4293754578e+01
    1.0079889679e+02    6.4125144958e+01
    1.0089890289e+02    6.3954719543e+01
    1.0099900055e+02    6.3782485962e+01
    1.0109899902e+02    6.3608448029e+01
    1.0119899750e+02    6.3432609558e+01
    1.0129900360e+02    6.3254981995e+01
    1.0139900208e+02    6.3075565338e+01
    1.0149890137e+02    6.2894355774e+01
    1.0159899902e+02    6.2711357117e+01
    1.0169899750e+02    6.2526561737e+01
    1.0179889679e+02    6.2339977264e+01
    1.0189900208e+02    6.2151599884e+01
    1.0199890137e+02    6.1961433411e+01
    1.0209899902e+02    6.1769481659e+01
    1.0219879913e+02    6.1575763702e+01
    1.0229889679e+02    6.1380279541e+01
    1.0239880371e+02    6.1183052063e+01
    1.0249900055e+02    6.0984092712e+01
    1.0259889984e+02    6.0783412933e+01
    1.0269879913e+02    6.0581027985e+01
    1.0279889679e+02    6.0376941681e+01
    1.0289890289e+02    6.0171157837e+01
    1.0299890137e+02    5.9963691711e+01
    1.0309889984e+02    5.9754539490e+01
    1.0319879913e+02    5.9543720245e+01
    1.0329889679e+02    5.9331233978e+01
    1.0339900208e+02    5.9117088318e+01
    1.0349890137e+02    5.8901294708e+01
    1.0359889984e+02    5.8683864594e+01
    1.0369899750e+02    5.8464801788e+01
    1.0379889679e+02    5.8244125366e+01
    1.0389890289e+02    5.8021831512e+01
    1.0399900055e+02    5.7797946930e+01
    1.0409899902e+02    5.7572486877e+01
    1.0419879913e+02    5.7345462799e+01
    1.0429879761e+02    5.7116905212e+01
    1.0439900208e+02    5.6886825562e+01
    1.0449890137e+02    5.6655246735e+01
    1.0459880066e+02    5.6422187805e+01
    1.0469879913e+02    5.6187660217e+01
    1.0479900360e+02    5.5951683044e+01
    1.0489890289e+02    5.5714279175e+01
    1.0499890137e+02    5.5475460052e+01
    1.0509889984e+02    5.5235240936e+01
    1.0519879913e+02    5.4993640900e+01
    1.0529879761e+02    5.4750671387e+01
    1.0539890289e+02    5.4506343842e+01
    1.0549890137e+02    5.4260677338e+01
    1.0559889984e+02    5.4013690948e+01
    1.0569889832e+02    5.3765396118e+01
    1.0579879761e+02    5.3515811920e+01
    1.0589880371e+02    5.3264965057e+01
    1.0599890137e+02    5.3012866974e+01
    1.0609889984e+02    5.2759548187e+01
    1.0619889832e+02    5.2505023956e+01
    1.0629879761e+02    5.2249324799e+01
    1.0639890289e+02    5.1992477417e+01
    1.0649890137e+02    5.1734493256e+01
    1.0659889984e+02    5.1475406647e+01
    1.0669879913e+02    5.1215236664e+01
    1.0679889679e+02    5.0954002380e+01
    1.0689890289e+02    5.0691726685e+01
    1.0699880219e+02    5.0428428650e+01
    1.0709880066e+02    5.0164131165e+01
    1.0719879913e+02    4.9898853302e+01
    1.0729889679e+02    4.9632614136e+01
    1.0739890289e+02    4.9365436554e+01
    1.0749870300e+02    4.9097347260e+01
    1.0759880066e+02    4.8828361511e+01
    1.0769879913e+02    4.8558502197e+01
    1.0779889679e+02    4.8287796021e+01
    1.0789880371e+02    4.8016258240e+01
    1.0799880219e+02    4.7743923187e+01
    1.0809880066e+02    4.7470806122e+01
    1.0819889832e+02    4.7196933746e+01
    1.0829879761e+02    4.6922332764e+01
    1.0839890289e+02    4.6647029877e+01
    1.0849880219e+02    4.6371044159e+01
    1.0859880066e+02    4.6094402313e+01
    1.0869889832e+02    4.5817131042e+01
    1.0879889679e+02    4.5539253235e+01
    1.0889880371e+02    4.5260787964e+01
    1.0899880219e+02    4.4981761932e+01
    1.0909870148e+02    4.4702201843e+01
    1.0919879913e+02    4.4422122955e+01
    1.0929869843e+02    4.4141555786e+01
    1.0939880371e+02    4.3860511780e+01
    1.0949880219e+02    4.3579025269e+01
    1.0959880066e+02    4.3297111511e+01
    1.0969879913e+02    4.3014797211e+01
    1.0979879761e+02    4.2732101440e+01
    1.0989880371e+02    4.2449054718e+01
    1.0999880219e+02    4.2165672302e+01
    1.1009889984e+02    4.1881984711e+01
    1.1019889832e+02    4.1598022461e+01
    1.1029869843e+02    4.1313808441e+01
    1.1039890289e+02    4.1029369354e+01
    1.1049890137e+02    4.0744731903e+01
    1.1059889984e+02    4.0459926605e+01
    1.1069869995e+02    4.0174976349e+01
    1.1079879761e+02    3.9889915466e+01
    1.1089880371e+02    3.9604766846e+01
    1.1099880219e+02    3.9319564819e+01
    1.1109889984e+02    3.9034332275e+01
    1.1119889832e+02    3.8749092102e+01
    1.1129889679e+02    3.8463859558e+01
    1.1139880371e+02    3.8178657532e+01
    1.1149880219e+02    3.7893497467e+01
    1.1159880066e+02    3.7608390808e+01
    1.1169879913e+02    3.7323348999e+01
    1.1179879761e+02    3.7038379669e+01
    1.1189890289e+02    3.6753501892e+01
    1.1199870300e+02    3.6468715668e+01
    1.1209880066e+02    3.6184040070e+01
    1.1219869995e+02    3.5899486542e+01
    1.1229869843e+02    3.5615070343e+01
    1.1239880371e+02    3.5330814362e+01
    1.1249870300e+02    3.5046730042e+01
    1.1259870148e+02    3.4762836456e+01
    1.1269869995e+02    3.4479152679e+01
    1.1279869843e+02    3.4195693970e+01
    1.1289869690e+02    3.3912483215e+01
    1.1299880219e+02    3.3629543304e+01
    1.1309880066e+02    3.3346893311e+01
    1.1319869995e+02    3.3064552307e+01
    1.1329879761e+02    3.2782546997e+01
    1.1339880371e+02    3.2500888824e+01
    1.1349870300e+02    3.2219604492e+01
    1.1359880066e+02    3.1938703537e+01
    1.1369869995e+02    3.1658197403e+01
    1.1379879761e+02    3.1378101349e+01
    1.1389880371e+02    3.1098419189e+01
    1.1399880219e+02    3.0819162369e+01
    1.1409870148e+02    3.0540338516e+01
    1.1419869995e+02    3.0261957169e+01
    1.1429869843e+02    2.9984027863e+01
    1.1439869690e+02    2.9706562042e+01
    1.1449870300e+02    2.9429565430e+01
    1.1459870148e+02    2.9153049469e+01
    1.1469879913e+02    2.8877017975e+01
    1.1479869843e+02    2.8601478577e+01
    1.1489869690e+02    2.8326433182e+01
    1.1499880219e+02    2.8051885605e+01
    1.1509870148e+02    2.7777837753e+01
    1.1519869995e+02    2.7504287720e+01
    1.1529859924e+02    2.7231237411e+01
    1.1539880371e+02    2.6958684921e+01
    1.1549859619e+02    2.6686624527e+01
    1.1559870148e+02    2.6415056229e+01
    1.1569869995e+02    2.6143978119e+01
    1.1579869843e+02    2.5873382568e+01
    1.1589880371e+02    2.5603265762e+01
    1.1599880219e+02    2.5333621979e+01
    1.1609880066e+02    2.5064449310e+01
    1.1619879913e+02    2.4795736313e+01
    1.1629859924e+02    2.4527475357e+01
    1.1639869690e+02    2.4259660721e+01
    1.1649859619e+02    2.3992282867e+01
    1.1659870148e+02    2.3725330353e+01
    1.1669879913e+02    2.3458799362e+01
    1.1679879761e+02    2.3192680359e+01
    1.1689880371e+02    2.2926963806e+01
    1.1699859619e+02    2.2661642075e+01
    1.1709870148e+02    2.2396705627e+01
    1.1719869995e+02    2.2132148743e+01
    1.1729879761e+02    2.1867959976e+01
    1.1739869690e+02    2.1604131699e+01
    1.1749859619e+02    2.1340660095e+01
    1.1759870148e+02    2.1077533722e+01
    1.1769869995e+02    2.0814744949e+01
    1.1779859924e+02    2.0552289963e+01
    1.1789869690e+02    2.0290161133e+01
    1.1799859619e+02    2.0028352737e+01
    1.1809870148e+02    1.9766853333e+01
    1.1819860077e+02    1.9505659103e+01
    1.1829859924e+02    1.9244762421e+01
    1.1839869690e+02    1.8984155655e+01
    1.1849870300e+02    1.8723834991e+01
    1.1859870148e+02    1.8463792801e+01
    1.1869869995e+02    1.8204021454e+01
    1.1879869843e+02    1.7944515228e+01
    1.1889859772e+02    1.7685266495e+01
    1.1899870300e+02    1.7426269531e+01
    1.1909870148e+02    1.7167516708e+01
    1.1919869995e+02    1.6909000397e+01
    1.1929869843e+02    1.6650716782e+01
    1.1939869690e+02    1.6392654419e+01
    1.1949870300e+02    1.6134811401e+01
    1.1959860229e+02    1.5877177238e+01
    1.1969869995e+02    1.5619747162e+01
    1.1979869843e+02    1.5362514496e+01
    1.1989869690e+02    1.5105473518e+01
    1.1999870300e+02    1.4848616600e+01
    1.2009870148e+02    1.4591939926e+01
    1.2019860077e+02    1.4335433006e+01
    1.2029869843e+02    1.4079090118e+01
    1.2039869690e+02    1.3822904587e+01
    1.2049870300e+02    1.3566866875e+01
    1.2059870148e+02    1.3310971260e+01
    1.2069860077e+02    1.3055211067e+01
    1.2079859924e+02    1.2799577713e+01
    1.2089869690e+02    1.2544065475e+01
    1.2099859619e+02    1.2288668633e+01
    1.2109870148e+02    1.2033382416e+01
    1.2119869995e+02    1.1778201103e+01
    1.2129859924e+02    1.1523118973e+01
    1.2139849854e+02    1.1268131256e+01
    1.2149870300e+02    1.1013233185e+01
    1.2159870148e+02    1.0758418083e+01
    1.2169860077e+02    1.0503681183e+01
    1.2179850006e+02    1.0249017715e+01
    1.2189869690e+02    9.9944219589e+00
    1.2199859619e+02    9.7398872375e+00
    1.2209860229e+02    9.4854116440e+00
    1.2219860077e+02    9.2309894562e+00
    1.2229859924e+02    8.9766178131e+00
    1.2239859772e+02    8.7222929001e+00
    1.2249870300e+02    8.4680099487e+00
    1.2259860229e+02    8.2137641907e+00
    1.2269860077e+02    7.9595527649e+00
    1.2279869843e+02    7.7053699493e+00
    1.2289859772e+02    7.4512109756e+00
    1.2299849701e+02    7.1970715523e+00
    1.2309850311e+02    6.9429469109e+00
    1.2319850159e+02    6.6888327599e+00
    1.2329869843e+02    6.4347252846e+00
    1.2339859772e+02    6.1806216240e+00
    1.2349859619e+02    5.9265174866e+00
    1.2359860229e+02    5.6724109650e+00
    1.2369860077e+02    5.4182982445e+00
    1.2379869843e+02    5.1641783714e+00
    1.2389869690e+02    4.9100489616e+00
    1.2399870300e+02    4.6559076309e+00
    1.2409850311e+02    4.4017534256e+00
    1.2419850159e+02    4.1475839615e+00
    1.2429859924e+02    3.8933975697e+00
    1.2439859772e+02    3.6391942501e+00
    1.2449859619e+02    3.3849735260e+00
    1.2459870148e+02    3.1307356358e+00
    1.2469850159e+02    2.8764803410e+00
    1.2479850006e+02    2.6222081184e+00
    1.2489859772e+02    2.3679189682e+00
    1.2499849701e+02    2.1136138439e+00
    1.2509850311e+02    1.8592929840e+00
    1.2519850159e+02    1.6049575806e+00
    1.2529850006e+02    1.3506083488e+00
    1.2539859772e+02    1.0962468386e+00
    1.2549859619e+02    8.4187394381e-01
    1.2559850311e+02    5.8749073744e-01
    1.2569850159e+02    3.3309808373e-01
    1.2579859924e+02    7.8696839511e-02
    1.2589849854e+02   -1.7571194470e-01
    1.2599859619e+02   -4.3012708426e-01
    1.2609850311e+02   -6.8454718590e-01
    1.2619860077e+02   -9.3897068501e-01
    1.2629859924e+02   -1.1933954954e+00
    1.2639849854e+02   -1.4478193521e+00
    1.2649859619e+02   -1.7022392750e+00
    1.2659860229e+02   -1.9566518068e+00
    1.2669860077e+02   -2.2110526562e+00
    1.2679850006e+02   -2.4654369354e+00
    1.2689859772e+02   -2.7197980881e+00
    1.2699859619e+02   -2.9741284847e+00
    1.2709860229e+02   -3.2284188271e+00
    1.2719840240e+02   -3.4826579094e+00
    1.2729850006e+02   -3.7368326187e+00
    1.2739859772e+02   -3.9909274578e+00
    1.2749859619e+02   -4.2449245453e+00
    1.2759860229e+02   -4.4988036156e+00
    1.2769860077e+02   -4.7525434494e+00
    1.2779850006e+02   -5.0061202049e+00
    1.2789849854e+02   -5.2595105171e+00
    1.2799849701e+02   -5.5126910210e+00
    1.2809849548e+02   -5.7656388283e+00
    1.2819850159e+02   -6.0183339119e+00
    1.2829840088e+02   -6.2707581520e+00
    1.2839860535e+02   -6.5228991508e+00
    1.2849850464e+02   -6.7747478485e+00
    1.2859849548e+02   -7.0263009071e+00
    1.2869850159e+02   -7.2775607109e+00
    1.2879859924e+02   -7.5285353661e+00
    1.2889849854e+02   -7.7792363167e+00
    1.2899850464e+02   -8.0296802521e+00
    1.2909849548e+02   -8.2798871994e+00
    1.2919850159e+02   -8.5298767090e+00
    1.2929859924e+02   -8.7796697617e+00
    1.2939849854e+02   -9.0292854309e+00
    1.2949870300e+02   -9.2787437439e+00
    1.2959860229e+02   -9.5280609131e+00
    1.2969859314e+02   -9.7772474289e+00
    1.2979870605e+02   -1.0026311874e+01
    1.2989860535e+02   -1.0275257111e+01
    1.2999859619e+02   -1.0524083138e+01
    1.3009860229e+02   -1.0772783279e+01
    1.3019869995e+02   -1.1021344185e+01
    1.3029870605e+02   -1.1269746780e+01
    1.3039860535e+02   -1.1517971039e+01
    1.3049859619e+02   -1.1765988350e+01
    1.3059869385e+02   -1.2013767242e+01
    1.3069859314e+02   -1.2261273384e+01
    1.3079870605e+02   -1.2508472443e+01
    1.3089860535e+02   -1.2755328178e+01
    1.3099870300e+02   -1.3001805305e+01
    1.3109880066e+02   -1.3247871399e+01
    1.3119869995e+02   -1.3493497849e+01
    1.3129879761e+02   -1.3738662720e+01
    1.3139869690e+02   -1.3983345032e+01
    1.3149879456e+02   -1.4227530479e+01
    1.3159869385e+02   -1.4471211433e+01
    1.3169869995e+02   -1.4714380264e+01
    1.3179870605e+02   -1.4957033157e+01
    1.3189869690e+02   -1.5199168205e+01
    1.3199870300e+02   -1.5440781593e+01
    1.3209880066e+02   -1.5681869507e+01
    1.3219880676e+02   -1.5922424316e+01
    1.3229879761e+02   -1.6162435532e+01
    1.3239880371e+02   -1.6401891708e+01
    1.3249870300e+02   -1.6640769958e+01
    1.3259880066e+02   -1.6879053116e+01
    1.3269889832e+02   -1.7116712570e+01
    1.3279879761e+02   -1.7353725433e+01
    1.3289880371e+02   -1.7590059280e+01
    1.3299879456e+02   -1.7825689316e+01
    1.3309880066e+02   -1.8060586929e+01
    1.3319889832e+02   -1.8294731140e+01
    1.3329890442e+02   -1.8528100967e+01
    1.3339889526e+02   -1.8760681152e+01
    1.3349879456e+02   -1.8992467880e+01
    1.3359890747e+02   -1.9223457336e+01
    1.3369889832e+02   -1.9453653336e+01
    1.3379890442e+02   -1.9683069229e+01
    1.3389880371e+02   -1.9911718369e+01
    1.3399890137e+02   -2.0139619827e+01
    1.3409899902e+02   -2.0366792679e+01
    1.3419889832e+02   -2.0593257904e+01
    1.3429899597e+02   -2.0819032669e+01
    1.3439889526e+02   -2.1044134140e+01
    1.3449890137e+02   -2.1268571854e+01
    1.3459880066e+02   -2.1492351532e+01
    1.3469889832e+02   -2.1715471268e+01
    1.3479890442e+02   -2.1937923431e+01
    1.3489889526e+02   -2.2159694672e+01
    1.3499899292e+02   -2.2380765915e+01
    1.3509899902e+02   -2.2601110458e+01
    1.3519889832e+02   -2.2820699692e+01
    1.3529890442e+02   -2.3039506912e+01
    1.3539889526e+02   -2.3257499695e+01
    1.3549890137e+02   -2.3474645615e+01
    1.3559899902e+02   -2.3690916061e+01
    1.3569889832e+02   -2.3906288147e+01
    1.3579890442e+02   -2.4120735168e+01
    1.3589889526e+02   -2.4334238052e+01
    1.3599890137e+02   -2.4546785355e+01
    1.3609899902e+02   -2.4758365631e+01
    1.3619889832e+02   -2.4968971252e+01
    1.3629899597e+02   -2.5178596497e+01
    1.3639900208e+02   -2.5387241364e+01
    1.3649899292e+02   -2.5594905853e+01
    1.3659899902e+02   -2.5801589966e+01
    1.3669900513e+02   -2.6007291794e+01
    1.3679910278e+02   -2.6212011337e+01
    1.3689909363e+02   -2.6415744781e+01
    1.3699899292e+02   -2.6618488312e+01
    1.3709899902e+02   -2.6820238113e+01
    1.3719909668e+02   -2.7020988464e+01
    1.3729910278e+02   -2.7220733643e+01
    1.3739909363e+02   -2.7419466019e+01
    1.3749909973e+02   -2.7617183685e+01
    1.3759910583e+02   -2.7813884735e+01
    1.3769909668e+02   -2.8009571075e+01
    1.3779899597e+02   -2.8204242706e+01
    1.3789920044e+02   -2.8397909164e+01
    1.3799909973e+02   -2.8590578079e+01
    1.3809910583e+02   -2.8782264709e+01
    1.3819920349e+02   -2.8972986221e+01
    1.3829910278e+02   -2.9162755966e+01
    1.3839920044e+02   -2.9351594925e+01
    1.3849909973e+02   -2.9539516449e+01
    1.3859910583e+02   -2.9726535797e+01
    1.3869920349e+02   -2.9912664413e+01
    1.3879919434e+02   -3.0097911835e+01
    1.3889920044e+02   -3.0282279968e+01
    1.3899929810e+02   -3.0465770721e+01
    1.3909919739e+02   -3.0648378372e+01
    1.3919909668e+02   -3.0830099106e+01
    1.3929910278e+02   -3.1010921478e+01
    1.3939920044e+02   -3.1190830231e+01
    1.3949920654e+02   -3.1369813919e+01
    1.3959919739e+02   -3.1547859192e+01
    1.3969920349e+02   -3.1724945068e+01
    1.3979930115e+02   -3.1901065826e+01
    1.3989920044e+02   -3.2076206207e+01
    1.3999929810e+02   -3.2250358582e+01
    1.4009919739e+02   -3.2423515320e+01
    1.4019929504e+02   -3.2595676422e+01
    1.4029930115e+02   -3.2766838074e+01
    1.4039939880e+02   -3.2937007904e+01
    1.4049929810e+02   -3.3106189728e+01
    1.4059919739e+02   -3.3274387360e+01
    1.4069940186e+02   -3.3441619873e+01
    1.4079939270e+02   -3.3607898712e+01
    1.4089920044e+02   -3.3773231506e+01
    1.4099929810e+02   -3.3937633514e+01
    1.4109930420e+02   -3.4101112366e+01
    1.4119940186e+02   -3.4263690948e+01
    1.4129939270e+02   -3.4425369263e+01
    1.4139930725e+02   -3.4586166382e+01
    1.4149929810e+02   -3.4746089935e+01
    1.4159930420e+02   -3.4905155182e+01
    1.4169929504e+02   -3.5063365936e+01
    1.4179930115e+02   -3.5220741272e+01
    1.4189930725e+02   -3.5377292633e+01
    1.4199940491e+02   -3.5533027649e+01
    1.4209950256e+02   -3.5687961578e+01
    1.4219929504e+02   -3.5842117310e+01
    1.4229939270e+02   -3.5995506287e+01
    1.4239939880e+02   -3.6148139954e+01
    1.4249940491e+02   -3.6300045013e+01
    1.4259939575e+02   -3.6451236725e+01
    1.4269929504e+02   -3.6601734161e+01
    1.4279930115e+02   -3.6751552582e+01
    1.4289939880e+02   -3.6900707245e+01
    1.4299940491e+02   -3.7049213409e+01
    1.4309939575e+02   -3.7197078705e+01
    1.4319949341e+02   -3.7344318390e+01
    1.4329949951e+02   -3.7490928650e+01
    1.4339950562e+02   -3.7636924744e+01
    1.4349949646e+02   -3.7782299042e+01
    1.4359939575e+02   -3.7927055359e+01
    1.4369940186e+02   -3.8071197510e+01
    1.4379949951e+02   -3.8214717865e+01
    1.4389939880e+02   -3.8357620239e+01
    1.4399949646e+02   -3.8499900818e+01
    1.4409950256e+02   -3.8641567230e+01
    1.4419940186e+02   -3.8782619476e+01
    1.4429960632e+02   -3.8923065186e+01
    1.4439939880e+02   -3.9062911987e+01
    1.4449940491e+02   -3.9202171326e+01
    1.4459950256e+02   -3.9340862274e+01
    1.4469949341e+02   -3.9478996277e+01
    1.4479949951e+02   -3.9616596222e+01
    1.4489950562e+02   -3.9753681183e+01
    1.4499949646e+02   -3.9890277863e+01
    1.4509959412e+02   -4.0026401520e+01
    1.4519960022e+02   -4.0162082672e+01
    1.4529949951e+02   -4.0297332764e+01
    1.4539950562e+02   -4.0432178497e+01
    1.4549960327e+02   -4.0566635132e+01
    1.4559970093e+02   -4.0700717926e+01
    1.4569960022e+02   -4.0834445953e+01
    1.4579969788e+02   -4.0967834473e+01
    1.4589970398e+02   -4.1100898743e+01
    1.4599969482e+02   -4.1233650208e+01
    1.4609950256e+02   -4.1366100311e+01
    1.4619970703e+02   -4.1498260498e+01
    1.4629969788e+02   -4.1630138397e+01
    1.4639970398e+02   -4.1761753082e+01
    1.4649960327e+02   -4.1893108368e+01
    1.4659959412e+02   -4.2024223328e+01
    1.4669960022e+02   -4.2155105591e+01
    1.4679960632e+02   -4.2285778046e+01
    1.4689970398e+02   -4.2416244507e+01
    1.4699960327e+02   -4.2546524048e+01
    1.4709970093e+02   -4.2676631927e+01
    1.4719960022e+02   -4.2806579590e+01
    1.4729969788e+02   -4.2936386108e+01
    1.4739979553e+02   -4.3066062927e+01
    1.4749969482e+02   -4.3195636749e+01
    1.4759970093e+02   -4.3325119019e+01
    1.4769960022e+02   -4.3454521179e+01
    1.4779980469e+02   -4.3583869934e+01
    1.4789979553e+02   -4.3713169098e+01
    1.4799980164e+02   -4.3842433929e+01
    1.4809979248e+02   -4.3971672058e+01
    1.4819970703e+02   -4.4100891113e+01
    1.4829969788e+02   -4.4230094910e+01
    1.4839979553e+02   -4.4359291077e+01
    1.4849980164e+02   -4.4488483429e+01
    1.4859979248e+02   -4.4617679596e+01
    1.4869979858e+02   -4.4746875763e+01
    1.4879980469e+02   -4.4876083374e+01
    1.4889970398e+02   -4.5005306244e+01
    1.4899969482e+02   -4.5134552002e+01
    1.4909979248e+02   -4.5263828278e+01
    1.4919979858e+02   -4.5393146515e+01
    1.4929989624e+02   -4.5522514343e+01
    1.4939979553e+02   -4.5651954651e+01
    1.4949980164e+02   -4.5781482697e+01
    1.4959979248e+02   -4.5911109924e+01
    1.4969990540e+02   -4.6040855408e+01
    1.4979980469e+02   -4.6170742035e+01
    1.4989970398e+02   -4.6300788879e+01
    1.4999980164e+02   -4.6431007385e+01
    1.5009989929e+02   -4.6561408997e+01
    1.5019990540e+02   -4.6692008972e+01
    1.5029980469e+02   -4.6822818756e+01
    1.5039990234e+02   -4.6953834534e+01
    1.5049980164e+02   -4.7085067749e+01
    1.5059989929e+02   -4.7216526031e+01
    1.5069979858e+02   -4.7348205566e+01
    1.5080000305e+02   -4.7480113983e+01
    1.5089990234e+02   -4.7612258911e+01
    1.5100000000e+02   -4.7744636536e+01
    1.5110000610e+02   -4.7877254486e+01
    1.5119999695e+02   -4.8010112762e+01
    1.5129989624e+02   -4.8143218994e+01
    1.5139999390e+02   -4.8276573181e+01
    1.5150000000e+02   -4.8410186768e+01
    1.5160000610e+02   -4.8544055939e+01
    1.5169999695e+02   -4.8678195953e+01
    1.5180000305e+02   -4.8812602997e+01
    1.5189999390e+02   -4.8947284698e+01
    1.5200000000e+02   -4.9082244873e+01
    1.5210000610e+02   -4.9217491150e+01
    1.5220010376e+02   -4.9353023529e+01
    1.5230000305e+02   -4.9488853455e+01
    1.5239999390e+02   -4.9624980927e+01
    1.5250000000e+02   -4.9761405945e+01
    1.5260000610e+02   -4.9898139954e+01
    1.5270010376e+02   -5.0035179138e+01
    1.5280009460e+02   -5.0172531128e+01
    1.5289999390e+02   -5.0310199738e+01
    1.5300000000e+02   -5.0448192596e+01
    1.5310000610e+02   -5.0586509705e+01
    1.5319999695e+02   -5.0725158691e+01
    1.5330009460e+02   -5.0864139557e+01
    1.5340010071e+02   -5.1003463745e+01
    1.5350010681e+02   -5.1143135071e+01
    1.5360000610e+02   -5.1283157349e+01
    1.5370010376e+02   -5.1423538208e+01
    1.5380000305e+02   -5.1564277649e+01
    1.5390010071e+02   -5.1705387115e+01
    1.5400010681e+02   -5.1846866608e+01
    1.5410000610e+02   -5.1988723755e+01
    1.5420019531e+02   -5.2130954742e+01
    1.5430000305e+02   -5.2273567200e+01
    1.5440010071e+02   -5.2416557312e+01
    1.5450000000e+02   -5.2559925079e+01
    1.5460020447e+02   -5.2703666687e+01
    1.5470019531e+02   -5.2847782135e+01
    1.5480009460e+02   -5.2992263794e+01
    1.5490010071e+02   -5.3137104034e+01
    1.5500010681e+02   -5.3282295227e+01
    1.5510009766e+02   -5.3427829742e+01
    1.5520019531e+02   -5.3573703766e+01
    1.5530020142e+02   -5.3719905853e+01
    1.5540029907e+02   -5.3866432190e+01
    1.5550019836e+02   -5.4013267517e+01
    1.5560029602e+02   -5.4160415649e+01
    1.5570019531e+02   -5.4307868958e+01
    1.5580020142e+02   -5.4455623627e+01
    1.5590029907e+02   -5.4603687286e+01
    1.5600019836e+02   -5.4752052307e+01
    1.5610009766e+02   -5.4900722504e+01
    1.5620010376e+02   -5.5049697876e+01
    1.5630029297e+02   -5.5198986053e+01
    1.5640020752e+02   -5.5348590851e+01
    1.5650019836e+02   -5.5498519897e+01
    1.5660029602e+02   -5.5648769379e+01
    1.5670030212e+02   -5.5799346924e+01
    1.5680029297e+02   -5.5950252533e+01
    1.5690020752e+02   -5.6101482391e+01
    1.5700019836e+02   -5.6253040314e+01
    1.5710029602e+02   -5.6404918671e+01
    1.5720019531e+02   -5.6557113647e+01
    1.5730039978e+02   -5.6709621429e+01
    1.5740029907e+02   -5.6862430573e+01
    1.5750039673e+02   -5.7015537262e+01
    1.5760029602e+02   -5.7168941498e+01
    1.5770030212e+02   -5.7322628021e+01
    1.5780029297e+02   -5.7476589203e+01
    1.5790029907e+02   -5.7630817413e+01
    1.5800019836e+02   -5.7785305023e+01
    1.5810040283e+02   -5.7940048218e+01
    1.5820039368e+02   -5.8095039368e+01
    1.5830029297e+02   -5.8250282288e+01
    1.5840029907e+02   -5.8405765533e+01
    1.5850039673e+02   -5.8561500549e+01
    1.5860040283e+02   -5.8717483521e+01
    1.5870039368e+02   -5.8873714447e+01
    1.5880050659e+02   -5.9030193329e+01
    1.5890040588e+02   -5.9186901093e+01
    1.5900050354e+02   -5.9343837738e+01
    1.5910040283e+02   -5.9500984192e+01
    1.5920039368e+02   -5.9658329010e+01
    1.5930039978e+02   -5.9815864563e+01
    1.5940049744e+02   -5.9973579407e+01
    1.5950050354e+02   -6.0131454468e+01
    1.5960040283e+02   -6.0289485931e+01
    1.5970050049e+02   -6.0447643280e+01
    1.5980039978e+02   -6.0605915070e+01
    1.5990049744e+02   -6.0764286041e+01
    1.6000050354e+02   -6.0922737122e+01
    1.6010049438e+02   -6.1081260681e+01
    1.6020050049e+02   -6.1239833832e+01
    1.6030039978e+02   -6.1398456573e+01
    1.6040049744e+02   -6.1557121277e+01
    1.6050050354e+02   -6.1715824127e+01
    1.6060040283e+02   -6.1874576569e+01
    1.6070050049e+02   -6.2033378601e+01
    1.6080039978e+02   -6.2192241669e+01
    1.6090049744e+02   -6.2351169586e+01
    1.6100039673e+02   -6.2510181427e+01
    1.6110049438e+02   -6.2669292450e+01
    1.6120050049e+02   -6.2828502655e+01
    1.6130059814e+02   -6.2987827301e+01
    1.6140049744e+02   -6.3147270203e+01
    1.6150059509e+02   -6.3306835175e+01
    1.6160049438e+02   -6.3466510773e+01
    1.6170060730e+02   -6.3626281738e+01
    1.6180050659e+02   -6.3786128998e+01
    1.6190060425e+02   -6.3946022034e+01
    1.6200050354e+02   -6.4105934143e+01
    1.6210060120e+02   -6.4265838623e+01
    1.6220069885e+02   -6.4425697327e+01
    1.6230059814e+02   -6.4585494995e+01
    1.6240060425e+02   -6.4745201111e+01
    1.6250059509e+02   -6.4904815674e+01
    1.6260060120e+02   -6.5064331055e+01
    1.6270060730e+02   -6.5223739624e+01
    1.6280059814e+02   -6.5383049011e+01
    1.6290060425e+02   -6.5542282104e+01
    1.6300070190e+02   -6.5701438904e+01
    1.6310060120e+02   -6.5860534668e+01
    1.6320060730e+02   -6.6019569397e+01
    1.6330059814e+02   -6.6178565979e+01
    1.6340060425e+02   -6.6337509155e+01
    1.6350070190e+02   -6.6496406555e+01
    1.6360060120e+02   -6.6655250549e+01
    1.6370060730e+02   -6.6814048767e+01
    1.6380059814e+02   -6.6972778320e+01
    1.6390069580e+02   -6.7131431580e+01
    1.6400070190e+02   -6.7290000916e+01
    1.6410069275e+02   -6.7448471069e+01
    1.6420080566e+02   -6.7606811523e+01
    1.6430070496e+02   -6.7765007019e+01
    1.6440069580e+02   -6.7923049927e+01
    1.6450070190e+02   -6.8080917358e+01
    1.6460079956e+02   -6.8238578796e+01
    1.6470069885e+02   -6.8396034241e+01
    1.6480070496e+02   -6.8553268433e+01
    1.6490069580e+02   -6.8710281372e+01
    1.6500079346e+02   -6.8867050171e+01
    1.6510079956e+02   -6.9023574829e+01
    1.6520069885e+02   -6.9179847717e+01
    1.6530070496e+02   -6.9335868835e+01
    1.6540089417e+02   -6.9491638184e+01
    1.6550079346e+02   -6.9647178650e+01
    1.6560069275e+02   -6.9802474976e+01
    1.6570080566e+02   -6.9957542419e+01
    1.6580079651e+02   -7.0112380981e+01
    1.6590080261e+02   -7.0266990662e+01
    1.6600079346e+02   -7.0421356201e+01
    1.6610079956e+02   -7.0575485229e+01
    1.6620080566e+02   -7.0729362488e+01
    1.6630079651e+02   -7.0882965088e+01
    1.6640080261e+02   -7.1036300659e+01
    1.6650090027e+02   -7.1189353943e+01
    1.6660079956e+02   -7.1342117310e+01
    1.6670089722e+02   -7.1494583130e+01
    1.6680090332e+02   -7.1646743774e+01
    1.6690080261e+02   -7.1798583984e+01
    1.6700079346e+02   -7.1950103760e+01
    1.6710099792e+02   -7.2101280212e+01
    1.6720089722e+02   -7.2252113342e+01
    1.6730099487e+02   -7.2402595520e+01
    1.6740100098e+02   -7.2552703857e+01
    1.6750100708e+02   -7.2702430725e+01
    1.6760099792e+02   -7.2851783752e+01
    1.6770089722e+02   -7.3000747681e+01
    1.6780090332e+02   -7.3149330139e+01
    1.6790100098e+02   -7.3297515869e+01
    1.6800100708e+02   -7.3445320129e+01
    1.6810099792e+02   -7.3592742920e+01
    1.6820100403e+02   -7.3739791870e+01
    1.6830099487e+02   -7.3886459351e+01
    1.6840100098e+02   -7.4032752991e+01
    1.6850100708e+02   -7.4178665161e+01
    1.6860110474e+02   -7.4324188232e+01
    1.6870109558e+02   -7.4469322205e+01
    1.6880110168e+02   -7.4614059448e+01
    1.6890100098e+02   -7.4758392334e+01
    1.6900090027e+02   -7.4902313232e+01
    1.6910099792e+02   -7.5045822144e+01
    1.6920109558e+02   -7.5188896179e+01
    1.6930099487e+02   -7.5331542969e+01
    1.6940109253e+02   -7.5473762512e+01
    1.6950100708e+02   -7.5615547180e+01
    1.6960110474e+02   -7.5756889343e+01
    1.6970109558e+02   -7.5897804260e+01
    1.6980099487e+02   -7.6038276672e+01
    1.6990100098e+02   -7.6178306580e+01
    1.7000100708e+02   -7.6317909241e+01
    1.7010119629e+02   -7.6457077026e+01
    1.7020120239e+02   -7.6595809937e+01
    1.7030110168e+02   -7.6734115601e+01
    1.7040119934e+02   -7.6871994019e+01
    1.7050109863e+02   -7.7009437561e+01
    1.7060119629e+02   -7.7146453857e+01
    1.7070100403e+02   -7.7283027649e+01
    1.7080099487e+02   -7.7419174194e+01
    1.7090109253e+02   -7.7554870605e+01
    1.7100109863e+02   -7.7690132141e+01
    1.7110110474e+02   -7.7824943542e+01
    1.7120109558e+02   -7.7959289551e+01
    1.7130110168e+02   -7.8093177795e+01
    1.7140109253e+02   -7.8226577759e+01
    1.7150120544e+02   -7.8359504700e+01
    1.7160119629e+02   -7.8491943359e+01
    1.7170109558e+02   -7.8623908997e+01
    1.7180110168e+02   -7.8755401611e+01
    1.7190130615e+02   -7.8886436462e+01
    1.7200109863e+02   -7.9017021179e+01
    1.7210130310e+02   -7.9147163391e+01
    1.7220129395e+02   -7.9276855469e+01
    1.7230110168e+02   -7.9406089783e+01
    1.7240119934e+02   -7.9534873962e+01
    1.7250120544e+02   -7.9663223267e+01
    1.7260130310e+02   -7.9791122437e+01
    1.7270120239e+02   -7.9918579102e+01
    1.7280119324e+02   -8.0045600891e+01
    1.7290130615e+02   -8.0172187805e+01
    1.7300129700e+02   -8.0298339844e+01
    1.7310119629e+02   -8.0424049377e+01
    1.7320129395e+02   -8.0549331665e+01
    1.7330130005e+02   -8.0674186707e+01
    1.7340130615e+02   -8.0798614502e+01
    1.7350120544e+02   -8.0922637939e+01
    1.7360139465e+02   -8.1046241760e+01
    1.7370140076e+02   -8.1169433594e+01
    1.7380119324e+02   -8.1292205811e+01
    1.7390130615e+02   -8.1414550781e+01
    1.7400129700e+02   -8.1536453247e+01
    1.7410130310e+02   -8.1657920837e+01
    1.7420140076e+02   -8.1778945923e+01
    1.7430130005e+02   -8.1899528503e+01
    1.7440130615e+02   -8.2019660950e+01
    1.7450140381e+02   -8.2139343262e+01
    1.7460139465e+02   -8.2258583069e+01
    1.7470140076e+02   -8.2377365112e+01
    1.7480130005e+02   -8.2495697021e+01
    1.7490130615e+02   -8.2613571167e+01
    1.7500140381e+02   -8.2731018066e+01
    1.7510139465e+02   -8.2848030090e+01
    1.7520140076e+02   -8.2964622498e+01
    1.7530130005e+02   -8.3080787659e+01
    1.7540139771e+02   -8.3196525574e+01
    1.7550140381e+02   -8.3311843872e+01
    1.7560150146e+02   -8.3426734924e+01
    1.7570150757e+02   -8.3541191101e+01
    1.7580140686e+02   -8.3655212402e+01
    1.7590150452e+02   -8.3768821716e+01
    1.7600140381e+02   -8.3882034302e+01
    1.7610150146e+02   -8.3994873047e+01
    1.7620150757e+02   -8.4107368469e+01
    1.7630149841e+02   -8.4219566345e+01
    1.7640150452e+02   -8.4331504822e+01
    1.7650140381e+02   -8.4443244934e+01
    1.7660139465e+02   -8.4554840088e+01
    1.7670150757e+02   -8.4666358948e+01
    1.7680149841e+02   -8.4777877808e+01
    1.7690150452e+02   -8.4889480591e+01
    1.7700140381e+02   -8.5001281738e+01
    1.7710150146e+02   -8.5113372803e+01
    1.7720150757e+02   -8.5225860596e+01
    1.7730149841e+02   -8.5338836670e+01
    1.7740150452e+02   -8.5452377319e+01
    1.7750140381e+02   -8.5566535950e+01
    1.7760150146e+02   -8.5681327820e+01
    1.7770159912e+02   -8.5796722412e+01
    1.7780160522e+02   -8.5912658691e+01
    1.7790150452e+02   -8.6028968811e+01
    1.7800160217e+02   -8.6145416260e+01
    1.7810150146e+02   -8.6261695862e+01
    1.7820150757e+02   -8.6377365112e+01
    1.7830160522e+02   -8.6491912842e+01
    1.7840159607e+02   -8.6604682922e+01
    1.7850160217e+02   -8.6714904785e+01
    1.7860150146e+02   -8.6821708679e+01
    1.7870170593e+02   -8.6924110413e+01
    1.7880169678e+02   -8.7021018982e+01
    1.7890159607e+02   -8.7111335754e+01
    1.7900169373e+02   -8.7193916321e+01
    1.7910169983e+02   -8.7267677307e+01
    1.7920159912e+02   -8.7331665039e+01
    1.7930160522e+02   -8.7385131836e+01
    1.7940170288e+02   -8.7427635193e+01
    1.7950160217e+02   -8.7459175110e+01
    1.7960159302e+02   -8.7480308533e+01
    1.7970159912e+02   -8.7492309570e+01
    1.7980169678e+02   -8.7497283936e+01
    1.7990170288e+02   -8.7498336792e+01
endcurve
