Curveplot
LS-DYNA keyword deck by LS-PrePost
Time
phi moment-stiffness
Joint Stiff
iny-300001 #pts=1800
* Minval=    -5.0655058594e+04 at time=        55.9995994568
* Maxval=     1.8206306641e+04 at time=        24.7000007629
    0.0000000000e+00    1.0235184431e-01
    9.9978499115e-02    1.2151456624e-01
    1.9995699823e-01    1.4010624588e-01
    2.9993501306e-01    1.5698507428e-01
    3.9991399646e-01    1.7075487971e-01
    4.9999898672e-01    1.7976148427e-01
    5.9997701645e-01    1.8210132420e-01
    6.9997197390e-01    1.7571032047e-01
    7.9986900091e-01    1.5853968263e-01
    8.9999598265e-01    1.2865500152e-01
    9.9989700317e-01    8.4215290844e-02
    1.0998300314e+00    2.3383812979e-02
    1.1998399496e+00   -5.5774711072e-02
    1.2999700308e+00   -1.5509408712e-01
    1.3999799490e+00   -2.7547171712e-01
    1.4999099970e+00   -4.1587263346e-01
    1.5998300314e+00   -5.7292973995e-01
    1.6998200417e+00   -7.4106144905e-01
    1.7999800444e+00   -9.1286653280e-01
    1.8998700380e+00   -1.0797438622e+00
    1.9999799728e+00   -1.2324864864e+00
    2.0999200344e+00   -1.3617815971e+00
    2.1998500824e+00   -1.4587376118e+00
    2.2999899387e+00   -1.5152833462e+00
    2.3998599052e+00   -1.5243525505e+00
    2.4998300076e+00   -1.4800065756e+00
    2.5999898911e+00   -1.3776674271e+00
    2.6998200417e+00   -1.2143238783e+00
    2.7998700142e+00   -9.8828715086e-01
    2.8998999596e+00   -6.9886070490e-01
    2.9999299049e+00   -3.4631735086e-01
    3.0998098850e+00    6.8214587867e-02
    3.2000000477e+00    5.4315811396e-01
    3.2999100685e+00    1.0768377781e+00
    3.3998401165e+00    1.6675636768e+00
    3.4999899864e+00    2.3138093948e+00
    3.5998799801e+00    3.0146589279e+00
    3.6999700069e+00    3.7702672482e+00
    3.7999300957e+00    4.5822162628e+00
    3.8998999596e+00    5.4535942078e+00
    3.9998700619e+00    6.3887071609e+00
    4.0999498367e+00    7.3928050995e+00
    4.1999201775e+00    8.4716463089e+00
    4.2999501228e+00    9.6306476593e+00
    4.3999300003e+00    1.0874239922e+01
    4.4998598099e+00    1.2205819130e+01
    4.5998702049e+00    1.3628030777e+01
    4.6999402046e+00    1.5143003464e+01
    4.7998600006e+00    1.6752464294e+01
    4.8998799324e+00    1.8457963943e+01
    4.9999299049e+00    2.0261182785e+01
    5.0999398232e+00    2.2164064407e+01
    5.1999201775e+00    2.4168823242e+01
    5.2998199463e+00    2.6277929306e+01
    5.3999199867e+00    2.8494026184e+01
    5.4999599457e+00    3.0819774628e+01
    5.5998702049e+00    3.3257778168e+01
    5.6998200417e+00    3.5810619354e+01
    5.7999801636e+00    3.8480941772e+01
    5.8999199867e+00    4.1271739960e+01
    5.9998297691e+00    4.4186515808e+01
    6.0998601913e+00    4.7228881836e+01
    6.1999602318e+00    5.0401775360e+01
    6.2998099327e+00    5.3706802368e+01
    6.3999300003e+00    5.7143974304e+01
    6.4999599457e+00    6.0711956024e+01
    6.5999398232e+00    6.4408401489e+01
    6.6999697685e+00    6.8229614258e+01
    6.7998399734e+00    7.2170364380e+01
    6.8999400139e+00    7.6224899292e+01
    6.9999399185e+00    8.0388366699e+01
    7.0999898911e+00    8.4658065796e+01
    7.1999001503e+00    8.9034690857e+01
    7.2999200821e+00    9.3523139954e+01
    7.3999199867e+00    9.8132637024e+01
    7.4999599457e+00    1.0287645721e+02
    7.5999898911e+00    1.0777154541e+02
    7.6999797821e+00    1.1283799744e+02
    7.7998900414e+00    1.1809811401e+02
    7.8999400139e+00    1.2357479095e+02
    7.9999699593e+00    1.2928970337e+02
    8.0999002457e+00    1.3526110840e+02
    8.1998701096e+00    1.4150045776e+02
    8.2998695374e+00    1.4800764465e+02
    8.3998098373e+00    1.5476564026e+02
    8.4998102188e+00    1.6173538208e+02
    8.5999803543e+00    1.6885151672e+02
    8.6999301910e+00    1.7601852417e+02
    8.7999897003e+00    1.8310700989e+02
    8.8999795914e+00    1.8995153809e+02
    8.9998302460e+00    1.9635038757e+02
    9.0998201370e+00    2.0206665039e+02
    9.1999197006e+00    2.0683079529e+02
    9.2999696732e+00    2.1034504700e+02
    9.3998403549e+00    2.1229013062e+02
    9.4999303818e+00    2.1233534241e+02
    9.5998601913e+00    2.1015248108e+02
    9.6998901367e+00    2.0543284607e+02
    9.7998199463e+00    1.9790737915e+02
    9.8998899460e+00    1.8737074280e+02
    9.9998998642e+00    1.7371006775e+02
    1.0099900246e+01    1.5693817139e+02
    1.0199899673e+01    1.3723066711e+02
    1.0300000191e+01    1.1496585846e+02
    1.0399800301e+01    9.0766128540e+01
    1.0499899864e+01    6.5538665771e+01
    1.0600000381e+01    4.0513652802e+01
    1.0699899673e+01    1.7277902603e+01
    1.0799900055e+01   -2.1999828815e+00
    1.0899900436e+01   -1.5557145119e+01
    1.0999899864e+01   -2.0040243149e+01
    1.1100000381e+01   -1.2530541420e+01
    1.1199899673e+01    1.0403582573e+01
    1.1299799919e+01    5.2421527863e+01
    1.1399999619e+01    1.1728752899e+02
    1.1500000000e+01    2.0870472717e+02
    1.1599900246e+01    3.3010229492e+02
    1.1699899673e+01    4.8437271118e+02
    1.1800000191e+01    6.7355792236e+02
    1.1899800301e+01    8.9848535156e+02
    1.1999899864e+01    1.1583581543e+03
    1.2100000381e+01    1.4503129883e+03
    1.2199999809e+01    1.7690238037e+03
    1.2300000191e+01    2.1065163574e+03
    1.2399900436e+01    2.4523117676e+03
    1.2499899864e+01    2.7939326172e+03
    1.2599900246e+01    3.1177736816e+03
    1.2699899673e+01    3.4102390137e+03
    1.2799900055e+01    3.6589689941e+03
    1.2899900436e+01    3.8539846191e+03
    1.2999899864e+01    3.9886208496e+03
    1.3100000381e+01    4.0601835938e+03
    1.3199999809e+01    4.0702780762e+03
    1.3300000191e+01    4.0247490234e+03
    1.3399999619e+01    3.9332302246e+03
    1.3500000000e+01    3.8083681641e+03
    1.3600000381e+01    3.6648356934e+03
    1.3699999809e+01    3.5182521973e+03
    1.3799900055e+01    3.3841022949e+03
    1.3899800301e+01    3.2767229004e+03
    1.4000000000e+01    3.2084321289e+03
    1.4099900246e+01    3.1888571777e+03
    1.4199899673e+01    3.2244758301e+03
    1.4300000191e+01    3.3183471680e+03
    1.4399800301e+01    3.4700200195e+03
    1.4499899864e+01    3.6756289062e+03
    1.4600000381e+01    3.9282050781e+03
    1.4699899673e+01    4.2181997070e+03
    1.4800000191e+01    4.5341601562e+03
    1.4899900436e+01    4.8634907227e+03
    1.4999799728e+01    5.1932871094e+03
    1.5100000381e+01    5.5112504883e+03
    1.5199899673e+01    5.8066298828e+03
    1.5299900055e+01    6.0710668945e+03
    1.5399999619e+01    6.2992368164e+03
    1.5499799728e+01    6.4892470703e+03
    1.5599900246e+01    6.6427778320e+03
    1.5699899673e+01    6.7649497070e+03
    1.5799900055e+01    6.8639106445e+03
    1.5899800301e+01    6.9501704102e+03
    1.6000000000e+01    7.0357324219e+03
    1.6099899292e+01    7.1330981445e+03
    1.6200000763e+01    7.2542304688e+03
    1.6299999237e+01    7.4095507812e+03
    1.6399999619e+01    7.6070615234e+03
    1.6499799728e+01    7.8516694336e+03
    1.6599899292e+01    8.1447617188e+03
    1.6700000763e+01    8.4840576172e+03
    1.6799999237e+01    8.8637197266e+03
    1.6899999619e+01    9.2746992188e+03
    1.7000000000e+01    9.7052939453e+03
    1.7099899292e+01    1.0141881836e+04
    1.7200000763e+01    1.0569759766e+04
    1.7299999237e+01    1.0974060547e+04
    1.7399999619e+01    1.1340736328e+04
    1.7500000000e+01    1.1657539062e+04
    1.7599899292e+01    1.1914884766e+04
    1.7699899673e+01    1.2106514648e+04
    1.7799999237e+01    1.2229918945e+04
    1.7899999619e+01    1.2286585938e+04
    1.8000000000e+01    1.2282050781e+04
    1.8100000381e+01    1.2225642578e+04
    1.8199899673e+01    1.2129905273e+04
    1.8299900055e+01    1.2009747070e+04
    1.8399999619e+01    1.1881401367e+04
    1.8499900818e+01    1.1761282227e+04
    1.8599899292e+01    1.1664833008e+04
    1.8699899673e+01    1.1605458984e+04
    1.8799999237e+01    1.1593627930e+04
    1.8899900436e+01    1.1636207031e+04
    1.9000000000e+01    1.1736080078e+04
    1.9099899292e+01    1.1892085938e+04
    1.9200000763e+01    1.2099282227e+04
    1.9299999237e+01    1.2349490234e+04
    1.9399999619e+01    1.2632053711e+04
    1.9499900818e+01    1.2934735352e+04
    1.9600000381e+01    1.3244683594e+04
    1.9699899673e+01    1.3549422852e+04
    1.9799999237e+01    1.3837804688e+04
    1.9899999619e+01    1.4100839844e+04
    1.9999900818e+01    1.4332352539e+04
    2.0100000381e+01    1.4529385742e+04
    2.0200000763e+01    1.4692317383e+04
    2.0299999237e+01    1.4824680664e+04
    2.0399999619e+01    1.4932704102e+04
    2.0499900818e+01    1.5024596680e+04
    2.0599899292e+01    1.5109645508e+04
    2.0700000763e+01    1.5197225586e+04
    2.0799900055e+01    1.5295818359e+04
    2.0899999619e+01    1.5412134766e+04
    2.1000000000e+01    1.5550428711e+04
    2.1100000381e+01    1.5712073242e+04
    2.1199899673e+01    1.5895439453e+04
    2.1299900055e+01    1.6096083984e+04
    2.1399999619e+01    1.6307191406e+04
    2.1500000000e+01    1.6520216797e+04
    2.1599899292e+01    1.6725658203e+04
    2.1700000763e+01    1.6913910156e+04
    2.1799900055e+01    1.7076121094e+04
    2.1899999619e+01    1.7204923828e+04
    2.1999900818e+01    1.7294974609e+04
    2.2100000381e+01    1.7343365234e+04
    2.2200000763e+01    1.7349945312e+04
    2.2299999237e+01    1.7317464844e+04
    2.2399999619e+01    1.7251466797e+04
    2.2500000000e+01    1.7159923828e+04
    2.2599899292e+01    1.7052644531e+04
    2.2699899673e+01    1.6940500000e+04
    2.2799900055e+01    1.6834562500e+04
    2.2899999619e+01    1.6745230469e+04
    2.3000000000e+01    1.6681433594e+04
    2.3100000381e+01    1.6649978516e+04
    2.3199899673e+01    1.6655078125e+04
    2.3299999237e+01    1.6698103516e+04
    2.3399999619e+01    1.6777572266e+04
    2.3500000000e+01    1.6889394531e+04
    2.3599899292e+01    1.7027326172e+04
    2.3700000763e+01    1.7183576172e+04
    2.3799900055e+01    1.7349492188e+04
    2.3899900436e+01    1.7516269531e+04
    2.4000000000e+01    1.7675615234e+04
    2.4099899292e+01    1.7820339844e+04
    2.4200000763e+01    1.7944839844e+04
    2.4299999237e+01    1.8045431641e+04
    2.4399999619e+01    1.8120509766e+04
    2.4499900818e+01    1.8170533203e+04
    2.4599899292e+01    1.8197841797e+04
    2.4700000763e+01    1.8206306641e+04
    2.4799900055e+01    1.8200849609e+04
    2.4899900436e+01    1.8186882812e+04
    2.5000000000e+01    1.8169726562e+04
    2.5099899292e+01    1.8154060547e+04
    2.5199899673e+01    1.8143470703e+04
    2.5300100327e+01    1.8140113281e+04
    2.5399900436e+01    1.8144531250e+04
    2.5499900818e+01    1.8155640625e+04
    2.5600000381e+01    1.8170876953e+04
    2.5699899673e+01    1.8186498047e+04
    2.5799900055e+01    1.8197996094e+04
    2.5899999619e+01    1.8200582031e+04
    2.6000099182e+01    1.8189669922e+04
    2.6099899292e+01    1.8161326172e+04
    2.6199899673e+01    1.8112652344e+04
    2.6299999237e+01    1.8042078125e+04
    2.6399999619e+01    1.7949548828e+04
    2.6500000000e+01    1.7836582031e+04
    2.6599899292e+01    1.7706185547e+04
    2.6700000763e+01    1.7562642578e+04
    2.6799999237e+01    1.7411193359e+04
    2.6899999619e+01    1.7257648438e+04
    2.6999900818e+01    1.7107960938e+04
    2.7100000381e+01    1.6967802734e+04
    2.7199899673e+01    1.6842167969e+04
    2.7299999237e+01    1.6735023438e+04
    2.7399900436e+01    1.6649042969e+04
    2.7499900818e+01    1.6585427734e+04
    2.7600000381e+01    1.6543816406e+04
    2.7699899673e+01    1.6522310547e+04
    2.7799900055e+01    1.6517597656e+04
    2.7899999619e+01    1.6525177734e+04
    2.7999900818e+01    1.6539677734e+04
    2.8099899292e+01    1.6555236328e+04
    2.8199899673e+01    1.6565912109e+04
    2.8299900055e+01    1.6566097656e+04
    2.8399900436e+01    1.6550902344e+04
    2.8499900818e+01    1.6516470703e+04
    2.8600000381e+01    1.6460222656e+04
    2.8700000763e+01    1.6380987305e+04
    2.8799900055e+01    1.6279025391e+04
    2.8899999619e+01    1.6155933594e+04
    2.9000000000e+01    1.6014443359e+04
    2.9099899292e+01    1.5858136719e+04
    2.9199899673e+01    1.5691116211e+04
    2.9299999237e+01    1.5517661133e+04
    2.9399900436e+01    1.5341887695e+04
    2.9499900818e+01    1.5167430664e+04
    2.9600099564e+01    1.4997169922e+04
    2.9699899673e+01    1.4833029297e+04
    2.9799900055e+01    1.4675857422e+04
    2.9899999619e+01    1.4525401367e+04
    3.0000000000e+01    1.4380375000e+04
    3.0100000381e+01    1.4238615234e+04
    3.0200000763e+01    1.4097311523e+04
    3.0299999237e+01    1.3953292969e+04
    3.0400100708e+01    1.3803346680e+04
    3.0500000000e+01    1.3644544922e+04
    3.0600000381e+01    1.3474547852e+04
    3.0700000763e+01    1.3291858398e+04
    3.0799999237e+01    1.3096005859e+04
    3.0900100708e+01    1.2887642578e+04
    3.0999900818e+01    1.2668547852e+04
    3.1099899292e+01    1.2441530273e+04
    3.1199899673e+01    1.2210245117e+04
    3.1300100327e+01    1.1978931641e+04
    3.1399999619e+01    1.1752090820e+04
    3.1500000000e+01    1.1534115234e+04
    3.1600000381e+01    1.1328916016e+04
    3.1699899673e+01    1.1139584961e+04
    3.1799999237e+01    1.0968118164e+04
    3.1899900436e+01    1.0815219727e+04
    3.2000000000e+01    1.0680187500e+04
    3.2099998474e+01    1.0560905273e+04
    3.2200000763e+01    1.0453934570e+04
    3.2299999237e+01    1.0354712891e+04
    3.2400001526e+01    1.0257840820e+04
    3.2500000000e+01    1.0157440430e+04
    3.2599899292e+01    1.0047563477e+04
    3.2700000763e+01    9.9226064453e+03
    3.2799900055e+01    9.7777021484e+03
    3.2900100708e+01    9.6090458984e+03
    3.2999900818e+01    9.4141357422e+03
    3.3099899292e+01    9.1919208984e+03
    3.3200099945e+01    8.9428486328e+03
    3.3300098419e+01    8.6688144531e+03
    3.3400001526e+01    8.3730126953e+03
    3.3500000000e+01    8.0596997070e+03
    3.3599998474e+01    7.7338891602e+03
    3.3699901581e+01    7.4010102539e+03
    3.3799999237e+01    7.0665654297e+03
    3.3900001526e+01    6.7358046875e+03
    3.3999900818e+01    6.4134311523e+03
    3.4099998474e+01    6.1033623047e+03
    3.4200000763e+01    5.8085634766e+03
    3.4299999237e+01    5.5309467773e+03
    3.4400001526e+01    5.2713447266e+03
    3.4500000000e+01    5.0295571289e+03
    3.4599998474e+01    4.8044560547e+03
    3.4700000763e+01    4.5941352539e+03
    3.4799900055e+01    4.3960981445e+03
    3.4900001526e+01    4.2074663086e+03
    3.4999900818e+01    4.0251887207e+03
    3.5099998474e+01    3.8462375488e+03
    3.5200000763e+01    3.6677912598e+03
    3.5299900055e+01    3.4873981934e+03
    3.5400001526e+01    3.3031235352e+03
    3.5499900818e+01    3.1136738281e+03
    3.5599899292e+01    2.9184895020e+03
    3.5699798584e+01    2.7177934570e+03
    3.5799999237e+01    2.5125812988e+03
    3.5899898529e+01    2.3045485840e+03
    3.5999900818e+01    2.0959611816e+03
    3.6099899292e+01    1.8894913330e+03
    3.6199901581e+01    1.6880413818e+03
    3.6299900055e+01    1.4945573730e+03
    3.6399898529e+01    1.3118380127e+03
    3.6499900818e+01    1.1423675537e+03
    3.6599899292e+01    9.8818115234e+02
    3.6699901581e+01    8.5076184082e+02
    3.6799900055e+01    7.3097723389e+02
    3.6900001526e+01    6.2904779053e+02
    3.6999900818e+01    5.4454614258e+02
    3.7099998474e+01    4.7646002197e+02
    3.7200000763e+01    4.2332321167e+02
    3.7299900055e+01    3.8336901855e+02
    3.7399898529e+01    3.5467068481e+02
    3.7499801636e+01    3.3526007080e+02
    3.7599899292e+01    3.2322216797e+02
    3.7699901581e+01    3.1676583862e+02
    3.7799800873e+01    3.1427941895e+02
    3.7899898529e+01    3.1437622070e+02
    3.7999900818e+01    3.1592449951e+02
    3.8099899292e+01    3.1805960083e+02
    3.8199901581e+01    3.2018765259e+02
    3.8299900055e+01    3.2198751831e+02
    3.8399799347e+01    3.2340643311e+02
    3.8499900818e+01    3.2464477539e+02
    3.8599800110e+01    3.2613427734e+02
    3.8699901581e+01    3.2851452637e+02
    3.8799900055e+01    3.3260452271e+02
    3.8900001526e+01    3.3936422729e+02
    3.8999801636e+01    3.4984619141e+02
    3.9099800110e+01    3.6514196777e+02
    3.9199901581e+01    3.8632269287e+02
    3.9299800873e+01    4.1436648560e+02
    3.9399898529e+01    4.5007211304e+02
    3.9499801636e+01    4.9396423340e+02
    3.9599899292e+01    5.4619061279e+02
    3.9699798584e+01    6.0640881348e+02
    3.9799900055e+01    6.7366491699e+02
    3.9899898529e+01    7.4627056885e+02
    3.9999801636e+01    8.2168524170e+02
    4.0099800110e+01    8.9640521240e+02
    4.0199901581e+01    9.6586450195e+02
    4.0299900055e+01    1.0243612061e+03
    4.0399898529e+01    1.0650263672e+03
    4.0499900818e+01    1.0798442383e+03
    4.0599899292e+01    1.0597297363e+03
    4.0699901581e+01    9.9468133545e+02
    4.0799800873e+01    8.7402984619e+02
    4.0899799347e+01    6.8679772949e+02
    4.0999801636e+01    4.2218106079e+02
    4.1099899292e+01    7.0167236328e+01
    4.1199798584e+01   -3.7770159912e+02
    4.1299900055e+01   -9.2741827393e+02
    4.1399898529e+01   -1.5814595947e+03
    4.1499801636e+01   -2.3376018066e+03
    4.1599899292e+01   -3.1876196289e+03
    4.1699798584e+01   -4.1159067383e+03
    4.1799900055e+01   -5.0980708008e+03
    4.1899799347e+01   -6.0996484375e+03
    4.1999801636e+01   -7.0756831055e+03
    4.2099800110e+01   -7.9726445312e+03
    4.2199901581e+01   -8.7334013672e+03
    4.2299900055e+01   -9.3041103516e+03
    4.2399799347e+01   -9.6411416016e+03
    4.2499900818e+01   -9.7167119141e+03
    4.2599800110e+01   -9.5226455078e+03
    4.2699798584e+01   -9.0718681641e+03
    4.2799701691e+01   -8.3971640625e+03
    4.2899799347e+01   -7.5472807617e+03
    4.2999801636e+01   -6.5812812500e+03
    4.3099700928e+01   -5.5624458008e+03
    4.3199699402e+01   -4.5528964844e+03
    4.3299900055e+01   -3.6097145996e+03
    4.3399898529e+01   -2.7826965332e+03
    4.3499801636e+01   -2.1132927246e+03
    4.3599800110e+01   -1.6342071533e+03
    4.3699699402e+01   -1.3694205322e+03
    4.3799800873e+01   -1.3344420166e+03
    4.3899799347e+01   -1.5364805908e+03
    4.3999698639e+01   -1.9743321533e+03
    4.4099800110e+01   -2.6379858398e+03
    4.4199798584e+01   -3.5081647949e+03
    4.4299800873e+01   -4.5561171875e+03
    4.4399799347e+01   -5.7440195312e+03
    4.4499801636e+01   -7.0263818359e+03
    4.4599899292e+01   -8.3526328125e+03
    4.4699699402e+01   -9.6707246094e+03
    4.4799800873e+01   -1.0931274414e+04
    4.4899700165e+01   -1.2091454102e+04
    4.4999698639e+01   -1.3118157227e+04
    4.5099899292e+01   -1.3990588867e+04
    4.5199798584e+01   -1.4702119141e+04
    4.5299800873e+01   -1.5260767578e+04
    4.5399799347e+01   -1.5688013672e+04
    4.5499900818e+01   -1.6016111328e+04
    4.5599800110e+01   -1.6284192383e+04
    4.5699798584e+01   -1.6533623047e+04
    4.5799701691e+01   -1.6803273438e+04
    4.5899799347e+01   -1.7125238281e+04
    4.5999801636e+01   -1.7521345703e+04
    4.6099800110e+01   -1.8000794922e+04
    4.6199798584e+01   -1.8559273438e+04
    4.6299701691e+01   -1.9179630859e+04
    4.6399799347e+01   -1.9833957031e+04
    4.6499698639e+01   -2.0486816406e+04
    4.6599700928e+01   -2.1099337891e+04
    4.6699699402e+01   -2.1633666016e+04
    4.6799800873e+01   -2.2057236328e+04
    4.6899799347e+01   -2.2346421875e+04
    4.6999698639e+01   -2.2489345703e+04
    4.7099800110e+01   -2.2487736328e+04
    4.7199699402e+01   -2.2357523438e+04
    4.7299800873e+01   -2.2127894531e+04
    4.7399700165e+01   -2.1838855469e+04
    4.7499801636e+01   -2.1537632812e+04
    4.7599800110e+01   -2.1274392578e+04
    4.7699699402e+01   -2.1097757812e+04
    4.7799701691e+01   -2.1050625000e+04
    4.7899700165e+01   -2.1166658203e+04
    4.7999801636e+01   -2.1467716797e+04
    4.8099700928e+01   -2.1962425781e+04
    4.8199798584e+01   -2.2645998047e+04
    4.8299598694e+01   -2.3501238281e+04
    4.8399700165e+01   -2.4500539062e+04
    4.8499599457e+01   -2.5608591797e+04
    4.8599700928e+01   -2.6785486328e+04
    4.8699699402e+01   -2.7989917969e+04
    4.8799800873e+01   -2.9182246094e+04
    4.8899799347e+01   -3.0326921875e+04
    4.8999599457e+01   -3.1393855469e+04
    4.9099700928e+01   -3.2359023438e+04
    4.9199699402e+01   -3.3204882812e+04
    4.9299800873e+01   -3.3920500000e+04
    4.9399799347e+01   -3.4501250000e+04
    4.9499698639e+01   -3.4948265625e+04
    4.9599800110e+01   -3.5267750000e+04
    4.9699699402e+01   -3.5470062500e+04
    4.9799701691e+01   -3.5568683594e+04
    4.9899799347e+01   -3.5579273438e+04
    4.9999801636e+01   -3.5518976562e+04
    5.0099800110e+01   -3.5405910156e+04
    5.0199798584e+01   -3.5258695312e+04
    5.0299598694e+01   -3.5095933594e+04
    5.0399799347e+01   -3.4935710938e+04
    5.0499698639e+01   -3.4795289062e+04
    5.0599700928e+01   -3.4690894531e+04
    5.0699798584e+01   -3.4637507812e+04
    5.0799598694e+01   -3.4648625000e+04
    5.0899700165e+01   -3.4735972656e+04
    5.0999698639e+01   -3.4909152344e+04
    5.1099700928e+01   -3.5175234375e+04
    5.1199699402e+01   -3.5538355469e+04
    5.1299701691e+01   -3.5999351562e+04
    5.1399799347e+01   -3.6555496094e+04
    5.1499801636e+01   -3.7200371094e+04
    5.1599700928e+01   -3.7923898438e+04
    5.1699699402e+01   -3.8712441406e+04
    5.1799800873e+01   -3.9548921875e+04
    5.1899700165e+01   -4.0412992188e+04
    5.1999801636e+01   -4.1281449219e+04
    5.2099800110e+01   -4.2129261719e+04
    5.2199699402e+01   -4.2931250000e+04
    5.2299701691e+01   -4.3663820312e+04
    5.2399700165e+01   -4.4306410156e+04
    5.2499698639e+01   -4.4842847656e+04
    5.2599601746e+01   -4.5262718750e+04
    5.2699699402e+01   -4.5562375000e+04
    5.2799701691e+01   -4.5745390625e+04
    5.2899600983e+01   -4.5822531250e+04
    5.2999599457e+01   -4.5811125000e+04
    5.3099700928e+01   -4.5733574219e+04
    5.3199699402e+01   -4.5615023438e+04
    5.3299701691e+01   -4.5480523438e+04
    5.3399600983e+01   -4.5352281250e+04
    5.3499698639e+01   -4.5247472656e+04
    5.3599700928e+01   -4.5176968750e+04
    5.3699699402e+01   -4.5145089844e+04
    5.3799701691e+01   -4.5150437500e+04
    5.3899600983e+01   -4.5187648438e+04
    5.3999599457e+01   -4.5249679688e+04
    5.4099700928e+01   -4.5330136719e+04
    5.4199600220e+01   -4.5425164062e+04
    5.4299598694e+01   -4.5534605469e+04
    5.4399700165e+01   -4.5662273438e+04
    5.4499599457e+01   -4.5815394531e+04
    5.4599601746e+01   -4.6003273438e+04
    5.4699600220e+01   -4.6235347656e+04
    5.4799598694e+01   -4.6518992188e+04
    5.4899600983e+01   -4.6857515625e+04
    5.4999599457e+01   -4.7248746094e+04
    5.5099601746e+01   -4.7684476562e+04
    5.5199699402e+01   -4.8150902344e+04
    5.5299701691e+01   -4.8629898438e+04
    5.5399600983e+01   -4.9100800781e+04
    5.5499599457e+01   -4.9542078125e+04
    5.5599700928e+01   -4.9932582031e+04
    5.5699600220e+01   -5.0252796875e+04
    5.5799598694e+01   -5.0486511719e+04
    5.5899600983e+01   -5.0622406250e+04
    5.5999599457e+01   -5.0655058594e+04
    5.6099601746e+01   -5.0585464844e+04
    5.6199600220e+01   -5.0421125000e+04
    5.6299598694e+01   -5.0175632812e+04
    5.6399600983e+01   -4.9867652344e+04
    5.6499599457e+01   -4.9519199219e+04
    5.6599700928e+01   -4.9153378906e+04
    5.6699600220e+01   -4.8792175781e+04
    5.6799499512e+01   -4.8454832031e+04
    5.6899600983e+01   -4.8156820312e+04
    5.6999500275e+01   -4.7909339844e+04
    5.7099601746e+01   -4.7719277344e+04
    5.7199600220e+01   -4.7589507812e+04
    5.7299499512e+01   -4.7519417969e+04
    5.7399600983e+01   -4.7505566406e+04
    5.7499500275e+01   -4.7542339844e+04
    5.7599498749e+01   -4.7622480469e+04
    5.7699600220e+01   -4.7737472656e+04
    5.7799598694e+01   -4.7877843750e+04
    5.7899600983e+01   -4.8033378906e+04
    5.7999500275e+01   -4.8193308594e+04
    5.8099498749e+01   -4.8346562500e+04
    5.8199501038e+01   -4.8482070312e+04
    5.8299598694e+01   -4.8589121094e+04
    5.8399501801e+01   -4.8657753906e+04
    5.8499500275e+01   -4.8679167969e+04
    5.8599700928e+01   -4.8646109375e+04
    5.8699501038e+01   -4.8553250000e+04
    5.8799499512e+01   -4.8397480469e+04
    5.8899600983e+01   -4.8178105469e+04
    5.8999698639e+01   -4.7896996094e+04
    5.9099498749e+01   -4.7558664062e+04
    5.9199501038e+01   -4.7170246094e+04
    5.9299499512e+01   -4.6741378906e+04
    5.9399501801e+01   -4.6283949219e+04
    5.9499599457e+01   -4.5811664062e+04
    5.9599601746e+01   -4.5339410156e+04
    5.9699501038e+01   -4.4882437500e+04
    5.9799598694e+01   -4.4455398438e+04
    5.9899501801e+01   -4.4071285156e+04
    5.9999599457e+01   -4.3740347656e+04
    6.0099498749e+01   -4.3469125000e+04
    6.0199501038e+01   -4.3259703125e+04
    6.0299598694e+01   -4.3109339844e+04
    6.0399600983e+01   -4.3010539062e+04
    6.0499500275e+01   -4.2951593750e+04
    6.0599498749e+01   -4.2917535156e+04
    6.0699600220e+01   -4.2891425781e+04
    6.0799598694e+01   -4.2855875000e+04
    6.0899600983e+01   -4.2794617188e+04
    6.0999500275e+01   -4.2693964844e+04
    6.1099601746e+01   -4.2543941406e+04
    6.1199501038e+01   -4.2338953125e+04
    6.1299598694e+01   -4.2077937500e+04
    6.1399600983e+01   -4.1763972656e+04
    6.1499599457e+01   -4.1403421875e+04
    6.1599399567e+01   -4.1004792969e+04
    6.1699501038e+01   -4.0577492188e+04
    6.1799499512e+01   -4.0130679688e+04
    6.1899501801e+01   -3.9672410156e+04
    6.1999599457e+01   -3.9209128906e+04
    6.2099498749e+01   -3.8745550781e+04
    6.2199600220e+01   -3.8284859375e+04
    6.2299499512e+01   -3.7829171875e+04
    6.2399501801e+01   -3.7380156250e+04
    6.2499500275e+01   -3.6939628906e+04
    6.2599601746e+01   -3.6510007812e+04
    6.2699401855e+01   -3.6094500000e+04
    6.2799499512e+01   -3.5697035156e+04
    6.2899501801e+01   -3.5321894531e+04
    6.2999500275e+01   -3.4973109375e+04
    6.3099498749e+01   -3.4653699219e+04
    6.3199401855e+01   -3.4364894531e+04
    6.3299598694e+01   -3.4105476562e+04
    6.3399501801e+01   -3.3871449219e+04
    6.3499500275e+01   -3.3656105469e+04
    6.3599399567e+01   -3.3450445312e+04
    6.3699501038e+01   -3.3243925781e+04
    6.3799598694e+01   -3.3025457031e+04
    6.3899501801e+01   -3.2784527344e+04
    6.3999500275e+01   -3.2512322266e+04
    6.4099601746e+01   -3.2202685547e+04
    6.4199401855e+01   -3.1852761719e+04
    6.4299499512e+01   -3.1463242188e+04
    6.4399497986e+01   -3.1038171875e+04
    6.4499496460e+01   -3.0584349609e+04
    6.4599502563e+01   -3.0110458984e+04
    6.4699501038e+01   -2.9626128906e+04
    6.4799499512e+01   -2.9141041016e+04
    6.4899597168e+01   -2.8664123047e+04
    6.4999603271e+01   -2.8202896484e+04
    6.5099601746e+01   -2.7763019531e+04
    6.5199600220e+01   -2.7348007812e+04
    6.5299400330e+01   -2.6959154297e+04
    6.5399497986e+01   -2.6595650391e+04
    6.5499603271e+01   -2.6254906250e+04
    6.5599502563e+01   -2.5933015625e+04
    6.5699600220e+01   -2.5625302734e+04
    6.5799499512e+01   -2.5326890625e+04
    6.5899497986e+01   -2.5033228516e+04
    6.5999397278e+01   -2.4740537109e+04
    6.6099502563e+01   -2.4446126953e+04
    6.6199501038e+01   -2.4148552734e+04
    6.6299499512e+01   -2.3847607422e+04
    6.6399398804e+01   -2.3544156250e+04
    6.6499496460e+01   -2.3239837891e+04
    6.6599502563e+01   -2.2936685547e+04
    6.6699501038e+01   -2.2636724609e+04
    6.6799499512e+01   -2.2341582031e+04
    6.6899398804e+01   -2.2052173828e+04
    6.6999496460e+01   -2.1768505859e+04
    6.7099502563e+01   -2.1489603516e+04
    6.7199401855e+01   -2.1213603516e+04
    6.7299400330e+01   -2.0937960938e+04
    6.7399497986e+01   -2.0659718750e+04
    6.7499397278e+01   -2.0375841797e+04
    6.7599403381e+01   -2.0083611328e+04
    6.7699501038e+01   -1.9781025391e+04
    6.7799499512e+01   -1.9467099609e+04
    6.7899398804e+01   -1.9142070312e+04
    6.7999397278e+01   -1.8807492188e+04
    6.8099403381e+01   -1.8466210938e+04
    6.8199501038e+01   -1.8122212891e+04
    6.8299400330e+01   -1.7780361328e+04
    6.8399497986e+01   -1.7446041016e+04
    6.8499496460e+01   -1.7124742188e+04
    6.8599403381e+01   -1.6821636719e+04
    6.8699401855e+01   -1.6541179688e+04
    6.8799400330e+01   -1.6286750977e+04
    6.8899398804e+01   -1.6060379883e+04
    6.8999397278e+01   -1.5862587891e+04
    6.9099403381e+01   -1.5692343750e+04
    6.9199302673e+01   -1.5547130859e+04
    6.9299400330e+01   -1.5423109375e+04
    6.9399398804e+01   -1.5315353516e+04
    6.9499397278e+01   -1.5218161133e+04
    6.9599403381e+01   -1.5125417969e+04
    6.9699401855e+01   -1.5030986328e+04
    6.9799301147e+01   -1.4929085938e+04
    6.9899299622e+01   -1.4814635742e+04
    6.9999496460e+01   -1.4683525391e+04
    7.0099502563e+01   -1.4532828125e+04
    7.0199302673e+01   -1.4360983398e+04
    7.0299499512e+01   -1.4167969727e+04
    7.0399497986e+01   -1.3955351562e+04
    7.0499298096e+01   -1.3726123047e+04
    7.0599403381e+01   -1.3484426758e+04
    7.0699302673e+01   -1.3235226562e+04
    7.0799301147e+01   -1.2983946289e+04
    7.0899398804e+01   -1.2736124023e+04
    7.0999298096e+01   -1.2497097656e+04
    7.1099403381e+01   -1.2271721680e+04
    7.1199401855e+01   -1.2064128906e+04
    7.1299400330e+01   -1.1877557617e+04
    7.1399497986e+01   -1.1714246094e+04
    7.1499496460e+01   -1.1575401367e+04
    7.1599403381e+01   -1.1461307617e+04
    7.1699501038e+01   -1.1371523438e+04
    7.1799301147e+01   -1.1304961914e+04
    7.1899398804e+01   -1.1259846680e+04
    7.1999397278e+01   -1.1233717773e+04
    7.2099403381e+01   -1.1223556641e+04
    7.2199401855e+01   -1.1225933594e+04
    7.2299400330e+01   -1.1237093750e+04
    7.2399299622e+01   -1.1253055664e+04
    7.2499397278e+01   -1.1269762695e+04
    7.2599296570e+01   -1.1283250977e+04
    7.2699401855e+01   -1.1289813477e+04
    7.2799301147e+01   -1.1286162109e+04
    7.2899398804e+01   -1.1269587891e+04
    7.2999298096e+01   -1.1238083984e+04
    7.3099296570e+01   -1.1190412109e+04
    7.3199401855e+01   -1.1126123047e+04
    7.3299301147e+01   -1.1045586914e+04
    7.3399299622e+01   -1.0950072266e+04
    7.3499397278e+01   -1.0841771484e+04
    7.3599403381e+01   -1.0723687500e+04
    7.3699401855e+01   -1.0599479492e+04
    7.3799400330e+01   -1.0473313477e+04
    7.3899299622e+01   -1.0349663086e+04
    7.3999298096e+01   -1.0233085938e+04
    7.4099296570e+01   -1.0128032227e+04
    7.4199401855e+01   -1.0038592773e+04
    7.4299400330e+01   -9.9682128906e+03
    7.4399299622e+01   -9.9194648438e+03
    7.4499198914e+01   -9.8938779297e+03
    7.4599296570e+01   -9.8917949219e+03
    7.4699401855e+01   -9.9122988281e+03
    7.4799400330e+01   -9.9532246094e+03
    7.4899299622e+01   -1.0011234375e+04
    7.4999298096e+01   -1.0081976562e+04
    7.5099197388e+01   -1.0160373047e+04
    7.5199203491e+01   -1.0241015625e+04
    7.5299400330e+01   -1.0318592773e+04
    7.5399299622e+01   -1.0388307617e+04
    7.5499298096e+01   -1.0446277344e+04
    7.5599197388e+01   -1.0489850586e+04
    7.5699302673e+01   -1.0517786133e+04
    7.5799301147e+01   -1.0530292969e+04
    7.5899299622e+01   -1.0528942383e+04
    7.5999298096e+01   -1.0516460938e+04
    7.6099296570e+01   -1.0496431641e+04
    7.6199401855e+01   -1.0472932617e+04
    7.6299301147e+01   -1.0450152344e+04
    7.6399398804e+01   -1.0432031250e+04
    7.6499198914e+01   -1.0421993164e+04
    7.6599296570e+01   -1.0422749023e+04
    7.6699302673e+01   -1.0436166992e+04
    7.6799301147e+01   -1.0463216797e+04
    7.6899299622e+01   -1.0503997070e+04
    7.6999298096e+01   -1.0557820312e+04
    7.7099296570e+01   -1.0623323242e+04
    7.7199401855e+01   -1.0698583008e+04
    7.7299400330e+01   -1.0781256836e+04
    7.7399398804e+01   -1.0868747070e+04
    7.7499198914e+01   -1.0958376953e+04
    7.7599296570e+01   -1.1047576172e+04
    7.7699302673e+01   -1.1134044922e+04
    7.7799301147e+01   -1.1215889648e+04
    7.7899299622e+01   -1.1291709961e+04
    7.7999198914e+01   -1.1360645508e+04
    7.8099296570e+01   -1.1422405273e+04
    7.8199302673e+01   -1.1477250000e+04
    7.8299301147e+01   -1.1525940430e+04
    7.8399398804e+01   -1.1569663086e+04
    7.8499198914e+01   -1.1609919922e+04
    7.8599296570e+01   -1.1648421875e+04
    7.8699203491e+01   -1.1686975586e+04
    7.8799301147e+01   -1.1727360352e+04
    7.8899200439e+01   -1.1771213867e+04
    7.8999397278e+01   -1.1819939453e+04
    7.9099403381e+01   -1.1874642578e+04
    7.9199302673e+01   -1.1936104492e+04
    7.9299201965e+01   -1.2004784180e+04
    7.9399299622e+01   -1.2080817383e+04
    7.9499298096e+01   -1.2164037109e+04
    7.9599296570e+01   -1.2254008789e+04
    7.9699203491e+01   -1.2350064453e+04
    7.9799301147e+01   -1.2451325195e+04
    7.9899200439e+01   -1.2556730469e+04
    7.9999298096e+01   -1.2665077148e+04
    8.0099296570e+01   -1.2775067383e+04
    8.0199203491e+01   -1.2885341797e+04
    8.0299301147e+01   -1.2994502930e+04
    8.0399200439e+01   -1.3101157227e+04
    8.0499298096e+01   -1.3203961914e+04
    8.0599296570e+01   -1.3301669922e+04
    8.0699203491e+01   -1.3393188477e+04
    8.0799201965e+01   -1.3477660156e+04
    8.0899299622e+01   -1.3554574219e+04
    8.0999298096e+01   -1.3623877930e+04
    8.1099296570e+01   -1.3686049805e+04
    8.1199302673e+01   -1.3742134766e+04
    8.1299201965e+01   -1.3793762695e+04
    8.1399299622e+01   -1.3843095703e+04
    8.1499099731e+01   -1.3892682617e+04
    8.1599296570e+01   -1.3945270508e+04
    8.1699203491e+01   -1.4003589844e+04
    8.1799102783e+01   -1.4070143555e+04
    8.1899200439e+01   -1.4147007812e+04
    8.1999099731e+01   -1.4235639648e+04
    8.2099296570e+01   -1.4336713867e+04
    8.2199203491e+01   -1.4450024414e+04
    8.2299201965e+01   -1.4574464844e+04
    8.2399299622e+01   -1.4708073242e+04
    8.2499198914e+01   -1.4848149414e+04
    8.2599197388e+01   -1.4991444336e+04
    8.2699203491e+01   -1.5134412109e+04
    8.2799201965e+01   -1.5273504883e+04
    8.2899101257e+01   -1.5405474609e+04
    8.2999298096e+01   -1.5527640625e+04
    8.3099197388e+01   -1.5638098633e+04
    8.3199203491e+01   -1.5735878906e+04
    8.3299102783e+01   -1.5821020508e+04
    8.3399101257e+01   -1.5894550781e+04
    8.3499198914e+01   -1.5958375977e+04
    8.3599296570e+01   -1.6015102539e+04
    8.3699203491e+01   -1.6067818359e+04
    8.3799102783e+01   -1.6119833984e+04
    8.3899299622e+01   -1.6174416016e+04
    8.3999298096e+01   -1.6234543945e+04
    8.4099197388e+01   -1.6302689453e+04
    8.4199203491e+01   -1.6380640625e+04
    8.4299102783e+01   -1.6469410156e+04
    8.4399101257e+01   -1.6569216797e+04
    8.4499198914e+01   -1.6679533203e+04
    8.4599098206e+01   -1.6799171875e+04
    8.4699203491e+01   -1.6926400391e+04
    8.4799102783e+01   -1.7059089844e+04
    8.4899101257e+01   -1.7194884766e+04
    8.4999099731e+01   -1.7331378906e+04
    8.5099197388e+01   -1.7466277344e+04
    8.5199203491e+01   -1.7597529297e+04
    8.5299201965e+01   -1.7723423828e+04
    8.5399200439e+01   -1.7842656250e+04
    8.5499198914e+01   -1.7954378906e+04
    8.5599197388e+01   -1.8058214844e+04
    8.5699203491e+01   -1.8154244141e+04
    8.5799301147e+01   -1.8242964844e+04
    8.5899200439e+01   -1.8325246094e+04
    8.5999198914e+01   -1.8402263672e+04
    8.6099197388e+01   -1.8475417969e+04
    8.6199096680e+01   -1.8546253906e+04
    8.6299102783e+01   -1.8616361328e+04
    8.6399200439e+01   -1.8687279297e+04
    8.6499198914e+01   -1.8760417969e+04
    8.6599098206e+01   -1.8837003906e+04
    8.6699096680e+01   -1.8918029297e+04
    8.6799201965e+01   -1.9004203125e+04
    8.6899101257e+01   -1.9095916016e+04
    8.6999099731e+01   -1.9193222656e+04
    8.7099197388e+01   -1.9295841797e+04
    8.7199096680e+01   -1.9403193359e+04
    8.7299102783e+01   -1.9514449219e+04
    8.7399200439e+01   -1.9628585938e+04
    8.7499099731e+01   -1.9744449219e+04
    8.7599197388e+01   -1.9860820312e+04
    8.7699203491e+01   -1.9976466797e+04
    8.7799102783e+01   -2.0090181641e+04
    8.7899101257e+01   -2.0200830078e+04
    8.7999198914e+01   -2.0307406250e+04
    8.8099197388e+01   -2.0409076172e+04
    8.8199203491e+01   -2.0505222656e+04
    8.8299102783e+01   -2.0595488281e+04
    8.8399101257e+01   -2.0679791016e+04
    8.8499099731e+01   -2.0758337891e+04
    8.8599098206e+01   -2.0831628906e+04
    8.8699203491e+01   -2.0900445312e+04
    8.8799201965e+01   -2.0965833984e+04
    8.8899101257e+01   -2.1029078125e+04
    8.8999099731e+01   -2.1091638672e+04
    8.9099098206e+01   -2.1155074219e+04
    8.9199096680e+01   -2.1220925781e+04
    8.9299102783e+01   -2.1290566406e+04
    8.9399101257e+01   -2.1365056641e+04
    8.9499198914e+01   -2.1445054688e+04
    8.9599098206e+01   -2.1530751953e+04
    8.9699096680e+01   -2.1621851562e+04
    8.9799102783e+01   -2.1717591797e+04
    8.9899101257e+01   -2.1816808594e+04
    8.9999099731e+01   -2.1918029297e+04
    9.0099197388e+01   -2.2019572266e+04
    9.0199096680e+01   -2.2119681641e+04
    9.0299102783e+01   -2.2216667969e+04
    9.0399101257e+01   -2.2309048828e+04
    9.0499099731e+01   -2.2395664062e+04
    9.0599098206e+01   -2.2475753906e+04
    9.0699096680e+01   -2.2549013672e+04
    9.0799102783e+01   -2.2615615234e+04
    9.0899002075e+01   -2.2676187500e+04
    9.0999099731e+01   -2.2731748047e+04
    9.1098999023e+01   -2.2783615234e+04
    9.1199096680e+01   -2.2833306641e+04
    9.1299102783e+01   -2.2882421875e+04
    9.1399101257e+01   -2.2932519531e+04
    9.1499198914e+01   -2.2985003906e+04
    9.1599098206e+01   -2.3041005859e+04
    9.1698997498e+01   -2.3101230469e+04
    9.1799102783e+01   -2.3165824219e+04
    9.1899101257e+01   -2.3234353516e+04
    9.1999099731e+01   -2.3305906250e+04
    9.2098999023e+01   -2.3379248047e+04
    9.2198997498e+01   -2.3452990234e+04
    9.2299003601e+01   -2.3525750000e+04
    9.2399101257e+01   -2.3596291016e+04
    9.2499099731e+01   -2.3663632812e+04
    9.2599098206e+01   -2.3727123047e+04
    9.2699096680e+01   -2.3786472656e+04
    9.2799003601e+01   -2.3841740234e+04
    9.2899101257e+01   -2.3893273438e+04
    9.2999099731e+01   -2.3941638672e+04
    9.3099098206e+01   -2.3987529297e+04
    9.3199096680e+01   -2.4031671875e+04
    9.3299003601e+01   -2.4074742188e+04
    9.3399002075e+01   -2.4117304688e+04
    9.3499099731e+01   -2.4159775391e+04
    9.3598999023e+01   -2.4202400391e+04
    9.3698997498e+01   -2.4245257812e+04
    9.3799003601e+01   -2.4288281250e+04
    9.3899002075e+01   -2.4331300781e+04
    9.3999000549e+01   -2.4374099609e+04
    9.4098999023e+01   -2.4416468750e+04
    9.4198997498e+01   -2.4458246094e+04
    9.4299003601e+01   -2.4499347656e+04
    9.4399002075e+01   -2.4539779297e+04
    9.4499000549e+01   -2.4579628906e+04
    9.4599098206e+01   -2.4619044922e+04
    9.4699096680e+01   -2.4658203125e+04
    9.4799102783e+01   -2.4697261719e+04
    9.4898902893e+01   -2.4736326172e+04
    9.4999000549e+01   -2.4775429688e+04
    9.5098999023e+01   -2.4814513672e+04
    9.5199096680e+01   -2.4853417969e+04
    9.5299003601e+01   -2.4891880859e+04
    9.5399002075e+01   -2.4929546875e+04
    9.5499099731e+01   -2.4966003906e+04
    9.5599098206e+01   -2.5000820312e+04
    9.5698997498e+01   -2.5033595703e+04
    9.5798896790e+01   -2.5064009766e+04
    9.5899002075e+01   -2.5091859375e+04
    9.5999099731e+01   -2.5117101562e+04
    9.6098999023e+01   -2.5139886719e+04
    9.6198898315e+01   -2.5160574219e+04
    9.6299003601e+01   -2.5179728516e+04
    9.6399101257e+01   -2.5198082031e+04
    9.6499000549e+01   -2.5216492188e+04
    9.6599098206e+01   -2.5235873047e+04
    9.6698997498e+01   -2.5257125000e+04
    9.6799003601e+01   -2.5281054688e+04
    9.6899002075e+01   -2.5308314453e+04
    9.6998901367e+01   -2.5339306641e+04
    9.7098999023e+01   -2.5374017578e+04
    9.7198997498e+01   -2.5411863281e+04
    9.7299003601e+01   -2.5451703125e+04
    9.7399002075e+01   -2.5491996094e+04
    9.7499000549e+01   -2.5531025391e+04
    9.7598899841e+01   -2.5567138672e+04
    9.7698898315e+01   -2.5598964844e+04
    9.7798896790e+01   -2.5625597656e+04
    9.7899002075e+01   -2.5646726562e+04
    9.7998901367e+01   -2.5662708984e+04
    9.8098899841e+01   -2.5674548828e+04
    9.8198997498e+01   -2.5683802734e+04
    9.8298896790e+01   -2.5692406250e+04
    9.8398902893e+01   -2.5702453125e+04
    9.8498901367e+01   -2.5715931641e+04
    9.8598899841e+01   -2.5734480469e+04
    9.8698898315e+01   -2.5759189453e+04
    9.8799003601e+01   -2.5790470703e+04
    9.8898902893e+01   -2.5828021484e+04
    9.8999000549e+01   -2.5870888672e+04
    9.9098899841e+01   -2.5917611328e+04
    9.9198997498e+01   -2.5966406250e+04
    9.9298896790e+01   -2.6015380859e+04
    9.9398902893e+01   -2.6062742188e+04
    9.9499000549e+01   -2.6106992188e+04
    9.9598999023e+01   -2.6147097656e+04
    9.9698898315e+01   -2.6182607422e+04
    9.9798896790e+01   -2.6213703125e+04
    9.9898902893e+01   -2.6241175781e+04
    9.9999000549e+01   -2.6266314453e+04
    1.0009899902e+02   -2.6290730469e+04
    1.0019899750e+02   -2.6316150391e+04
    1.0029900360e+02   -2.6344203125e+04
    1.0039900208e+02   -2.6376226562e+04
    1.0049900055e+02   -2.6413130859e+04
    1.0059899902e+02   -2.6455326172e+04
    1.0069899750e+02   -2.6502720703e+04
    1.0079900360e+02   -2.6554767578e+04
    1.0089900208e+02   -2.6610562500e+04
    1.0099900055e+02   -2.6668972656e+04
    1.0109899902e+02   -2.6728792969e+04
    1.0119899750e+02   -2.6788906250e+04
    1.0129900360e+02   -2.6848419922e+04
    1.0139900208e+02   -2.6906761719e+04
    1.0149900055e+02   -2.6963718750e+04
    1.0159899902e+02   -2.7019431641e+04
    1.0169899750e+02   -2.7074341797e+04
    1.0179900360e+02   -2.7129107422e+04
    1.0189900208e+02   -2.7184492188e+04
    1.0199900055e+02   -2.7241248047e+04
    1.0209899902e+02   -2.7300021484e+04
    1.0219899750e+02   -2.7361275391e+04
    1.0229900360e+02   -2.7425244141e+04
    1.0239900208e+02   -2.7491910156e+04
    1.0249900055e+02   -2.7561013672e+04
    1.0259899902e+02   -2.7632103516e+04
    1.0269899750e+02   -2.7704615234e+04
    1.0279900360e+02   -2.7777964844e+04
    1.0289900208e+02   -2.7851642578e+04
    1.0299900055e+02   -2.7925300781e+04
    1.0309899902e+02   -2.7998824219e+04
    1.0319899750e+02   -2.8072380859e+04
    1.0329900360e+02   -2.8146402344e+04
    1.0339900208e+02   -2.8221453125e+04
    1.0349900055e+02   -2.8298082031e+04
    1.0359899902e+02   -2.8376746094e+04
    1.0369899750e+02   -2.8457798828e+04
    1.0379900360e+02   -2.8541486328e+04
    1.0389900208e+02   -2.8627945312e+04
    1.0399900055e+02   -2.8717210938e+04
    1.0409899902e+02   -2.8809220703e+04
    1.0419899750e+02   -2.8903828125e+04
    1.0429900360e+02   -2.9000820312e+04
    1.0439900208e+02   -2.9099929688e+04
    1.0449900055e+02   -2.9200837891e+04
    1.0459899902e+02   -2.9303191406e+04
    1.0469899750e+02   -2.9406601562e+04
    1.0479900360e+02   -2.9510603516e+04
    1.0489900208e+02   -2.9614607422e+04
    1.0499900055e+02   -2.9717919922e+04
    1.0509899902e+02   -2.9819839844e+04
    1.0519899750e+02   -2.9919785156e+04
    1.0529900360e+02   -3.0017412109e+04
    1.0539900208e+02   -3.0112695312e+04
    1.0549900055e+02   -3.0205962891e+04
    1.0559899902e+02   -3.0297880859e+04
    1.0569899750e+02   -3.0389386719e+04
    1.0579900360e+02   -3.0481578125e+04
    1.0589900208e+02   -3.0575564453e+04
    1.0599900055e+02   -3.0672322266e+04
    1.0609899902e+02   -3.0772560547e+04
    1.0619899750e+02   -3.0876625000e+04
    1.0629900360e+02   -3.0984447266e+04
    1.0639900208e+02   -3.1095531250e+04
    1.0649900055e+02   -3.1209005859e+04
    1.0659899902e+02   -3.1323716797e+04
    1.0669899750e+02   -3.1438353516e+04
    1.0679900360e+02   -3.1551593750e+04
    1.0689900208e+02   -3.1662250000e+04
    1.0699900055e+02   -3.1769388672e+04
    1.0709899902e+02   -3.1872416016e+04
    1.0719899750e+02   -3.1971125000e+04
    1.0729900360e+02   -3.2065697266e+04
    1.0739900208e+02   -3.2156652344e+04
    1.0749900055e+02   -3.2244757812e+04
    1.0759899902e+02   -3.2330912109e+04
    1.0769899750e+02   -3.2416017578e+04
    1.0779900360e+02   -3.2500871094e+04
    1.0789900208e+02   -3.2586066406e+04
    1.0799900055e+02   -3.2671929688e+04
    1.0809899902e+02   -3.2758492188e+04
    1.0819899750e+02   -3.2845503906e+04
    1.0829900360e+02   -3.2932472656e+04
    1.0839900208e+02   -3.3018742188e+04
    1.0849900055e+02   -3.3103566406e+04
    1.0859899902e+02   -3.3186207031e+04
    1.0869899750e+02   -3.3266000000e+04
    1.0879900360e+02   -3.3342425781e+04
    1.0889900208e+02   -3.3415148438e+04
    1.0899900055e+02   -3.3484023438e+04
    1.0909899902e+02   -3.3549085938e+04
    1.0919899750e+02   -3.3610515625e+04
    1.0929900360e+02   -3.3668589844e+04
    1.0939900208e+02   -3.3723628906e+04
    1.0949900055e+02   -3.3775953125e+04
    1.0959899902e+02   -3.3825843750e+04
    1.0969899750e+02   -3.3873503906e+04
    1.0979900360e+02   -3.3919042969e+04
    1.0989900208e+02   -3.3962472656e+04
    1.0999900055e+02   -3.4003718750e+04
    1.1009899902e+02   -3.4042632812e+04
    1.1019899750e+02   -3.4078996094e+04
    1.1029900360e+02   -3.4112492188e+04
    1.1039900208e+02   -3.4142671875e+04
    1.1049900055e+02   -3.4168968750e+04
    1.1059899902e+02   -3.4190750000e+04
    1.1069899750e+02   -3.4207410156e+04
    1.1079900360e+02   -3.4218453125e+04
    1.1089900208e+02   -3.4223566406e+04
    1.1099900055e+02   -3.4222671875e+04
    1.1109899902e+02   -3.4215937500e+04
    1.1119899750e+02   -3.4203753906e+04
    1.1129900360e+02   -3.4186675781e+04
    1.1139900208e+02   -3.4165332031e+04
    1.1149900055e+02   -3.4140335938e+04
    1.1159899902e+02   -3.4112183594e+04
    1.1169899750e+02   -3.4081167969e+04
    1.1179900360e+02   -3.4047343750e+04
    1.1189900208e+02   -3.4010507812e+04
    1.1199900055e+02   -3.3970238281e+04
    1.1209899902e+02   -3.3925941406e+04
    1.1219899750e+02   -3.3876941406e+04
    1.1229900360e+02   -3.3822578125e+04
    1.1239900208e+02   -3.3762308594e+04
    1.1249900055e+02   -3.3695789062e+04
    1.1259899902e+02   -3.3622937500e+04
    1.1269899750e+02   -3.3543949219e+04
    1.1279900360e+02   -3.3459281250e+04
    1.1289900208e+02   -3.3369593750e+04
    1.1299900055e+02   -3.3275664062e+04
    1.1309899902e+02   -3.3178285156e+04
    1.1319899750e+02   -3.3078144531e+04
    1.1329900360e+02   -3.2975714844e+04
    1.1339900208e+02   -3.2871187500e+04
    1.1349900055e+02   -3.2764429688e+04
    1.1359899902e+02   -3.2655005859e+04
    1.1369899750e+02   -3.2542228516e+04
    1.1379900360e+02   -3.2425251953e+04
    1.1389900208e+02   -3.2303191406e+04
    1.1399900055e+02   -3.2175246094e+04
    1.1409899902e+02   -3.2040806641e+04
    1.1419899750e+02   -3.1899531250e+04
    1.1429900360e+02   -3.1751388672e+04
    1.1439900208e+02   -3.1596666016e+04
    1.1449900055e+02   -3.1435927734e+04
    1.1459899902e+02   -3.1269937500e+04
    1.1469899750e+02   -3.1099544922e+04
    1.1479900360e+02   -3.0925572266e+04
    1.1489900208e+02   -3.0748714844e+04
    1.1499900055e+02   -3.0569468750e+04
    1.1509899902e+02   -3.0388082031e+04
    1.1519899750e+02   -3.0204542969e+04
    1.1529900360e+02   -3.0018593750e+04
    1.1539900208e+02   -2.9829771484e+04
    1.1549900055e+02   -2.9637482422e+04
    1.1559899902e+02   -2.9441087891e+04
    1.1569899750e+02   -2.9239990234e+04
    1.1579900360e+02   -2.9033716797e+04
    1.1589900208e+02   -2.8821978516e+04
    1.1599900055e+02   -2.8604701172e+04
    1.1609899902e+02   -2.8382029297e+04
    1.1619899750e+02   -2.8154308594e+04
    1.1629900360e+02   -2.7922048828e+04
    1.1639900208e+02   -2.7685873047e+04
    1.1649900055e+02   -2.7446453125e+04
    1.1659899902e+02   -2.7204439453e+04
    1.1669899750e+02   -2.6960410156e+04
    1.1679900360e+02   -2.6714828125e+04
    1.1689900208e+02   -2.6468009766e+04
    1.1699900055e+02   -2.6220107422e+04
    1.1709899902e+02   -2.5971105469e+04
    1.1719899750e+02   -2.5720832031e+04
    1.1729900360e+02   -2.5468994141e+04
    1.1739900208e+02   -2.5215214844e+04
    1.1749900055e+02   -2.4959076172e+04
    1.1759899902e+02   -2.4700162109e+04
    1.1769899750e+02   -2.4438101562e+04
    1.1779900360e+02   -2.4172595703e+04
    1.1789900208e+02   -2.3903437500e+04
    1.1799900055e+02   -2.3630525391e+04
    1.1809899902e+02   -2.3353880859e+04
    1.1819899750e+02   -2.3073664062e+04
    1.1829900360e+02   -2.2790171875e+04
    1.1839900208e+02   -2.2503781250e+04
    1.1849900055e+02   -2.2214875000e+04
    1.1859899902e+02   -2.1923771484e+04
    1.1869899750e+02   -2.1630673828e+04
    1.1879900360e+02   -2.1335654297e+04
    1.1889900208e+02   -2.1038724609e+04
    1.1899900055e+02   -2.0739974609e+04
    1.1909899902e+02   -2.0439667969e+04
    1.1919899750e+02   -2.0138236328e+04
    1.1929900360e+02   -1.9836214844e+04
    1.1939900208e+02   -1.9534160156e+04
    1.1949900055e+02   -1.9232572266e+04
    1.1959899902e+02   -1.8931835938e+04
    1.1969899750e+02   -1.8632189453e+04
    1.1979900360e+02   -1.8333720703e+04
    1.1989900208e+02   -1.8036380859e+04
    1.1999900055e+02   -1.7739992188e+04
    1.2009899902e+02   -1.7444273438e+04
    1.2019899750e+02   -1.7148880859e+04
    1.2029900360e+02   -1.6853453125e+04
    1.2039900208e+02   -1.6557648438e+04
    1.2049900055e+02   -1.6261184570e+04
    1.2059899902e+02   -1.5963868164e+04
    1.2069899750e+02   -1.5665610352e+04
    1.2079900360e+02   -1.5366436523e+04
    1.2089900208e+02   -1.5066491211e+04
    1.2099900055e+02   -1.4766055664e+04
    1.2109899902e+02   -1.4465554688e+04
    1.2119899750e+02   -1.4165529297e+04
    1.2129900360e+02   -1.3866580078e+04
    1.2139900208e+02   -1.3569314453e+04
    1.2149900055e+02   -1.3274306641e+04
    1.2159899902e+02   -1.2982055664e+04
    1.2169899750e+02   -1.2692956055e+04
    1.2179900360e+02   -1.2407262695e+04
    1.2189900208e+02   -1.2125042969e+04
    1.2199900055e+02   -1.1846125977e+04
    1.2209899902e+02   -1.1570082031e+04
    1.2219899750e+02   -1.1296224609e+04
    1.2229900360e+02   -1.1023643555e+04
    1.2239900208e+02   -1.0751277344e+04
    1.2249900055e+02   -1.0478005859e+04
    1.2259899902e+02   -1.0202743164e+04
    1.2269899750e+02   -9.9245234375e+03
    1.2279900360e+02   -9.6425644531e+03
    1.2289900208e+02   -9.3563320312e+03
    1.2299900055e+02   -9.0655712891e+03
    1.2309899902e+02   -8.7702919922e+03
    1.2319899750e+02   -8.4707441406e+03
    1.2329900360e+02   -8.1673828125e+03
    1.2339900208e+02   -7.8608081055e+03
    1.2349900055e+02   -7.5517172852e+03
    1.2359899902e+02   -7.2409497070e+03
    1.2369899750e+02   -6.9295742188e+03
    1.2379900360e+02   -6.6188515625e+03
    1.2389900208e+02   -6.3101035156e+03
    1.2399900055e+02   -6.0046621094e+03
    1.2409899902e+02   -5.7039018555e+03
    1.2419899750e+02   -5.4092363281e+03
    1.2429900360e+02   -5.1220166016e+03
    1.2439900208e+02   -4.8433759766e+03
    1.2449900055e+02   -4.5741044922e+03
    1.2459899902e+02   -4.3146103516e+03
    1.2469899750e+02   -4.0649653320e+03
    1.2479799652e+02   -3.8249809570e+03
    1.2489900208e+02   -3.5942770996e+03
    1.2499800110e+02   -3.3723789062e+03
    1.2509899902e+02   -3.1588315430e+03
    1.2519899750e+02   -2.9532775879e+03
    1.2529900360e+02   -2.7555222168e+03
    1.2539900208e+02   -2.5655961914e+03
    1.2549900055e+02   -2.3837736816e+03
    1.2559899902e+02   -2.2105368652e+03
    1.2569899750e+02   -2.0465266113e+03
    1.2579799652e+02   -1.8924973145e+03
    1.2589800262e+02   -1.7492498779e+03
    1.2599900055e+02   -1.6175488281e+03
    1.2609899902e+02   -1.4980581055e+03
    1.2619899750e+02   -1.3912827148e+03
    1.2629900360e+02   -1.2974974365e+03
    1.2639900208e+02   -1.2166798096e+03
    1.2649900055e+02   -1.1484628906e+03
    1.2659899902e+02   -1.0921260986e+03
    1.2669899750e+02   -1.0466463623e+03
    1.2679799652e+02   -1.0107846680e+03
    1.2689900208e+02   -9.8318066406e+02
    1.2699900055e+02   -9.6244744873e+02
    1.2709899902e+02   -9.4724133301e+02
    1.2719899750e+02   -9.3629547119e+02
    1.2729900360e+02   -9.2844140625e+02
    1.2739800262e+02   -9.2263439941e+02
    1.2749900055e+02   -9.1797094727e+02
    1.2759799957e+02   -9.1369049072e+02
    1.2769899750e+02   -9.0916406250e+02
    1.2779799652e+02   -9.0388812256e+02
    1.2789900208e+02   -8.9748986816e+02
    1.2799800110e+02   -8.8972589111e+02
    1.2809800720e+02   -8.8046203613e+02
    1.2819900513e+02   -8.6964825439e+02
    1.2829899597e+02   -8.5729785156e+02
    1.2839900208e+02   -8.4346441650e+02
    1.2849899292e+02   -8.2822430420e+02
    1.2859899902e+02   -8.1167352295e+02
    1.2869900513e+02   -7.9393591309e+02
    1.2879899597e+02   -7.7516198730e+02
    1.2889900208e+02   -7.5550549316e+02
    1.2899899292e+02   -7.3510327148e+02
    1.2909899902e+02   -7.1407446289e+02
    1.2919900513e+02   -6.9252307129e+02
    1.2929899597e+02   -6.7053735352e+02
    1.2939900208e+02   -6.4819128418e+02
    1.2949899292e+02   -6.2554705811e+02
    1.2959899902e+02   -6.0265679932e+02
    1.2969900513e+02   -5.7956488037e+02
    1.2979899597e+02   -5.5630841064e+02
    1.2989900208e+02   -5.3291937256e+02
    1.2999899292e+02   -5.0943218994e+02
    1.3009899902e+02   -4.8588543701e+02
    1.3019900513e+02   -4.6231744385e+02
    1.3029899597e+02   -4.3876550293e+02
    1.3039900208e+02   -4.1526950073e+02
    1.3049899292e+02   -3.9187149048e+02
    1.3059899902e+02   -3.6860714722e+02
    1.3069900513e+02   -3.4550570679e+02
    1.3079899597e+02   -3.2260055542e+02
    1.3089900208e+02   -2.9992687988e+02
    1.3099899292e+02   -2.7750479126e+02
    1.3109899902e+02   -2.5532939148e+02
    1.3119900513e+02   -2.3337672424e+02
    1.3129899597e+02   -2.1161694336e+02
    1.3139900208e+02   -1.9001928711e+02
    1.3149899292e+02   -1.6854736328e+02
    1.3159899902e+02   -1.4715730286e+02
    1.3169900513e+02   -1.2580287933e+02
    1.3179899597e+02   -1.0443878174e+02
    1.3189900208e+02   -8.3021324158e+01
    1.3199899292e+02   -6.1514274597e+01
    1.3209899902e+02   -3.9897197723e+01
    1.3219900513e+02   -1.8169044495e+01
    1.3229899597e+02    3.6535203457e+00
    1.3239900208e+02    2.5537469864e+01
    1.3249899292e+02    4.7433765411e+01
    1.3259899902e+02    6.9275505066e+01
    1.3269900513e+02    9.0970306396e+01
    1.3279899597e+02    1.1239122009e+02
    1.3289900208e+02    1.3337329102e+02
    1.3299899292e+02    1.5371560669e+02
    1.3309899902e+02    1.7317889404e+02
    1.3319900513e+02    1.9147825623e+02
    1.3329899597e+02    2.0828189087e+02
    1.3339900208e+02    2.2321647644e+02
    1.3349899292e+02    2.3587696838e+02
    1.3359899902e+02    2.4583822632e+02
    1.3369900513e+02    2.5266557312e+02
    1.3379899597e+02    2.5593301392e+02
    1.3389900208e+02    2.5525389099e+02
    1.3399899292e+02    2.5031703186e+02
    1.3409899902e+02    2.4092097473e+02
    1.3419900513e+02    2.2701333618e+02
    1.3429899597e+02    2.0874623108e+02
    1.3439900208e+02    1.8653997803e+02
    1.3449899292e+02    1.6114677429e+02
    1.3459899902e+02    1.3371255493e+02
    1.3469900513e+02    1.0583432007e+02
    1.3479899597e+02    7.9608886719e+01
    1.3489900208e+02    5.7671886444e+01
    1.3499899292e+02    4.3226314545e+01
    1.3509899902e+02    4.0050891876e+01
    1.3519900513e+02    5.2478496552e+01
    1.3529899597e+02    8.5336791992e+01
    1.3539900208e+02    1.4384030151e+02
    1.3549899292e+02    2.3342935181e+02
    1.3559899902e+02    3.5955282593e+02
    1.3569900513e+02    5.2738714600e+02
    1.3579899597e+02    7.4148492432e+02
    1.3589900208e+02    1.0053527832e+03
    1.3599899292e+02    1.3209591064e+03
    1.3609899902e+02    1.6881672363e+03
    1.3619900513e+02    2.1041186523e+03
    1.3629899597e+02    2.5626752930e+03
    1.3639900208e+02    3.0540834961e+03
    1.3649899292e+02    3.5649765625e+03
    1.3659899902e+02    4.0787956543e+03
    1.3669900513e+02    4.5766845703e+03
    1.3679899597e+02    5.0387822266e+03
    1.3689900208e+02    5.4457407227e+03
    1.3699899292e+02    5.7803266602e+03
    1.3709899902e+02    6.0289702148e+03
    1.3719900513e+02    6.1830551758e+03
    1.3729899597e+02    6.2397617188e+03
    1.3739900208e+02    6.2023823242e+03
    1.3749899292e+02    6.0800761719e+03
    1.3759899902e+02    5.8870576172e+03
    1.3769900513e+02    5.6413071289e+03
    1.3779899597e+02    5.3629882812e+03
    1.3789900208e+02    5.0728095703e+03
    1.3799899292e+02    4.7905532227e+03
    1.3809899902e+02    4.5338735352e+03
    1.3819900513e+02    4.3173671875e+03
    1.3829899597e+02    4.1519125977e+03
    1.3839900208e+02    4.0442849121e+03
    1.3849899292e+02    3.9970278320e+03
    1.3859899902e+02    4.0085510254e+03
    1.3869900513e+02    4.0734545898e+03
    1.3879899597e+02    4.1830869141e+03
    1.3889900208e+02    4.3263051758e+03
    1.3899899292e+02    4.4903676758e+03
    1.3909899902e+02    4.6618847656e+03
    1.3919900513e+02    4.8277817383e+03
    1.3929899597e+02    4.9762397461e+03
    1.3939900208e+02    5.0975634766e+03
    1.3949899292e+02    5.1849086914e+03
    1.3959899902e+02    5.2347954102e+03
    1.3969900513e+02    5.2473540039e+03
    1.3979899597e+02    5.2262675781e+03
    1.3989900208e+02    5.1784082031e+03
    1.3999899292e+02    5.1132045898e+03
    1.4009899902e+02    5.0418168945e+03
    1.4019900513e+02    4.9762133789e+03
    1.4029899597e+02    4.9282451172e+03
    1.4039900208e+02    4.9087768555e+03
    1.4049899292e+02    4.9269086914e+03
    1.4059899902e+02    4.9893100586e+03
    1.4069900513e+02    5.0997016602e+03
    1.4079899597e+02    5.2585029297e+03
    1.4089900208e+02    5.4626694336e+03
    1.4099899292e+02    5.7057363281e+03
    1.4109899902e+02    5.9780668945e+03
    1.4119900513e+02    6.2673041992e+03
    1.4129899597e+02    6.5590190430e+03
    1.4139900208e+02    6.8375317383e+03
    1.4149899292e+02    7.0868652344e+03
    1.4159899902e+02    7.2917641602e+03
    1.4169900513e+02    7.4386967773e+03
    1.4179899597e+02    7.5167612305e+03
    1.4189900208e+02    7.5184443359e+03
    1.4199899292e+02    7.4401752930e+03
    1.4209899902e+02    7.2826162109e+03
    1.4219900513e+02    7.0506494141e+03
    1.4229899597e+02    6.7530498047e+03
    1.4239900208e+02    6.4018681641e+03
    1.4249899292e+02    6.0115893555e+03
    1.4259899902e+02    5.5981445312e+03
    1.4269900513e+02    5.1778740234e+03
    1.4279899597e+02    4.7665590820e+03
    1.4289900208e+02    4.3786220703e+03
    1.4299899292e+02    4.0265175781e+03
    1.4309899902e+02    3.7202849121e+03
    1.4319900513e+02    3.4672470703e+03
    1.4329899597e+02    3.2718544922e+03
    1.4339999390e+02    3.1356718750e+03
    1.4349899292e+02    3.0574897461e+03
    1.4359899902e+02    3.0335336914e+03
    1.4369999695e+02    3.0577448730e+03
    1.4379899597e+02    3.1221232910e+03
    1.4389999390e+02    3.2171513672e+03
    1.4399899292e+02    3.3323125000e+03
    1.4409899902e+02    3.4566845703e+03
    1.4419999695e+02    3.5795559082e+03
    1.4429899597e+02    3.6910178223e+03
    1.4439999390e+02    3.7824982910e+03
    1.4450000000e+02    3.8472016602e+03
    1.4460000610e+02    3.8804321289e+03
    1.4469900513e+02    3.8797827148e+03
    1.4480000305e+02    3.8451730957e+03
    1.4489999390e+02    3.7787253418e+03
    1.4500000000e+02    3.6844812012e+03
    1.4510000610e+02    3.5679812012e+03
    1.4519999695e+02    3.4357443848e+03
    1.4530000305e+02    3.2947004395e+03
    1.4539999390e+02    3.1516206055e+03
    1.4549899292e+02    3.0125979004e+03
    1.4560000610e+02    2.8826386719e+03
    1.4569999695e+02    2.7654042969e+03
    1.4580000305e+02    2.6630886230e+03
    1.4589999390e+02    2.5764030762e+03
    1.4600000000e+02    2.5046447754e+03
    1.4610000610e+02    2.4458339844e+03
    1.4619999695e+02    2.3969196777e+03
    1.4630000305e+02    2.3540571289e+03
    1.4639999390e+02    2.3129455566e+03
    1.4650000000e+02    2.2691955566e+03
    1.4660000610e+02    2.2186938477e+03
    1.4669999695e+02    2.1579416504e+03
    1.4680000305e+02    2.0843352051e+03
    1.4689999390e+02    1.9963625488e+03
    1.4700000000e+02    1.8936929932e+03
    1.4710000610e+02    1.7771467285e+03
    1.4719999695e+02    1.6485479736e+03
    1.4730000305e+02    1.5104869385e+03
    1.4739999390e+02    1.3660469971e+03
    1.4750000000e+02    1.2185651855e+03
    1.4760000610e+02    1.0714265137e+03
    1.4769999695e+02    9.2786065674e+02
    1.4780000305e+02    7.9075671387e+02
    1.4789999390e+02    6.6252844238e+02
    1.4800000000e+02    5.4503106689e+02
    1.4810000610e+02    4.3950686646e+02
    1.4819999695e+02    3.4655953979e+02
    1.4830000305e+02    2.6618966675e+02
    1.4839999390e+02    1.9789562988e+02
    1.4850000000e+02    1.4079986572e+02
    1.4860000610e+02    9.3767875671e+01
    1.4869999695e+02    5.5515655518e+01
    1.4880000305e+02    2.4698244095e+01
    1.4889999390e+02   -2.4439929053e-02
    1.4900000000e+02   -1.9938514709e+01
    1.4910000610e+02   -3.6238090515e+01
    1.4919999695e+02   -4.9996643066e+01
    1.4930000305e+02   -6.2151115417e+01
    1.4939999390e+02   -7.3497062683e+01
    1.4950000000e+02   -8.4686546326e+01
    1.4960000610e+02   -9.6227668762e+01
    1.4969999695e+02   -1.0849121094e+02
    1.4980000305e+02   -1.2172297668e+02
    1.4989999390e+02   -1.3605973816e+02
    1.5000000000e+02   -1.5154536438e+02
    1.5010000610e+02   -1.6814581299e+02
    1.5019999695e+02   -1.8576507568e+02
    1.5030000305e+02   -2.0426293945e+02
    1.5039999390e+02   -2.2347143555e+02
    1.5050000000e+02   -2.4320648193e+02
    1.5060000610e+02   -2.6327770996e+02
    1.5069999695e+02   -2.8350189209e+02
    1.5080000305e+02   -3.0371594238e+02
    1.5089999390e+02   -3.2378070068e+02
    1.5100000000e+02   -3.4358374023e+02
    1.5110000610e+02   -3.6304840088e+02
    1.5119999695e+02   -3.8213775635e+02
    1.5130000305e+02   -4.0084555054e+02
    1.5139999390e+02   -4.1918814087e+02
    1.5150000000e+02   -4.3720755005e+02
    1.5160000610e+02   -4.5497070312e+02
    1.5169999695e+02   -4.7255773926e+02
    1.5180000305e+02   -4.9005267334e+02
    1.5189999390e+02   -5.0754006958e+02
    1.5200000000e+02   -5.2509753418e+02
    1.5210000610e+02   -5.4278710938e+02
    1.5219999695e+02   -5.6065502930e+02
    1.5230000305e+02   -5.7873413086e+02
    1.5239999390e+02   -5.9704394531e+02
    1.5250000000e+02   -6.1559283447e+02
    1.5260000610e+02   -6.3437951660e+02
    1.5269999695e+02   -6.5339270020e+02
    1.5280000305e+02   -6.7261492920e+02
    1.5289999390e+02   -6.9202685547e+02
    1.5300000000e+02   -7.1160620117e+02
    1.5310000610e+02   -7.3132452393e+02
    1.5319999695e+02   -7.5114648438e+02
    1.5330000305e+02   -7.7102722168e+02
    1.5339999390e+02   -7.9090600586e+02
    1.5350000000e+02   -8.1070227051e+02
    1.5360000610e+02   -8.3031518555e+02
    1.5369999695e+02   -8.4962011719e+02
    1.5380000305e+02   -8.6846325684e+02
    1.5389999390e+02   -8.8666156006e+02
    1.5400000000e+02   -9.0400384521e+02
    1.5410000610e+02   -9.2025268555e+02
    1.5419999695e+02   -9.3515515137e+02
    1.5430000305e+02   -9.4846075439e+02
    1.5439999390e+02   -9.5993945312e+02
    1.5450000000e+02   -9.6939349365e+02
    1.5460000610e+02   -9.7665716553e+02
    1.5469999695e+02   -9.8158660889e+02
    1.5480000305e+02   -9.8404962158e+02
    1.5489999390e+02   -9.8392108154e+02
    1.5500000000e+02   -9.8108068848e+02
    1.5510000610e+02   -9.7541088867e+02
    1.5519999695e+02   -9.6679882812e+02
    1.5530000305e+02   -9.5514514160e+02
    1.5539999390e+02   -9.4037585449e+02
    1.5550000000e+02   -9.2245050049e+02
    1.5560000610e+02   -9.0136846924e+02
    1.5569999695e+02   -8.7718109131e+02
    1.5580000305e+02   -8.5000793457e+02
    1.5589999390e+02   -8.2004895020e+02
    1.5600000000e+02   -7.8759655762e+02
    1.5610000610e+02   -7.5305102539e+02
    1.5619999695e+02   -7.1692980957e+02
    1.5630000305e+02   -6.7986810303e+02
    1.5639999390e+02   -6.4262091064e+02
    1.5650000000e+02   -6.0606475830e+02
    1.5660000610e+02   -5.7118414307e+02
    1.5669999695e+02   -5.3903869629e+02
    1.5680000305e+02   -5.1071951294e+02
    1.5689999390e+02   -4.8729614258e+02
    1.5700000000e+02   -4.6975625610e+02
    1.5710000610e+02   -4.5895098877e+02
    1.5719999695e+02   -4.5555236816e+02
    1.5730000305e+02   -4.6001766968e+02
    1.5739999390e+02   -4.7256088257e+02
    1.5750000000e+02   -4.9313726807e+02
    1.5760000610e+02   -5.2143902588e+02
    1.5769999695e+02   -5.5690325928e+02
    1.5780000305e+02   -5.9873840332e+02
    1.5789999390e+02   -6.4596136475e+02
    1.5800000000e+02   -6.9743841553e+02
    1.5810000610e+02   -7.5193670654e+02
    1.5819999695e+02   -8.0818395996e+02
    1.5830000305e+02   -8.6492462158e+02
    1.5839999390e+02   -9.2096984863e+02
    1.5850000000e+02   -9.7523608398e+02
    1.5860000610e+02   -1.0267687988e+03
    1.5869999695e+02   -1.0747537842e+03
    1.5880000305e+02   -1.1185190430e+03
    1.5889999390e+02   -1.1575346680e+03
    1.5900000000e+02   -1.1914162598e+03
    1.5910000610e+02   -1.2199294434e+03
    1.5919999695e+02   -1.2429901123e+03
    1.5930000305e+02   -1.2606530762e+03
    1.5939999390e+02   -1.2730958252e+03
    1.5950000000e+02   -1.2806068115e+03
    1.5960000610e+02   -1.2835743408e+03
    1.5969999695e+02   -1.2824758301e+03
    1.5980000305e+02   -1.2778724365e+03
    1.5989999390e+02   -1.2704003906e+03
    1.6000100708e+02   -1.2607528076e+03
    1.6010000610e+02   -1.2496613770e+03
    1.6019999695e+02   -1.2378818359e+03
    1.6030099487e+02   -1.2261759033e+03
    1.6039999390e+02   -1.2152869873e+03
    1.6050000000e+02   -1.2059130859e+03
    1.6060000610e+02   -1.1986823730e+03
    1.6069999695e+02   -1.1941326904e+03
    1.6080099487e+02   -1.1926942139e+03
    1.6090100098e+02   -1.1946735840e+03
    1.6100100708e+02   -1.2002402344e+03
    1.6110099792e+02   -1.2094171143e+03
    1.6120100403e+02   -1.2220777588e+03
    1.6130099487e+02   -1.2379504395e+03
    1.6140100098e+02   -1.2566284180e+03
    1.6150100708e+02   -1.2775875244e+03
    1.6160099792e+02   -1.3002130127e+03
    1.6170100403e+02   -1.3238344727e+03
    1.6180099487e+02   -1.3477611084e+03
    1.6190100098e+02   -1.3713171387e+03
    1.6200100708e+02   -1.3938764648e+03
    1.6210099792e+02   -1.4148951416e+03
    1.6220100403e+02   -1.4339416504e+03
    1.6230099487e+02   -1.4507227783e+03
    1.6240100098e+02   -1.4650910645e+03
    1.6250100708e+02   -1.4770281982e+03
    1.6260099792e+02   -1.4866184082e+03
    1.6270100403e+02   -1.4940231934e+03
    1.6280099487e+02   -1.4994561768e+03
    1.6290100098e+02   -1.5031594238e+03
    1.6300100708e+02   -1.5053843994e+03
    1.6310099792e+02   -1.5063797607e+03
    1.6320100403e+02   -1.5063837891e+03
    1.6330099487e+02   -1.5056175537e+03
    1.6340100098e+02   -1.5042794189e+03
    1.6350100708e+02   -1.5025416260e+03
    1.6360099792e+02   -1.5005485840e+03
    1.6370100403e+02   -1.4984160156e+03
    1.6380099487e+02   -1.4962308350e+03
    1.6390100098e+02   -1.4940543213e+03
    1.6400100708e+02   -1.4919272461e+03
    1.6410099792e+02   -1.4898718262e+03
    1.6420100403e+02   -1.4878923340e+03
    1.6430099487e+02   -1.4859798584e+03
    1.6440100098e+02   -1.4841182861e+03
    1.6450100708e+02   -1.4822885742e+03
    1.6460099792e+02   -1.4804733887e+03
    1.6470100403e+02   -1.4786624756e+03
    1.6480099487e+02   -1.4768542480e+03
    1.6490100098e+02   -1.4750529785e+03
    1.6500100708e+02   -1.4732664795e+03
    1.6510099792e+02   -1.4715068359e+03
    1.6520100403e+02   -1.4697894287e+03
    1.6530099487e+02   -1.4681274414e+03
    1.6540100098e+02   -1.4665284424e+03
    1.6550100708e+02   -1.4649942627e+03
    1.6560099792e+02   -1.4635212402e+03
    1.6570100403e+02   -1.4620996094e+03
    1.6580099487e+02   -1.4607144775e+03
    1.6590100098e+02   -1.4593477783e+03
    1.6600100708e+02   -1.4579786377e+03
    1.6610099792e+02   -1.4565809326e+03
    1.6620100403e+02   -1.4551226807e+03
    1.6630099487e+02   -1.4535686035e+03
    1.6640100098e+02   -1.4518842773e+03
    1.6650100708e+02   -1.4500394287e+03
    1.6660099792e+02   -1.4480091553e+03
    1.6670100403e+02   -1.4457727051e+03
    1.6680099487e+02   -1.4433151855e+03
    1.6690100098e+02   -1.4406293945e+03
    1.6700100708e+02   -1.4377145996e+03
    1.6710099792e+02   -1.4345755615e+03
    1.6720100403e+02   -1.4312219238e+03
    1.6730099487e+02   -1.4276668701e+03
    1.6740100098e+02   -1.4239259033e+03
    1.6750100708e+02   -1.4200123291e+03
    1.6760099792e+02   -1.4159340820e+03
    1.6770100403e+02   -1.4116958008e+03
    1.6780099487e+02   -1.4073011475e+03
    1.6790100098e+02   -1.4027524414e+03
    1.6800100708e+02   -1.3980513916e+03
    1.6810099792e+02   -1.3932016602e+03
    1.6820100403e+02   -1.3882114258e+03
    1.6830099487e+02   -1.3830937500e+03
    1.6840100098e+02   -1.3778651123e+03
    1.6850100708e+02   -1.3725447998e+03
    1.6860099792e+02   -1.3671545410e+03
    1.6870100403e+02   -1.3617160645e+03
    1.6880099487e+02   -1.3562508545e+03
    1.6890100098e+02   -1.3507802734e+03
    1.6900100708e+02   -1.3453249512e+03
    1.6910099792e+02   -1.3399031982e+03
    1.6920100403e+02   -1.3345299072e+03
    1.6930099487e+02   -1.3292145996e+03
    1.6940100098e+02   -1.3239610596e+03
    1.6950100708e+02   -1.3187698975e+03
    1.6960099792e+02   -1.3136414795e+03
    1.6970100403e+02   -1.3085751953e+03
    1.6980099487e+02   -1.3035676270e+03
    1.6990100098e+02   -1.2986141357e+03
    1.7000100708e+02   -1.2937121582e+03
    1.7010099792e+02   -1.2888620605e+03
    1.7020100403e+02   -1.2840665283e+03
    1.7030099487e+02   -1.2793297119e+03
    1.7040100098e+02   -1.2746567383e+03
    1.7050100708e+02   -1.2700540771e+03
    1.7060099792e+02   -1.2655290527e+03
    1.7070100403e+02   -1.2610889893e+03
    1.7080099487e+02   -1.2567406006e+03
    1.7090100098e+02   -1.2524885254e+03
    1.7100100708e+02   -1.2483341064e+03
    1.7110099792e+02   -1.2442763672e+03
    1.7120100403e+02   -1.2403121338e+03
    1.7130099487e+02   -1.2364367676e+03
    1.7140100098e+02   -1.2326453857e+03
    1.7150100708e+02   -1.2289323730e+03
    1.7160099792e+02   -1.2252904053e+03
    1.7170100403e+02   -1.2217103271e+03
    1.7180099487e+02   -1.2181798096e+03
    1.7190100098e+02   -1.2146838379e+03
    1.7200100708e+02   -1.2112055664e+03
    1.7210099792e+02   -1.2077260742e+03
    1.7220100403e+02   -1.2042275391e+03
    1.7230099487e+02   -1.2006986084e+03
    1.7240100098e+02   -1.1971376953e+03
    1.7250100708e+02   -1.1935550537e+03
    1.7260099792e+02   -1.1899736328e+03
    1.7270100403e+02   -1.1864267578e+03
    1.7280099487e+02   -1.1829527588e+03
    1.7290100098e+02   -1.1795931396e+03
    1.7300100708e+02   -1.1763972168e+03
    1.7310099792e+02   -1.1734255371e+03
    1.7320100403e+02   -1.1707415771e+03
    1.7330099487e+02   -1.1683974609e+03
    1.7340100098e+02   -1.1664272461e+03
    1.7350100708e+02   -1.1648502197e+03
    1.7360099792e+02   -1.1636704102e+03
    1.7370100403e+02   -1.1628695068e+03
    1.7380099487e+02   -1.1624072266e+03
    1.7390100098e+02   -1.1622301025e+03
    1.7400100708e+02   -1.1622774658e+03
    1.7410099792e+02   -1.1624848633e+03
    1.7420100403e+02   -1.1627916260e+03
    1.7430099487e+02   -1.1631508789e+03
    1.7440100098e+02   -1.1635345459e+03
    1.7450100708e+02   -1.1639298096e+03
    1.7460099792e+02   -1.1643337402e+03
    1.7470100403e+02   -1.1647508545e+03
    1.7480099487e+02   -1.1651954346e+03
    1.7490100098e+02   -1.1656909180e+03
    1.7500100708e+02   -1.1662663574e+03
    1.7510099792e+02   -1.1669582520e+03
    1.7520100403e+02   -1.1678149414e+03
    1.7530099487e+02   -1.1688940430e+03
    1.7540100098e+02   -1.1702532959e+03
    1.7550100708e+02   -1.1719467773e+03
    1.7560099792e+02   -1.1740229492e+03
    1.7570199585e+02   -1.1765190430e+03
    1.7580099487e+02   -1.1794544678e+03
    1.7590100098e+02   -1.1828243408e+03
    1.7600100708e+02   -1.1865994873e+03
    1.7610099792e+02   -1.1907332764e+03
    1.7620100403e+02   -1.1951663818e+03
    1.7630200195e+02   -1.1998277588e+03
    1.7640100098e+02   -1.2046351318e+03
    1.7650199890e+02   -1.2095041504e+03
    1.7660200500e+02   -1.2143693848e+03
    1.7670199585e+02   -1.2191896973e+03
    1.7680099487e+02   -1.2239360352e+03
    1.7690199280e+02   -1.2285932617e+03
    1.7700100708e+02   -1.2331649170e+03
    1.7710200500e+02   -1.2376644287e+03
    1.7720100403e+02   -1.2421094971e+03
    1.7730099487e+02   -1.2465213623e+03
    1.7740199280e+02   -1.2509194336e+03
    1.7750100708e+02   -1.2553226318e+03
    1.7760099792e+02   -1.2597558594e+03
    1.7770199585e+02   -1.2642460938e+03
    1.7780099487e+02   -1.2688203125e+03
    1.7790199280e+02   -1.2735201416e+03
    1.7800100708e+02   -1.2784152832e+03
    1.7810200500e+02   -1.2835897217e+03
    1.7820199585e+02   -1.2891099854e+03
    1.7830200195e+02   -1.2950144043e+03
    1.7840199280e+02   -1.3013077393e+03
    1.7850199890e+02   -1.3079454346e+03
    1.7860200500e+02   -1.3148330078e+03
    1.7870199585e+02   -1.3218409424e+03
    1.7880200195e+02   -1.3288183594e+03
    1.7890199280e+02   -1.3356007080e+03
    1.7900199890e+02   -1.3420181885e+03
    1.7910200500e+02   -1.3479146729e+03
    1.7920199585e+02   -1.3531596680e+03
    1.7930200195e+02   -1.3576468506e+03
    1.7940199280e+02   -1.3612972412e+03
    1.7950199890e+02   -1.3640692139e+03
    1.7960200500e+02   -1.3659687500e+03
    1.7970199585e+02   -1.3670673828e+03
    1.7980200195e+02   -1.3675283203e+03
    1.7990199280e+02   -1.3676263428e+03
endcurve
