Curveplot
LS-DYNA keyword deck by LS-PrePost
Yrot-displ
phi moment-stiffness
Joint Stiff
300001 #pts=1000
* Minval= -2.075922460938e+004 at time=      -1.526359915733
* Maxval=  5.276953125000e+004 at time=       1.797680377960
 9.550225734711e-001  4.146621704102e+002
 9.648340940475e-001  1.564572021484e+003
 9.746541380882e-001  2.799797607422e+003
 9.844672083855e-001  3.984786376953e+003
 9.942889213562e-001  4.947183593750e+003
 1.004098057747e+000  5.572788574219e+003
 1.013912200928e+000  5.816074707031e+003
 1.023715615273e+000  5.712609375000e+003
 1.033523321152e+000  5.375091308594e+003
 1.043319582939e+000  4.979038574219e+003
 1.053102374077e+000  4.716266601563e+003
 1.062873363495e+000  4.729367675781e+003
 1.072639703751e+000  5.104488281250e+003
 1.082372069359e+000  5.855616699219e+003
 1.092084169388e+000  6.940265625000e+003
 1.101763725281e+000  8.216910156250e+003
 1.111400485039e+000  9.543052734375e+003
 1.121001482010e+000  1.078558300781e+004
 1.130553841591e+000  1.184052539063e+004
 1.140045523643e+000  1.264217578125e+004
 1.149492263794e+000  1.321859765625e+004
 1.158887624741e+000  1.363225097656e+004
 1.168228745461e+000  1.396893847656e+004
 1.177521824837e+000  1.431468652344e+004
 1.186765909195e+000  1.474225878906e+004
 1.195956707001e+000  1.527823730469e+004
 1.205107450485e+000  1.591819921875e+004
 1.214201569557e+000  1.663449609375e+004
 1.223259925842e+000  1.739070117188e+004
 1.232261538506e+000  1.814427148438e+004
 1.241221308708e+000  1.886376367188e+004
 1.250131011009e+000  1.953029687500e+004
 1.258999228477e+000  2.013892578125e+004
 1.267814993858e+000  2.069541601563e+004
 1.276588201523e+000  2.121222070313e+004
 1.285319805145e+000  2.171178125000e+004
 1.294002890587e+000  2.221660742188e+004
 1.302645564079e+000  2.275171875000e+004
 1.311242341995e+000  2.334005273438e+004
 1.319801330566e+000  2.400458593750e+004
 1.328310370445e+000  2.474521679688e+004
 1.336772918701e+000  2.554611132813e+004
 1.345191717148e+000  2.637476171875e+004
 1.353549838066e+000  2.718026953125e+004
 1.361859798431e+000  2.790105468750e+004
 1.370107531548e+000  2.848731054688e+004
 1.378295779228e+000  2.891583593750e+004
 1.386425971985e+000  2.919387695313e+004
 1.394498586655e+000  2.936559179688e+004
 1.402504563332e+000  2.950923242188e+004
 1.410456299782e+000  2.972265625000e+004
 1.418348312378e+000  3.008140625000e+004
 1.426184415817e+000  3.062744140625e+004
 1.433958292007e+000  3.135746093750e+004
 1.441673159599e+000  3.223108203125e+004
 1.449323534966e+000  3.316123046875e+004
 1.456906914711e+000  3.405826562500e+004
 1.464424610138e+000  3.484116796875e+004
 1.471871852875e+000  3.545197265625e+004
 1.479245781898e+000  3.586067187500e+004
 1.486550331116e+000  3.609721093750e+004
 1.493780732155e+000  3.621566406250e+004
 1.500939965248e+000  3.628417578125e+004
 1.508029699326e+000  3.637419140625e+004
 1.515046000481e+000  3.655247265625e+004
 1.521985530853e+000  3.685400781250e+004
 1.528864622116e+000  3.728322656250e+004
 1.535671710968e+000  3.782200390625e+004
 1.542403697968e+000  3.843533593750e+004
 1.549066781998e+000  3.907797265625e+004
 1.555653572083e+000  3.969668750000e+004
 1.562165379524e+000  4.024550000000e+004
 1.568600893021e+000  4.069003906250e+004
 1.574961304665e+000  4.101282031250e+004
 1.581238269806e+000  4.121444921875e+004
 1.587435722351e+000  4.132813671875e+004
 1.593560934067e+000  4.139788281250e+004
 1.599605083466e+000  4.146763281250e+004
 1.605575203896e+000  4.157529687500e+004
 1.611469984055e+000  4.175056640625e+004
 1.617287516594e+000  4.200189062500e+004
 1.623032212257e+000  4.232233203125e+004
 1.628704905510e+000  4.269475781250e+004
 1.634299874306e+000  4.309326171875e+004
 1.639818429947e+000  4.348380468750e+004
 1.645255684853e+000  4.382882812500e+004
 1.650618910789e+000  4.410021093750e+004
 1.655901789665e+000  4.428019140625e+004
 1.661110639572e+000  4.436601562500e+004
 1.666236519814e+000  4.436911328125e+004
 1.671286225319e+000  4.432208203125e+004
 1.676263570786e+000  4.426051171875e+004
 1.681167244911e+000  4.421356250000e+004
 1.686000227928e+000  4.419921875000e+004
 1.690761208534e+000  4.422319921875e+004
 1.695455193520e+000  4.427733593750e+004
 1.700082302094e+000  4.434998046875e+004
 1.704645991325e+000  4.443403906250e+004
 1.709143400192e+000  4.453057812500e+004
 1.713577270508e+000  4.465160156250e+004
 1.717943787575e+000  4.481873046875e+004
 1.722242832184e+000  4.506032031250e+004
 1.726462721825e+000  4.540960546875e+004
 1.730603575706e+000  4.589969140625e+004
 1.734640002251e+000  4.655706640625e+004
 1.738564014435e+000  4.736930468750e+004
 1.742359995842e+000  4.827241796875e+004
 1.746017694473e+000  4.915644531250e+004
 1.749521374702e+000  4.987429687500e+004
 1.752862811089e+000  5.027042968750e+004
 1.756046772003e+000  5.026501953125e+004
 1.759087681770e+000  4.990670703125e+004
 1.761995673180e+000  4.934500781250e+004
 1.764787673950e+000  4.879569531250e+004
 1.767468690872e+000  4.847741015625e+004
 1.770048856735e+000  4.850457031250e+004
 1.772535800934e+000  4.883450000000e+004
 1.774933099747e+000  4.933717968750e+004
 1.777237296104e+000  4.985512109375e+004
 1.779441237450e+000  5.027158984375e+004
 1.781542301178e+000  5.057207421875e+004
 1.783536076546e+000  5.082850390625e+004
 1.785420179367e+000  5.112432031250e+004
 1.787184834480e+000  5.149710156250e+004
 1.788823723793e+000  5.190993359375e+004
 1.790328145027e+000  5.225765234375e+004
 1.791697382927e+000  5.245037890625e+004
 1.792929530144e+000  5.245941796875e+004
 1.794023275375e+000  5.233092187500e+004
 1.794972896576e+000  5.216984375000e+004
 1.795778155327e+000  5.209127343750e+004
 1.796444296837e+000  5.214477343750e+004
 1.796970725060e+000  5.231076953125e+004
 1.797355651855e+000  5.252072265625e+004
 1.797593235970e+000  5.269239843750e+004
 1.797680377960e+000  5.276953125000e+004
 1.797620058060e+000  5.274642578125e+004
 1.797409892082e+000  5.263917187500e+004
 1.797047615051e+000  5.246461718750e+004
 1.796527385712e+000  5.222551953125e+004
 1.795846223831e+000  5.191664843750e+004
 1.795008301735e+000  5.154759375000e+004
 1.794013261795e+000  5.114943750000e+004
 1.792860746384e+000  5.077135546875e+004
 1.791549444199e+000  5.046571093750e+004
 1.790077567101e+000  5.025671484375e+004
 1.788449764252e+000  5.011909375000e+004
 1.786666274071e+000  4.999922656250e+004
 1.784726858139e+000  4.983394140625e+004
 1.782629728317e+000  4.957258984375e+004
 1.780369520187e+000  4.919835156250e+004
 1.777952551842e+000  4.873219531250e+004
 1.775381207466e+000  4.820074609375e+004
 1.772653460503e+000  4.762218359375e+004
 1.769767165184e+000  4.699795312500e+004
 1.766723036766e+000  4.632289453125e+004
 1.763526320457e+000  4.560479296875e+004
 1.760183572769e+000  4.487776171875e+004
 1.756694316864e+000  4.419419140625e+004
 1.753057718277e+000  4.361398046875e+004
 1.749276995659e+000  4.317254296875e+004
 1.745355010033e+000  4.284139843750e+004
 1.741292715073e+000  4.254970312500e+004
 1.737090110779e+000  4.220028125000e+004
 1.732747673988e+000  4.169786328125e+004
 1.728259205818e+000  4.098966796875e+004
 1.723635077477e+000  4.010422265625e+004
 1.718875646591e+000  3.910949218750e+004
 1.713988661766e+000  3.809418359375e+004
 1.708968400955e+000  3.713489062500e+004
 1.703822493553e+000  3.627892578125e+004
 1.698550820351e+000  3.551894531250e+004
 1.693165302277e+000  3.482816015625e+004
 1.687667250633e+000  3.417317187500e+004
 1.682054400444e+000  3.353190625000e+004
 1.676331162453e+000  3.290014843750e+004
 1.670502901077e+000  3.228291601563e+004
 1.664577126503e+000  3.168011914063e+004
 1.658552050591e+000  3.107480273438e+004
 1.652435302734e+000  3.043251171875e+004
 1.646221637726e+000  2.970030859375e+004
 1.639920353889e+000  2.884256250000e+004
 1.633541226387e+000  2.784730273438e+004
 1.627091646194e+000  2.673553515625e+004
 1.620569348335e+000  2.555842968750e+004
 1.613986253738e+000  2.439996093750e+004
 1.607353568077e+000  2.333911328125e+004
 1.600673437119e+000  2.243310937500e+004
 1.593958258629e+000  2.170909570313e+004
 1.587212324142e+000  2.115656054688e+004
 1.580435872078e+000  2.072383203125e+004
 1.573637008667e+000  2.032463085938e+004
 1.566821098328e+000  1.987580859375e+004
 1.559998631477e+000  1.930925390625e+004
 1.553160667419e+000  1.858094140625e+004
 1.546327233315e+000  1.768236523438e+004
 1.539496541023e+000  1.665377734375e+004
 1.532687544823e+000  1.554996582031e+004
 1.525905966759e+000  1.443386914063e+004
 1.519154667854e+000  1.336700097656e+004
 1.512448787689e+000  1.240315234375e+004
 1.505798816681e+000  1.156402441406e+004
 1.499197244644e+000  1.085129589844e+004
 1.492658376694e+000  1.025155566406e+004
 1.486182451248e+000  9.738280273438e+003
 1.479776263237e+000  9.277963867188e+003
 1.473445653915e+000  8.830342773438e+003
 1.467191338539e+000  8.363117187500e+003
 1.461021900177e+000  7.851572753906e+003
 1.454937100410e+000  7.278204589844e+003
 1.448944449425e+000  6.633933593750e+003
 1.443052053452e+000  5.929247558594e+003
 1.437257885933e+000  5.179039550781e+003
 1.431570172310e+000  4.407243652344e+003
 1.425996899605e+000  3.643810546875e+003
 1.420541524887e+000  2.922884521484e+003
 1.415207147598e+000  2.272508300781e+003
 1.409994125366e+000  1.713802246094e+003
 1.404913902283e+000  1.261673950195e+003
 1.399963736534e+000  9.210532226563e+002
 1.395149111748e+000  6.920170898438e+002
 1.390467882156e+000  5.525799560547e+002
 1.385921716690e+000  4.794595642090e+002
 1.381506323814e+000  4.449405212402e+002
 1.377225995064e+000  4.205376892090e+002
 1.373087525368e+000  3.782518920898e+002
 1.369081854820e+000  2.997574157715e+002
 1.365207076073e+000  1.759553070068e+002
 1.361463546753e+000  6.503614425659e+000
 1.357851505280e+000 -2.007847137451e+002
 1.354373335838e+000 -4.312609252930e+002
 1.351023077965e+000 -6.613902587891e+002
 1.347795963287e+000 -8.685643310547e+002
 1.344690799713e+000 -1.029948364258e+003
 1.341706395149e+000 -1.124243408203e+003
 1.338843107224e+000 -1.127752075195e+003
 1.336090207100e+000 -1.033161376953e+003
 1.333443880081e+000 -8.360681152344e+002
 1.330896496773e+000 -5.395839233398e+002
 1.328441262245e+000 -1.554569091797e+002
 1.326079130173e+000  2.981211547852e+002
 1.323798894882e+000  7.873070068359e+002
 1.321591496468e+000  1.280645141602e+003
 1.319452404976e+000  1.746869873047e+003
 1.317380785942e+000  2.159144287109e+003
 1.315370440483e+000  2.497315185547e+003
 1.313414454460e+000  2.764546142578e+003
 1.311511278152e+000  2.975851806641e+003
 1.309655785561e+000  3.159657714844e+003
 1.307844042778e+000  3.353027343750e+003
 1.306079268456e+000  3.600636962891e+003
 1.304353594780e+000  3.935394775391e+003
 1.302664518356e+000  4.377775878906e+003
 1.301010489464e+000  4.932068359375e+003
 1.299386858940e+000  5.586596191406e+003
 1.297795176506e+000  6.313368652344e+003
 1.296226978302e+000  7.068576171875e+003
 1.294682025909e+000  7.807808105469e+003
 1.293157696724e+000  8.492606445313e+003
 1.291654706001e+000  9.095319335938e+003
 1.290169715881e+000  9.601940429688e+003
 1.288699626923e+000  1.002700292969e+004
 1.287243604660e+000  1.039661914063e+004
 1.285795211792e+000  1.074668847656e+004
 1.284353971481e+000  1.111544335938e+004
 1.282911896706e+000  1.154180664063e+004
 1.281468987465e+000  1.204348242188e+004
 1.280020833015e+000  1.262225292969e+004
 1.278563499451e+000  1.326438574219e+004
 1.277092695236e+000  1.394335937500e+004
 1.275604844093e+000  1.462436621094e+004
 1.274095416069e+000  1.527622753906e+004
 1.272561192513e+000  1.587931445313e+004
 1.271003007889e+000  1.642398046875e+004
 1.269415259361e+000  1.691561523438e+004
 1.267797708511e+000  1.736383203125e+004
 1.266147494316e+000  1.779072656250e+004
 1.264463424683e+000  1.821493750000e+004
 1.262744545937e+000  1.865057421875e+004
 1.260987758636e+000  1.910589062500e+004
 1.259188294411e+000  1.958334960938e+004
 1.257343292236e+000  2.007668359375e+004
 1.255453228951e+000  2.057747656250e+004
 1.253513216972e+000  2.107735742188e+004
 1.251521348953e+000  2.156823828125e+004
 1.249470591545e+000  2.203972460938e+004
 1.247362375259e+000  2.248255859375e+004
 1.245195388794e+000  2.289229687500e+004
 1.242965459824e+000  2.327005664063e+004
 1.240672826767e+000  2.362175195313e+004
 1.238311171532e+000  2.395593359375e+004
 1.235878944397e+000  2.428237890625e+004
 1.233377456665e+000  2.460774609375e+004
 1.230803608894e+000  2.493652734375e+004
 1.228154659271e+000  2.527113281250e+004
 1.225423932076e+000  2.561030273438e+004
 1.222614169121e+000  2.594824414063e+004
 1.219724655151e+000  2.627725390625e+004
 1.216752767563e+000  2.658844921875e+004
 1.213695049286e+000  2.687122851563e+004
 1.210548281670e+000  2.711400585938e+004
 1.207313060760e+000  2.731452539063e+004
 1.203991174698e+000  2.747791210938e+004
 1.200579166412e+000  2.761574609375e+004
 1.197075963020e+000  2.774402343750e+004
 1.193477392197e+000  2.788064453125e+004
 1.189785718918e+000  2.803827929688e+004
 1.186000943184e+000  2.822033203125e+004
 1.182119607925e+000  2.842166210938e+004
 1.178143501282e+000  2.862912890625e+004
 1.174064278603e+000  2.882378710938e+004
 1.169884443283e+000  2.898578125000e+004
 1.165608167648e+000  2.910228320313e+004
 1.161230444908e+000  2.916885742188e+004
 1.156754255295e+000  2.919084570313e+004
 1.152169823647e+000  2.918211718750e+004
 1.147487640381e+000  2.916421875000e+004
 1.142698884010e+000  2.915453906250e+004
 1.137811541557e+000  2.916226757813e+004
 1.132823228836e+000  2.918665625000e+004
 1.127725362778e+000  2.921750390625e+004
 1.122525930405e+000  2.923841210938e+004
 1.117224812508e+000  2.923557617188e+004
 1.111825227737e+000  2.920069726563e+004
 1.106321811676e+000  2.913268750000e+004
 1.100714564323e+000  2.903670117188e+004
 1.095003724098e+000  2.892413671875e+004
 1.089193224907e+000  2.880497265625e+004
 1.083284020424e+000  2.868450781250e+004
 1.077274441719e+000  2.856283007813e+004
 1.071158409119e+000  2.843526171875e+004
 1.064947485924e+000  2.829546875000e+004
 1.058635592461e+000  2.813949804688e+004
 1.052232980728e+000  2.796643359375e+004
 1.045734286308e+000  2.777810156250e+004
 1.039134860039e+000  2.757709375000e+004
 1.032449126244e+000  2.736536718750e+004
 1.025662779808e+000  2.714214257813e+004
 1.018790245056e+000  2.690427929688e+004
 1.011822581291e+000  2.664816015625e+004
 1.004768371582e+000  2.637107226563e+004
 9.976131916046e-001  2.607508984375e+004
 9.903870224953e-001  2.576648046875e+004
 9.830650687218e-001  2.545309765625e+004
 9.756756424904e-001  2.514247851563e+004
 9.681918025017e-001  2.483921484375e+004
 9.606284499168e-001  2.454109570313e+004
 9.529920816422e-001  2.423933789063e+004
 9.452818036079e-001  2.392225585938e+004
 9.374951720238e-001  2.357901953125e+004
 9.296310544014e-001  2.320229882813e+004
 9.217031598091e-001  2.279384179688e+004
 9.137012958527e-001  2.236343164063e+004
 9.056390523911e-001  2.192341601563e+004
 8.975110054016e-001  2.148605664063e+004
 8.893210291862e-001  2.106052343750e+004
 8.810685276985e-001  2.064889453125e+004
 8.727608323097e-001  2.024566210938e+004
 8.644049763680e-001  1.984125390625e+004
 8.559838533401e-001  1.942447265625e+004
 8.475239872932e-001  1.898491796875e+004
 8.390125036240e-001  1.851744531250e+004
 8.304529190063e-001  1.802443359375e+004
 8.218550682068e-001  1.751253906250e+004
 8.132148981094e-001  1.699134179688e+004
 8.045301437378e-001  1.647116796875e+004
 7.958179116249e-001  1.596062500000e+004
 7.870634198189e-001  1.546303222656e+004
 7.782793641090e-001  1.497736328125e+004
 7.694692611694e-001  1.449884179688e+004
 7.606378793716e-001  1.401995996094e+004
 7.517771720886e-001  1.353224511719e+004
 7.428951263428e-001  1.302983300781e+004
 7.339955568314e-001  1.250967675781e+004
 7.250798344612e-001  1.197205468750e+004
 7.161481976509e-001  1.142011718750e+004
 7.072053551674e-001  1.086026757813e+004
 6.982460021973e-001  1.030022558594e+004
 6.892911791801e-001  9.746877929688e+003
 6.803358197212e-001  9.206003906250e+003
 6.713750958443e-001  8.682337890625e+003
 6.624113321304e-001  8.178215332031e+003
 6.534550189972e-001  7.692319824219e+003
 6.445043087006e-001  7.221799804688e+003
 6.355511546135e-001  6.762233886719e+003
 6.266097426414e-001  6.308676269531e+003
 6.176801323891e-001  5.855729980469e+003
 6.087530255318e-001  5.398481933594e+003
 5.998406410217e-001  4.933155761719e+003
 5.909419655800e-001  4.457526367188e+003
 5.820626020432e-001  3.971275146484e+003
 5.731953978539e-001  3.477330078125e+003
 5.643480420113e-001  2.982213623047e+003
 5.555235743523e-001  2.494950683594e+003
 5.467221736908e-001  2.026333496094e+003
 5.379431843758e-001  1.587611328125e+003
 5.291842222214e-001  1.189004150391e+003
 5.204553008080e-001  8.353643188477e+002
 5.117528438568e-001  5.303586425781e+002
 5.030809640884e-001  2.756415405273e+002
 4.944288134575e-001  7.199977874756e+001
endcurve
