Curveplot
LS-DYNA keyword deck by LS-PrePost
Yrot-displ
phi moment-stiffness
Joint Stiff
300001 #pts=1000
* Minval= -5.065107031250e+004 at time=      -1.495707273483
* Maxval=  1.820387695313e+004 at time=      -0.106013350189
 1.596836796125e-008  1.023518443108e-001
 1.124414250597e-008  1.364103704691e-001
 1.603411181605e-009  1.652802526951e-001
-1.407444116808e-008  1.807034164667e-001
-3.653804370174e-008  1.722114086151e-001
-6.575056232805e-008  1.284706741571e-001
-1.007027137234e-007  3.515507653356e-002
-1.375823757144e-007 -1.160174757242e-001
-1.708601189421e-007 -3.326219916344e-001
-1.923998240727e-007 -6.080872416496e-001
-1.915991134638e-007 -9.142709374428e-001
-1.531053044346e-007 -1.203379511833e+000
-6.502173732770e-008 -1.421028971672e+000
 8.437167764441e-008 -1.519013524055e+000
 3.052189185837e-007 -1.458223819733e+000
 6.045106033525e-007 -1.211136221886e+000
 9.907518006003e-007 -7.526399493217e-001
 1.460130761188e-006 -9.121802449226e-002
 2.008416458921e-006  7.647128701210e-001
 2.630767994560e-006  1.807713150978e+000
 3.318061089885e-006  3.027956485748e+000
 4.062903826707e-006  4.434329032898e+000
 4.850660388911e-006  6.032654762268e+000
 5.666683591699e-006  7.845381736755e+000
 6.496214609797e-006  9.904534339905e+000
 7.321373232116e-006  1.223698425293e+001
 8.116438038996e-006  1.487342071533e+001
 8.856269232638e-006  1.781571769714e+001
 9.509951269138e-006  2.106729698181e+001
 1.004353362077e-005  2.464297294617e+001
 1.041677205649e-005  2.855309104919e+001
 1.056954079104e-005  3.283494567871e+001
 1.045322733262e-005  3.748501205444e+001
 1.000639622362e-005  4.251998519897e+001
 9.156391570286e-006  4.795562744141e+001
 7.818483027222e-006  5.381184768677e+001
 5.861461886525e-006  6.010528564453e+001
 3.187267566318e-006  6.681862640381e+001
-3.231659206904e-007  7.392322540283e+001
-4.799588168680e-006  8.138088226318e+001
-1.039191556629e-005  8.918631744385e+001
-1.731790871418e-005  9.736934661865e+001
-2.569366370153e-005  1.059830627441e+002
-3.567239036784e-005  1.151305618286e+002
-4.741124575958e-005  1.249269027710e+002
-6.108556408435e-005  1.354975280762e+002
-7.697996625211e-005  1.469600524902e+002
-9.521769243293e-005  1.592292633057e+002
-1.159337916761e-004  1.720033416748e+002
-1.393598067807e-004  1.847517700195e+002
-1.657178072492e-004  1.965944671631e+002
-1.953093014890e-004  2.060817871094e+002
-2.282971399836e-004  2.115972595215e+002
-2.648177614901e-004  2.113651123047e+002
-3.050672239624e-004  2.035848693848e+002
-3.491968964227e-004  1.867394714355e+002
-3.975727304351e-004  1.595053405762e+002
-4.501414659899e-004  1.228227996826e+002
-5.070065381005e-004  7.943561553955e+001
-5.681211478077e-004  3.473599243164e+001
-6.336767110042e-004 -2.870910882950e+000
-7.039113552310e-004 -1.937250518799e+001
-7.788198417984e-004  2.411712646484e+000
-8.586652111262e-004  8.179264068604e+001
-9.438659180887e-004  2.393910675049e+002
-1.035226159729e-003  4.946445922852e+002
-1.134056714363e-003  8.660685424805e+002
-1.241678372025e-003  1.349686523438e+003
-1.359903952107e-003  1.922858398438e+003
-1.490827184170e-003  2.540325683594e+003
-1.636690809391e-003  3.134871337891e+003
-1.800682046451e-003  3.623969238281e+003
-1.984414877370e-003  3.942859130859e+003
-2.188949845731e-003  4.064826416016e+003
-2.415165537968e-003  4.000885009766e+003
-2.663241000846e-003  3.799529541016e+003
-2.933731535450e-003  3.538421630859e+003
-3.225655527785e-003  3.312707031250e+003
-3.537490963936e-003  3.199339355469e+003
-3.869295120239e-003  3.249408691406e+003
-4.221220035106e-003  3.483924316406e+003
-4.594267811626e-003  3.894523681641e+003
-4.990344867110e-003  4.429158203125e+003
-5.410303827375e-003  5.018374023438e+003
-5.855833180249e-003  5.590782714844e+003
-6.329440046102e-003  6.087207519531e+003
-6.834039930254e-003  6.464998046875e+003
-7.370450068265e-003  6.724933593750e+003
-7.939856499434e-003  6.904776367188e+003
-8.542497642338e-003  7.062349121094e+003
-9.179979562759e-003  7.265710449219e+003
-9.854536503553e-003  7.582322265625e+003
-1.056800503284e-002  8.050061523438e+003
-1.132014952600e-002  8.664923828125e+003
-1.211461331695e-002  9.394065429688e+003
-1.295466627926e-002  1.017566699219e+004
-1.384322624654e-002  1.092508496094e+004
-1.478483807296e-002  1.155606152344e+004
-1.578045450151e-002  1.200715625000e+004
-1.683024317026e-002  1.224586132813e+004
-1.793733797967e-002  1.227741699219e+004
-1.910309866071e-002  1.214102441406e+004
-2.032609097660e-002  1.192194433594e+004
-2.160532400012e-002  1.171444433594e+004
-2.293871715665e-002  1.160207324219e+004
-2.432699874043e-002  1.164491308594e+004
-2.577210776508e-002  1.187461035156e+004
-2.727418765426e-002  1.227140429688e+004
-2.883493714035e-002  1.278013281250e+004
-3.045431151986e-002  1.333301074219e+004
-3.213536739349e-002  1.386158007813e+004
-3.388356044888e-002  1.430737011719e+004
-3.569831699133e-002  1.464213769531e+004
-3.758145123720e-002  1.487792089844e+004
-3.953408822417e-002  1.504965820313e+004
-4.155439138412e-002  1.520655078125e+004
-4.365042969584e-002  1.539997167969e+004
-4.581984505057e-002  1.566295605469e+004
-4.806404560804e-002  1.599535449219e+004
-5.038112401962e-002  1.637062890625e+004
-5.277718603611e-002  1.674439257813e+004
-5.525293201208e-002  1.705995507813e+004
-5.781074985862e-002  1.726804492188e+004
-6.044915691018e-002  1.734666210938e+004
-6.316856294870e-002  1.729753906250e+004
-6.596956402063e-002  1.714889257813e+004
-6.885532289743e-002  1.695120312500e+004
-7.182080298662e-002  1.677161328125e+004
-7.486735284328e-002  1.666554296875e+004
-7.799560576677e-002  1.666827539063e+004
-8.120071142912e-002  1.678951953125e+004
-8.449138700962e-002  1.701471679688e+004
-8.786411583424e-002  1.730124414063e+004
-9.132149815559e-002  1.759750390625e+004
-9.486220777035e-002  1.785903906250e+004
-9.848845750093e-002  1.805376367188e+004
-1.022069230676e-001  1.816616601563e+004
-1.060133501887e-001  1.820387695313e+004
-1.099111214280e-001  1.819366406250e+004
-1.138960123062e-001  1.816479882813e+004
-1.179710328579e-001  1.814308203125e+004
-1.221380606294e-001  1.814416406250e+004
-1.263952553272e-001  1.816656445313e+004
-1.307482719421e-001  1.819246093750e+004
-1.351853758097e-001  1.819711132813e+004
-1.397196650505e-001  1.815547460938e+004
-1.443437337875e-001  1.804771679688e+004
-1.490619331598e-001  1.786811718750e+004
-1.538746207952e-001  1.763123632813e+004
-1.587731540203e-001  1.736167578125e+004
-1.637630760670e-001  1.709055664063e+004
-1.688437610865e-001  1.685158203125e+004
-1.740132719278e-001  1.667262890625e+004
-1.792693883181e-001  1.656352929688e+004
-1.846160441637e-001  1.652076562500e+004
-1.900471597910e-001  1.652702734375e+004
-1.955709457397e-001  1.655413476563e+004
-2.011873722076e-001  1.656604687500e+004
-2.068910151720e-001  1.653262304688e+004
-2.126818001270e-001  1.643401757813e+004
-2.185689061880e-001  1.626272656250e+004
-2.245402187109e-001  1.602401269531e+004
-2.306104153395e-001  1.573551171875e+004
-2.367654442787e-001  1.542370214844e+004
-2.430092841387e-001  1.511036621094e+004
-2.493398785591e-001  1.481154980469e+004
-2.557539343834e-001  1.453494824219e+004
-2.622594535351e-001  1.427585546875e+004
-2.688508629799e-001  1.401981054688e+004
-2.755226790905e-001  1.374962695313e+004
-2.822803854942e-001  1.344901367188e+004
-2.891213595867e-001  1.310763867188e+004
-2.960454821587e-001  1.272509667969e+004
-3.030510842800e-001  1.231588476563e+004
-3.101287186146e-001  1.190125976563e+004
-3.172906041145e-001  1.150458886719e+004
-3.245314955711e-001  1.114987304688e+004
-3.318478763103e-001  1.085401269531e+004
-3.392375111580e-001  1.061501757813e+004
-3.467041850090e-001  1.041949023438e+004
-3.542411625385e-001  1.024298828125e+004
-3.618594408035e-001  1.005308886719e+004
-3.695510625839e-001  9.813883789063e+003
-3.773121237755e-001  9.501756835938e+003
-3.851478397846e-001  9.104379882813e+003
-3.930515050888e-001  8.624109375000e+003
-4.010294377804e-001  8.074496582031e+003
-4.090763032436e-001  7.482790527344e+003
-4.171868264675e-001  6.883199218750e+003
-4.253633618355e-001  6.303099121094e+003
-4.335946738720e-001  5.765259277344e+003
-4.418941736221e-001  5.282564453125e+003
-4.502490162849e-001  4.859018066406e+003
-4.586656093597e-001  4.483440917969e+003
-4.671308100224e-001  4.141927734375e+003
-4.756511151791e-001  3.817682128906e+003
-4.842347204685e-001  3.494293457031e+003
-4.928644001484e-001  3.158692382813e+003
-5.015492439270e-001  2.805297119141e+003
-5.102766752243e-001  2.436940185547e+003
-5.190599560738e-001  2.061888183594e+003
-5.278919935226e-001  1.694926757813e+003
-5.367671251297e-001  1.354475341797e+003
-5.456923246384e-001  1.054875244141e+003
-5.546613335609e-001  8.066525878906e+002
-5.636656880379e-001  6.148340454102e+002
-5.727183222771e-001  4.785773315430e+002
-5.818175077438e-001  3.925413208008e+002
-5.909595489502e-001  3.435671386719e+002
-6.001339554787e-001  3.208186950684e+002
-6.093581318855e-001  3.142962646484e+002
-6.186152696609e-001  3.158840332031e+002
-6.279183626175e-001  3.197081298828e+002
-6.372624635696e-001  3.228049011230e+002
-6.466460824013e-001  3.252058105469e+002
-6.560659408569e-001  3.292388000488e+002
-6.655235290527e-001  3.392081298828e+002
-6.750339865685e-001  3.617722778320e+002
-6.845745444298e-001  4.025901794434e+002
-6.941568851471e-001  4.667815856934e+002
-7.037727236748e-001  5.571084594727e+002
-7.134319543839e-001  6.724500732422e+002
-7.231367230415e-001  8.053577270508e+002
-7.328745722771e-001  9.369648437500e+002
-7.426484227180e-001  1.039990356445e+003
-7.524656057358e-001  1.076120483398e+003
-7.623243331909e-001  9.955969238281e+002
-7.722216248512e-001  7.265383300781e+002
-7.821527719498e-001  2.152119445801e+002
-7.921181321144e-001 -5.915256958008e+002
-8.021160364151e-001 -1.724638427734e+003
-8.121346831322e-001 -3.179100097656e+003
-8.221812248230e-001 -4.892774902344e+003
-8.322477340698e-001 -6.678008789063e+003
-8.423120379448e-001 -8.271601562500e+003
-8.523791432381e-001 -9.369282226563e+003
-8.624469637871e-001 -9.716256835938e+003
-8.725120425224e-001 -9.163918945313e+003
-8.825682401657e-001 -7.889792968750e+003
-8.926261663437e-001 -6.176011230469e+003
-9.026897549629e-001 -4.365387695313e+003
-9.127579927444e-001 -2.784337158203e+003
-9.228556752205e-001 -1.730119262695e+003
-9.329763054848e-001 -1.348398193359e+003
-9.431177377701e-001 -1.712420410156e+003
-9.532829523087e-001 -2.813953613281e+003
-9.634714722633e-001 -4.559697265625e+003
-9.736742377281e-001 -6.774800781250e+003
-9.838911294937e-001 -9.149875976563e+003
-9.941037297249e-001 -1.140211523438e+004
-1.004307150841e+000 -1.329860839844e+004
-1.014492273331e+000 -1.470606152344e+004
-1.024653196335e+000 -1.560591894531e+004
-1.034786701202e+000 -1.617917285156e+004
-1.044896006584e+000 -1.664414453125e+004
-1.054965376854e+000 -1.720852343750e+004
-1.065007090569e+000 -1.800697265625e+004
-1.075010061264e+000 -1.906341796875e+004
-1.084966182709e+000 -2.023435351563e+004
-1.094881534576e+000 -2.132080273438e+004
-1.104736328125e+000 -2.211920117188e+004
-1.114555120468e+000 -2.248932031250e+004
-1.124305129051e+000 -2.238139062500e+004
-1.134006381035e+000 -2.194946875000e+004
-1.143652677536e+000 -2.142773437500e+004
-1.153255105019e+000 -2.108742187500e+004
-1.162807226181e+000 -2.117270507813e+004
-1.172308921814e+000 -2.187373437500e+004
-1.181768298149e+000 -2.317793164063e+004
-1.191174507141e+000 -2.496918164063e+004
-1.200523257256e+000 -2.705445507813e+004
-1.209799408913e+000 -2.920870898438e+004
-1.219010710716e+000 -3.120776757813e+004
-1.228129982948e+000 -3.288830859375e+004
-1.237158894539e+000 -3.416762890625e+004
-1.246099472046e+000 -3.502082812500e+004
-1.254943132401e+000 -3.547283984375e+004
-1.263674616814e+000 -3.557745312500e+004
-1.272313475609e+000 -3.544788671875e+004
-1.280858516693e+000 -3.518863671875e+004
-1.289304018021e+000 -3.490332812500e+004
-1.297661900520e+000 -3.468917968750e+004
-1.305917501450e+000 -3.464677734375e+004
-1.314075946808e+000 -3.484573046875e+004
-1.322145700455e+000 -3.533303906250e+004
-1.330119490623e+000 -3.613012109375e+004
-1.337995171547e+000 -3.722584375000e+004
-1.345770120621e+000 -3.858390625000e+004
-1.353435873985e+000 -4.009970703125e+004
-1.360991716385e+000 -4.165244531250e+004
-1.368436336517e+000 -4.310663281250e+004
-1.375758528709e+000 -4.432798046875e+004
-1.382956504822e+000 -4.519631250000e+004
-1.390022516251e+000 -4.567983593750e+004
-1.396963596344e+000 -4.581747265625e+004
-1.403774976730e+000 -4.570471484375e+004
-1.410461544991e+000 -4.547484765625e+004
-1.417020082474e+000 -4.526369531250e+004
-1.423451423645e+000 -4.515637890625e+004
-1.429763436317e+000 -4.516707421875e+004
-1.435950875282e+000 -4.526964843750e+004
-1.442017674446e+000 -4.543055468750e+004
-1.447952866554e+000 -4.564302343750e+004
-1.453766584396e+000 -4.593767578125e+004
-1.459456086159e+000 -4.636346093750e+004
-1.465023279190e+000 -4.695628515625e+004
-1.470464706421e+000 -4.770928906250e+004
-1.475772976875e+000 -4.855951562500e+004
-1.480952858925e+000 -4.938978515625e+004
-1.486002683640e+000 -5.007832031250e+004
-1.490920782089e+000 -5.052136718750e+004
-1.495707273483e+000 -5.065107031250e+004
-1.500351428986e+000 -5.044444531250e+004
-1.504863739014e+000 -4.997270703125e+004
-1.509244084358e+000 -4.935119921875e+004
-1.513500213623e+000 -4.870420703125e+004
-1.517628788948e+000 -4.814163281250e+004
-1.521630764008e+000 -4.774546093750e+004
-1.525513768196e+000 -4.754299609375e+004
-1.529278159142e+000 -4.752263671875e+004
-1.532926917076e+000 -4.765298437500e+004
-1.536459088326e+000 -4.788800781250e+004
-1.539871096611e+000 -4.817203906250e+004
-1.543162345886e+000 -4.843707421875e+004
-1.546334981918e+000 -4.862125390625e+004
-1.549389362335e+000 -4.867027343750e+004
-1.552325844765e+000 -4.854229296875e+004
-1.555138707161e+000 -4.820656250000e+004
-1.557836055756e+000 -4.766986718750e+004
-1.560421943665e+000 -4.696749218750e+004
-1.562900424004e+000 -4.615487890625e+004
-1.565274834633e+000 -4.530585546875e+004
-1.567546606064e+000 -4.450907031250e+004
-1.569718956947e+000 -4.384780078125e+004
-1.571797132492e+000 -4.336927343750e+004
-1.573780536652e+000 -4.308201171875e+004
-1.575673222542e+000 -4.294892187500e+004
-1.577469587326e+000 -4.289460156250e+004
-1.579174757004e+000 -4.281428125000e+004
-1.580791354179e+000 -4.262190625000e+004
-1.582319140434e+000 -4.226552343750e+004
-1.583759903908e+000 -4.173462109375e+004
-1.585115671158e+000 -4.105103515625e+004
-1.586387395859e+000 -4.027186328125e+004
-1.587582111359e+000 -3.944802734375e+004
-1.588703274727e+000 -3.861408984375e+004
-1.589754819870e+000 -3.779035937500e+004
-1.590737104416e+000 -3.698930468750e+004
-1.591655135155e+000 -3.622397265625e+004
-1.592512965202e+000 -3.551365234375e+004
-1.593313574791e+000 -3.488058984375e+004
-1.594059467316e+000 -3.434121875000e+004
-1.594751000404e+000 -3.389692578125e+004
-1.595391154289e+000 -3.351363281250e+004
-1.595981240273e+000 -3.313635546875e+004
-1.596523880959e+000 -3.270459179688e+004
-1.597020149231e+000 -3.216991601563e+004
-1.597471833229e+000 -3.150397460938e+004
-1.597881674767e+000 -3.072222460938e+004
-1.598254084587e+000 -2.986975390625e+004
-1.598592281342e+000 -2.899912890625e+004
-1.598899245262e+000 -2.815993945313e+004
-1.599176645279e+000 -2.739011914063e+004
-1.599427223206e+000 -2.670445312500e+004
-1.599654078484e+000 -2.609374023438e+004
-1.599859237671e+000 -2.553537304688e+004
-1.600044131279e+000 -2.500307421875e+004
-1.600209474564e+000 -2.447444335938e+004
-1.600356698036e+000 -2.393651171875e+004
-1.600489020348e+000 -2.339018750000e+004
-1.600609183311e+000 -2.284482226563e+004
-1.600720524788e+000 -2.231055078125e+004
-1.600825548172e+000 -2.179458007813e+004
-1.600926756859e+000 -2.129378515625e+004
-1.601025700569e+000 -2.079601953125e+004
-1.601124286652e+000 -2.028481445313e+004
-1.601223468781e+000 -1.974608007813e+004
-1.601324319839e+000 -1.917031835938e+004
-1.601428270340e+000 -1.856382031250e+004
-1.601536750793e+000 -1.794637890625e+004
-1.601652026176e+000 -1.734492187500e+004
-1.601776242256e+000 -1.678896289063e+004
-1.601912140846e+000 -1.630777343750e+004
-1.602062225342e+000 -1.591831738281e+004
-1.602227449417e+000 -1.561689843750e+004
-1.602408409119e+000 -1.538863769531e+004
-1.602605342865e+000 -1.520696093750e+004
-1.602818250656e+000 -1.503839257813e+004
-1.603047609329e+000 -1.484628906250e+004
-1.603293418884e+000 -1.460481933594e+004
-1.603557467461e+000 -1.429836035156e+004
-1.603840351105e+000 -1.392687500000e+004
-1.604143977165e+000 -1.350234960938e+004
-1.604469418526e+000 -1.305238867188e+004
-1.604816794395e+000 -1.260991113281e+004
-1.605187177658e+000 -1.220356933594e+004
-1.605581879616e+000 -1.185648437500e+004
-1.606002092361e+000 -1.158525292969e+004
-1.606449484825e+000 -1.139575585938e+004
-1.606922864914e+000 -1.128095312500e+004
-1.607421040535e+000 -1.123033886719e+004
-1.607943892479e+000 -1.122742187500e+004
-1.608491897583e+000 -1.125202050781e+004
-1.609065175056e+000 -1.127968750000e+004
-1.609662532806e+000 -1.128785449219e+004
-1.610283732414e+000 -1.125896777344e+004
-1.610929369926e+000 -1.118150976563e+004
-1.611599087715e+000 -1.105047070313e+004
-1.612291932106e+000 -1.086997753906e+004
-1.613006949425e+000 -1.065660351563e+004
-1.613743424416e+000 -1.043111132813e+004
-1.614502429962e+000 -1.021808203125e+004
-1.615283846855e+000 -1.004371875000e+004
-1.616090536118e+000 -9.931932617188e+003
-1.616920948029e+000 -9.892741210938e+003
-1.617774605751e+000 -9.926424804688e+003
-1.618653178215e+000 -1.002163476563e+004
-1.619554400444e+000 -1.015636132813e+004
-1.620477080345e+000 -1.029905859375e+004
-1.621420383453e+000 -1.042016503906e+004
-1.622382879257e+000 -1.049965722656e+004
-1.623363256454e+000 -1.053008886719e+004
-1.624362826347e+000 -1.051705859375e+004
-1.625379920006e+000 -1.047875683594e+004
-1.626414299011e+000 -1.044012792969e+004
-1.627464771271e+000 -1.042226171875e+004
-1.628528594971e+000 -1.044037109375e+004
-1.629605650902e+000 -1.050221386719e+004
-1.630695104599e+000 -1.060741601563e+004
-1.631795167923e+000 -1.074462890625e+004
-1.632907271385e+000 -1.090088281250e+004
-1.634030580521e+000 -1.106138281250e+004
-1.635164499283e+000 -1.121265527344e+004
-1.636310219765e+000 -1.134424609375e+004
-1.637465715408e+000 -1.145323730469e+004
-1.638632297516e+000 -1.154179687500e+004
-1.639809727669e+000 -1.161626171875e+004
-1.640996098518e+000 -1.168565039063e+004
-1.642190217972e+000 -1.176096582031e+004
-1.643388748169e+000 -1.185086718750e+004
-1.644592404366e+000 -1.196134960938e+004
-1.645796656609e+000 -1.209480468750e+004
-1.647001028061e+000 -1.225121484375e+004
-1.648205518723e+000 -1.242803222656e+004
-1.649407744408e+000 -1.261860058594e+004
-1.650606155396e+000 -1.281606933594e+004
-1.651799082756e+000 -1.301289453125e+004
-1.652985453606e+000 -1.320120410156e+004
-1.654163122177e+000 -1.337257128906e+004
-1.655329585075e+000 -1.352190332031e+004
-1.656485438347e+000 -1.364723437500e+004
-1.657629966736e+000 -1.375125488281e+004
-1.658762931824e+000 -1.384197851563e+004
-1.659882187843e+000 -1.393362988281e+004
-1.660988092422e+000 -1.404222949219e+004
-1.662079215050e+000 -1.418079785156e+004
-1.663155078888e+000 -1.435721289063e+004
-1.664216399193e+000 -1.457229101563e+004
-1.665261268616e+000 -1.481777832031e+004
-1.666290283203e+000 -1.507496972656e+004
-1.667302250862e+000 -1.532437207031e+004
-1.668295264244e+000 -1.554808886719e+004
-1.669269442558e+000 -1.573458105469e+004
-1.670221686363e+000 -1.587900585938e+004
-1.671150445938e+000 -1.599172460938e+004
-1.672056317329e+000 -1.608808593750e+004
-1.672937035561e+000 -1.618578808594e+004
-1.673793315887e+000 -1.630207519531e+004
-1.674622774124e+000 -1.645099804688e+004
-1.675425410271e+000 -1.663464062500e+004
-1.676200985909e+000 -1.684931250000e+004
-1.676949024200e+000 -1.708561328125e+004
-1.677667975426e+000 -1.733085742188e+004
-1.678354859352e+000 -1.757075390625e+004
-1.679011464119e+000 -1.779458789063e+004
-1.679636597633e+000 -1.799567773438e+004
-1.680229425430e+000 -1.817183984375e+004
-1.680788636208e+000 -1.832519531250e+004
-1.681310772896e+000 -1.846080664063e+004
-1.681797146797e+000 -1.858846289063e+004
-1.682246565819e+000 -1.871667578125e+004
-1.682659745216e+000 -1.885351562500e+004
-1.683035254478e+000 -1.900453320313e+004
-1.683371186256e+000 -1.917429101563e+004
-1.683668613434e+000 -1.936088867188e+004
-1.683927536011e+000 -1.956086914063e+004
-1.684147834778e+000 -1.976862890625e+004
-1.684328913689e+000 -1.997735351563e+004
-1.684468388557e+000 -2.017976757813e+004
-1.684567809105e+000 -2.036937695313e+004
-1.684626817703e+000 -2.054229687500e+004
-1.684644579887e+000 -2.069645703125e+004
-1.684620738029e+000 -2.083252539063e+004
-1.684552550316e+000 -2.095359570313e+004
-1.684441804886e+000 -2.106753515625e+004
-1.684288740158e+000 -2.118244140625e+004
-1.684092998505e+000 -2.130668359375e+004
-1.683854579926e+000 -2.144644921875e+004
-1.683570384979e+000 -2.160528125000e+004
-1.683242678642e+000 -2.177899804688e+004
-1.682871103287e+000 -2.196061328125e+004
-1.682454943657e+000 -2.214108007813e+004
-1.681993246078e+000 -2.231090625000e+004
-1.681483030319e+000 -2.246152343750e+004
-1.680926203728e+000 -2.259051562500e+004
-1.680323719978e+000 -2.269977539063e+004
-1.679676413536e+000 -2.279482617188e+004
-1.678985476494e+000 -2.288370703125e+004
-1.678248882294e+000 -2.297585546875e+004
-1.677468419075e+000 -2.307882617188e+004
-1.676645517349e+000 -2.319516601563e+004
-1.675778985023e+000 -2.332272070313e+004
-1.674868702888e+000 -2.345523828125e+004
-1.673913359642e+000 -2.358435937500e+004
-1.672914266586e+000 -2.370373046875e+004
-1.671871423721e+000 -2.381039453125e+004
-1.670785307884e+000 -2.390455468750e+004
-1.669655919075e+000 -2.398903515625e+004
-1.668480753899e+000 -2.406766796875e+004
-1.667263984680e+000 -2.414432226563e+004
-1.666003465652e+000 -2.422115625000e+004
-1.664702296257e+000 -2.429853710938e+004
-1.663359165192e+000 -2.437576367188e+004
-1.661974430084e+000 -2.445156835938e+004
-1.660549521446e+000 -2.452526171875e+004
-1.659086108208e+000 -2.459702734375e+004
-1.657583594322e+000 -2.466764257813e+004
-1.656041026115e+000 -2.473806445313e+004
-1.654458522797e+000 -2.480842968750e+004
-1.652836680412e+000 -2.487822070313e+004
-1.651176095009e+000 -2.494579101563e+004
-1.649478197098e+000 -2.500888867188e+004
-1.647742033005e+000 -2.506536523438e+004
-1.645971417427e+000 -2.511325781250e+004
-1.644161701202e+000 -2.515333593750e+004
-1.642320275307e+000 -2.518798437500e+004
-1.640443325043e+000 -2.522135351563e+004
-1.638533711433e+000 -2.525836914063e+004
-1.636590123177e+000 -2.530430078125e+004
-1.634614348412e+000 -2.536200585938e+004
-1.632608652115e+000 -2.542996875000e+004
-1.630572199821e+000 -2.550195898438e+004
-1.628504037857e+000 -2.556895703125e+004
-1.626403927803e+000 -2.562181640625e+004
-1.624272823334e+000 -2.565725000000e+004
-1.622111439705e+000 -2.567879882813e+004
-1.619919300079e+000 -2.569502343750e+004
-1.617698431015e+000 -2.571707031250e+004
-1.615448713303e+000 -2.575578515625e+004
-1.613171458244e+000 -2.581535351563e+004
-1.610866665840e+000 -2.589253710938e+004
-1.608534932137e+000 -2.597933593750e+004
-1.606173992157e+000 -2.606563867188e+004
-1.603788256645e+000 -2.614169921875e+004
-1.601373553276e+000 -2.620335742188e+004
-1.598935842514e+000 -2.625293164063e+004
-1.596472263336e+000 -2.629754101563e+004
-1.593985080719e+000 -2.634640429688e+004
-1.591473102570e+000 -2.640831835938e+004
-1.588937878609e+000 -2.648710351563e+004
-1.586378574371e+000 -2.658106250000e+004
-1.583797454834e+000 -2.668525195313e+004
-1.581196069717e+000 -2.679325195313e+004
-1.578570246696e+000 -2.689940039063e+004
-1.575920820236e+000 -2.700130664063e+004
-1.573246836662e+000 -2.710038281250e+004
-1.570549368858e+000 -2.720017578125e+004
-1.567829132080e+000 -2.730475000000e+004
-1.565080046654e+000 -2.741744140625e+004
-1.562309741974e+000 -2.753882226563e+004
-1.559517145157e+000 -2.766689062500e+004
-1.556698083878e+000 -2.779863476563e+004
-1.553855776787e+000 -2.793128515625e+004
-1.550986647606e+000 -2.806372070313e+004
-1.548093795776e+000 -2.819766796875e+004
-1.545177578926e+000 -2.833615039063e+004
-1.542231559753e+000 -2.848163281250e+004
-1.539262771606e+000 -2.863558593750e+004
-1.536264181137e+000 -2.879877539063e+004
-1.533242344856e+000 -2.897049023438e+004
-1.530191540718e+000 -2.914918750000e+004
-1.527115106583e+000 -2.933307812500e+004
-1.524011254311e+000 -2.951994335938e+004
-1.520877838135e+000 -2.970662500000e+004
-1.517713785172e+000 -2.988895507813e+004
-1.514519333839e+000 -3.006432226563e+004
-1.511292934418e+000 -3.023291406250e+004
-1.508035659790e+000 -3.039805859375e+004
-1.504747152328e+000 -3.056568359375e+004
-1.501422405243e+000 -3.074206250000e+004
-1.498061418533e+000 -3.093016601563e+004
-1.494666337967e+000 -3.112927929688e+004
-1.491233110428e+000 -3.133498242188e+004
-1.487761139870e+000 -3.154016406250e+004
-1.484248876572e+000 -3.173724023438e+004
-1.480696320534e+000 -3.192184960938e+004
-1.477101922035e+000 -3.209312890625e+004
-1.473468422890e+000 -3.225358593750e+004
-1.469786286354e+000 -3.240779101563e+004
-1.466060876846e+000 -3.256085937500e+004
-1.462287545204e+000 -3.271564257813e+004
-1.458468317986e+000 -3.287210156250e+004
-1.454597830772e+000 -3.302778906250e+004
-1.450684905052e+000 -3.317856640625e+004
-1.446716904640e+000 -3.332013671875e+004
-1.442696571350e+000 -3.345021875000e+004
-1.438627004623e+000 -3.356813281250e+004
-1.434508681297e+000 -3.367469140625e+004
-1.430328965187e+000 -3.377133593750e+004
-1.426096320152e+000 -3.385980468750e+004
-1.421804189682e+000 -3.394133984375e+004
-1.417452573776e+000 -3.401594921875e+004
-1.413046836853e+000 -3.408285156250e+004
-1.408577799797e+000 -3.414013281250e+004
-1.404044985771e+000 -3.418458203125e+004
-1.399448990822e+000 -3.421312500000e+004
-1.394792795181e+000 -3.422328125000e+004
-1.390069365501e+000 -3.421448437500e+004
-1.385284543037e+000 -3.418803906250e+004
-1.380429506302e+000 -3.414730859375e+004
-1.375506639481e+000 -3.409599609375e+004
-1.370517849922e+000 -3.403545703125e+004
-1.365464091301e+000 -3.396476562500e+004
-1.360338926315e+000 -3.388064453125e+004
-1.355142951012e+000 -3.377887109375e+004
-1.349877715111e+000 -3.365746484375e+004
-1.344542741776e+000 -3.351626953125e+004
-1.339136958122e+000 -3.335759765625e+004
-1.333655595779e+000 -3.318523828125e+004
-1.328102946281e+000 -3.300343359375e+004
-1.322476625443e+000 -3.281457812500e+004
-1.316779971123e+000 -3.261766210938e+004
-1.311008930206e+000 -3.240915039063e+004
-1.305164217949e+000 -3.218384570313e+004
-1.299245476723e+000 -3.193716015625e+004
-1.293250203133e+000 -3.166869726563e+004
-1.287181258202e+000 -3.138026757813e+004
-1.281040430069e+000 -3.107585351563e+004
-1.274825453758e+000 -3.075985937500e+004
-1.268537521362e+000 -3.043563281250e+004
-1.262173891068e+000 -3.010437695313e+004
-1.255737066269e+000 -2.976448632813e+004
-1.249234080315e+000 -2.941285742188e+004
-1.242656350136e+000 -2.904584960938e+004
-1.236004590988e+000 -2.866074804688e+004
-1.229277253151e+000 -2.825839648438e+004
-1.222487807274e+000 -2.784087304688e+004
-1.215632796288e+000 -2.741146289063e+004
-1.208699226379e+000 -2.697372265625e+004
-1.201697230339e+000 -2.653064257813e+004
-1.194629430771e+000 -2.608387500000e+004
-1.187489867210e+000 -2.563320312500e+004
-1.180289030075e+000 -2.517710742188e+004
-1.173025012016e+000 -2.471319921875e+004
-1.165686964989e+000 -2.423885156250e+004
-1.158289194107e+000 -2.375297851563e+004
-1.150821685791e+000 -2.325519531250e+004
-1.143306732178e+000 -2.274636132813e+004
-1.135720729828e+000 -2.222821093750e+004
-1.128074645996e+000 -2.170256835938e+004
-1.120379209518e+000 -2.117070898438e+004
-1.112624049187e+000 -2.063295312500e+004
-1.104821443558e+000 -2.009074804688e+004
-1.096961617470e+000 -1.954683593750e+004
-1.089056849480e+000 -1.900434179688e+004
-1.081101298332e+000 -1.846512695313e+004
-1.073095798492e+000 -1.792951171875e+004
-1.065047264099e+000 -1.739658593750e+004
-1.056949019432e+000 -1.686460937500e+004
-1.048814296722e+000 -1.633141601563e+004
-1.040629148483e+000 -1.579565820313e+004
-1.032410264015e+000 -1.525702636719e+004
-1.024157047272e+000 -1.471628125000e+004
-1.015868544579e+000 -1.417557812500e+004
-1.007545828819e+000 -1.363848828125e+004
-9.991894960403e-001 -1.310825878906e+004
-9.908103942871e-001 -1.258753222656e+004
-9.823933243752e-001 -1.207767382813e+004
-9.739596843719e-001 -1.157816894531e+004
-9.654962420464e-001 -1.108592480469e+004
-9.570124745369e-001 -1.059486621094e+004
-9.485043287277e-001 -1.009890136719e+004
-9.399747848511e-001 -9.592751953125e+003
-9.314353466034e-001 -9.072870117188e+003
-9.228767156601e-001 -8.537912109375e+003
-9.143018722534e-001 -7.990623535156e+003
-9.057167172432e-001 -7.434423828125e+003
-8.971236944199e-001 -6.874176269531e+003
-8.885225653648e-001 -6.316557617188e+003
-8.799177408218e-001 -5.770079589844e+003
-8.713131546974e-001 -5.242421875000e+003
-8.627089858055e-001 -4.740614257813e+003
-8.541120886803e-001 -4.269050781250e+003
-8.455148339272e-001 -3.826590087891e+003
-8.369324207306e-001 -3.418516601563e+003
-8.283636569977e-001 -3.038576171875e+003
-8.198006749153e-001 -2.682244140625e+003
-8.112535476685e-001 -2.351431396484e+003
-8.027208447456e-001 -2.048566162109e+003
-7.941988110542e-001 -1.778133178711e+003
-7.857031822205e-001 -1.547141601563e+003
-7.772206664085e-001 -1.354700195313e+003
-7.687571048737e-001 -1.203657836914e+003
-7.603140473366e-001 -1.092590332031e+003
-7.518892288208e-001 -1.017934326172e+003
-7.434934377670e-001 -9.708770751953e+002
-7.351119518280e-001 -9.429254760742e+002
-7.267609238625e-001 -9.272971191406e+002
-7.184301614761e-001 -9.179896240234e+002
-7.101228237152e-001 -9.100745849609e+002
-7.018370032310e-001 -9.000387573242e+002
-6.935727596283e-001 -8.859420166016e+002
-6.853476166725e-001 -8.671868286133e+002
-6.771394014359e-001 -8.434620971680e+002
-6.689581871033e-001 -8.149664916992e+002
-6.608037352562e-001 -7.826365966797e+002
-6.526741981506e-001 -7.472891845703e+002
-6.445779204369e-001 -7.096878662109e+002
-6.365071535110e-001 -6.704384765625e+002
-6.284710168839e-001 -6.299563598633e+002
-6.204597353935e-001 -5.886621093750e+002
-6.124799847603e-001 -5.467907714844e+002
-6.045328378677e-001 -5.045388793945e+002
-5.966110229492e-001 -4.621161804199e+002
-5.887285470963e-001 -4.197471618652e+002
-5.808803439140e-001 -3.776729431152e+002
-5.730640292168e-001 -3.360891723633e+002
-5.652841925621e-001 -2.951741943359e+002
-5.575319528580e-001 -2.550480346680e+002
-5.498270988464e-001 -2.156713714600e+002
-5.421480536461e-001 -1.768241882324e+002
-5.345093011856e-001 -1.382884063721e+002
-5.269052982330e-001 -9.980824279785e+001
-5.193313956261e-001 -6.114486312866e+001
-5.117993950844e-001 -2.212745475769e+001
-5.043054819107e-001  1.719325447083e+001
-4.968507885933e-001  5.659836578369e+001
-4.894239604473e-001  9.569055938721e+001
-4.820397198200e-001  1.338047790527e+002
-4.746943712234e-001  1.697162475586e+002
-4.673793911934e-001  2.019455871582e+002
-4.601020812988e-001  2.285816802979e+002
-4.528583288193e-001  2.473716125488e+002
-4.456488788128e-001  2.559157104492e+002
-4.384797513485e-001  2.511743774414e+002
-4.313400685787e-001  2.321995239258e+002
-4.242358803749e-001  1.992423400879e+002
-4.171636104584e-001  1.548679656982e+002
-4.101213216782e-001  1.050579223633e+002
-4.031127393246e-001  6.139053344727e+001
-3.961386680603e-001  4.122144699097e+001
-3.891880810261e-001  6.667881774902e+001
-3.822677433491e-001  1.647166137695e+002
-3.753797709942e-001  3.652377929688e+002
-3.685152828693e-001  7.061014404297e+002
-3.616871535778e-001  1.205947998047e+003
-3.548871576786e-001  1.869677978516e+003
-3.481153249741e-001  2.679266601563e+003
-3.413785099983e-001  3.584575927734e+003
-3.346802592278e-001  4.496463378906e+003
-3.280205130577e-001  5.299138671875e+003
-3.213990628719e-001  5.889890625000e+003
-3.148239254951e-001  6.196745117188e+003
-3.082864284515e-001  6.197212402344e+003
-3.017964363098e-001  5.917332519531e+003
-2.953509986401e-001  5.462075195313e+003
-2.889373302460e-001  4.947252441406e+003
-2.825680375099e-001  4.480688476563e+003
-2.762288451195e-001  4.146903808594e+003
-2.699222862720e-001  4.004239257813e+003
-2.636464834213e-001  4.050618408203e+003
-2.573970556259e-001  4.247397460938e+003
-2.511819899082e-001  4.533233886719e+003
-2.449878156185e-001  4.835303222656e+003
-2.388216257095e-001  5.079551757813e+003
-2.326894104481e-001  5.217456054688e+003
-2.265825271606e-001  5.237796875000e+003
-2.204984873533e-001  5.161841308594e+003
-2.144447118044e-001  5.038213378906e+003
-2.084128260612e-001  4.935162597656e+003
-2.024049013853e-001  4.920683105469e+003
-1.964198797941e-001  5.039806640625e+003
-1.904587596655e-001  5.311242187500e+003
-1.845195293427e-001  5.721858398438e+003
-1.786098778248e-001  6.226791503906e+003
-1.727201938629e-001  6.743065429688e+003
-1.668605953455e-001  7.181467773438e+003
-1.610315740108e-001  7.459186523438e+003
-1.552290469408e-001  7.513487792969e+003
-1.494548469782e-001  7.304011718750e+003
-1.437053829432e-001  6.852733886719e+003
-1.379845738411e-001  6.220040039063e+003
-1.322882473469e-001  5.486055175781e+003
-1.266056597233e-001  4.740337402344e+003
-1.209388002753e-001  4.072834472656e+003
-1.152831539512e-001  3.550949462891e+003
-1.096397265792e-001  3.208464355469e+003
-1.039999946952e-001  3.050998046875e+003
-9.837345778942e-002  3.061763671875e+003
-9.275165945292e-002  3.204230224609e+003
-8.713456243277e-002  3.416074707031e+003
-8.152978867292e-002  3.631833740234e+003
-7.593467086554e-002  3.799656494141e+003
-7.034516334534e-002  3.880388916016e+003
-6.476610898972e-002  3.849737792969e+003
-5.919479206204e-002  3.715800048828e+003
-5.363524705172e-002  3.506029785156e+003
-4.808499664068e-002  3.256163085938e+003
-4.253943264484e-002  3.002271728516e+003
-3.700418397784e-002  2.780521484375e+003
-3.148164227605e-002  2.604843994141e+003
-2.595804817975e-002  2.476845703125e+003
-2.044555358589e-002  2.385193603516e+003
-1.493430975825e-002  2.309687988281e+003
-9.434595704079e-003  2.224996826172e+003
-3.938381094486e-003  2.108178222656e+003
 1.554429647513e-003  1.947393188477e+003
 7.038619369268e-003  1.741430297852e+003
 1.252009347081e-002  1.499135375977e+003
 1.799729838967e-002  1.236342163086e+003
 2.346969768405e-002  9.737587890625e+002
 2.893961779773e-002  7.290592041016e+002
 3.441060706973e-002  5.152769165039e+002
 3.987220302224e-002  3.399008789063e+002
 4.533565044403e-002  2.058370361328e+002
 5.079910159111e-002  1.086080017090e+002
 5.625574663281e-002  4.055834960938e+001
 6.170994788408e-002 -5.724592685699e+000
 6.716206669807e-002 -3.743485260010e+001
 7.261014729738e-002 -6.078804779053e+001
 7.805198431015e-002 -8.120370483398e+001
 8.349154889584e-002 -1.022312469482e+002
 8.892752975225e-002 -1.258863906860e+002
 9.435648471117e-002 -1.530600280762e+002
 9.978030622005e-002 -1.838641357422e+002
 1.051976233721e-001 -2.175737609863e+002
 1.106108203530e-001 -2.531165313721e+002
 1.160147264600e-001 -2.894575500488e+002
 1.214187219739e-001 -3.256721801758e+002
 1.268077194691e-001 -3.610288696289e+002
 1.321928352118e-001 -3.951795654297e+002
 1.375678628683e-001 -4.281621093750e+002
 1.429331749678e-001 -4.602256164551e+002
 1.482910811901e-001 -4.917952880859e+002
 1.536400765181e-001 -5.233508911133e+002
 1.589787304401e-001 -5.553189086914e+002
 1.643086224794e-001 -5.879295654297e+002
 1.696266978979e-001 -6.212855834961e+002
 1.749311089516e-001 -6.553900146484e+002
 1.802259683609e-001 -6.901784057617e+002
 1.855085194111e-001 -7.255179443359e+002
 1.907767057419e-001 -7.612142333984e+002
 1.960385888815e-001 -7.969892578125e+002
 2.012821286917e-001 -8.324009399414e+002
 2.065181881189e-001 -8.667468261719e+002
 2.117379456758e-001 -8.989710083008e+002
 2.169442623854e-001 -9.278619995117e+002
 2.221366316080e-001 -9.520358886719e+002
 2.273156791925e-001 -9.702091674805e+002
 2.324784696102e-001 -9.811585693359e+002
 2.376302927732e-001 -9.839578247070e+002
 2.427648007870e-001 -9.781618652344e+002
 2.478840202093e-001 -9.631199340820e+002
 2.529869079590e-001 -9.382863159180e+002
 2.580722868443e-001 -9.031118774414e+002
 2.631475627422e-001 -8.576656494141e+002
 2.681989669800e-001 -8.032037963867e+002
 2.732362449169e-001 -7.414975585938e+002
 2.782539129257e-001 -6.753720703125e+002
 2.832536995411e-001 -6.089317016602e+002
 2.882339358330e-001 -5.479617309570e+002
 2.931921780109e-001 -4.984627380371e+002
 2.981354892254e-001 -4.662545166016e+002
 3.030552864075e-001 -4.561103515625e+002
 3.079541027546e-001 -4.716306152344e+002
 3.128375709057e-001 -5.137007446289e+002
 3.176958858967e-001 -5.789697875977e+002
 3.225390911102e-001 -6.628638305664e+002
 3.273593783379e-001 -7.591983032227e+002
 3.321622610092e-001 -8.609508666992e+002
 3.369458615780e-001 -9.606303710938e+002
 3.417140245438e-001 -1.052280761719e+003
 3.464591801167e-001 -1.131492553711e+003
 3.511895239353e-001 -1.195218627930e+003
 3.559029102325e-001 -1.241473388672e+003
 3.605968356133e-001 -1.269799560547e+003
 3.652779161930e-001 -1.282197021484e+003
 3.699391186237e-001 -1.280925659180e+003
 3.745872080326e-001 -1.269085815430e+003
 3.792180716991e-001 -1.250352050781e+003
 3.838288784027e-001 -1.229313232422e+003
 3.884297907352e-001 -1.210223876953e+003
 3.930137455463e-001 -1.197131347656e+003
 3.975799083710e-001 -1.192955200195e+003
 4.021332859993e-001 -1.199864868164e+003
 4.066688418388e-001 -1.218703002930e+003
 4.111926853657e-001 -1.247930664063e+003
 4.157027006149e-001 -1.285169677734e+003
 4.202013015747e-001 -1.327087768555e+003
 4.246825873852e-001 -1.369829101563e+003
 4.291528165340e-001 -1.409381469727e+003
 4.336127340794e-001 -1.442978881836e+003
 4.380611777306e-001 -1.469141723633e+003
 4.424993097782e-001 -1.487656738281e+003
 4.469277262688e-001 -1.499136108398e+003
 4.513466656208e-001 -1.504809936523e+003
 4.557569921017e-001 -1.506381958008e+003
 4.601597189903e-001 -1.505157714844e+003
 4.645549058914e-001 -1.502253906250e+003
 4.689435660839e-001 -1.498532836914e+003
 4.733235239983e-001 -1.494606933594e+003
 4.777001440525e-001 -1.490803100586e+003
 4.820738136768e-001 -1.487227172852e+003
 4.864444732666e-001 -1.483846313477e+003
 4.908122122288e-001 -1.480565063477e+003
 4.951770007610e-001 -1.477305664063e+003
 4.995444715023e-001 -1.474068359375e+003
 5.039126873016e-001 -1.470902343750e+003
 5.082805156708e-001 -1.467882934570e+003
 5.126528143883e-001 -1.465065429688e+003
 5.170204639435e-001 -1.462448608398e+003
 5.213944911957e-001 -1.459955444336e+003
 5.257729291916e-001 -1.457480834961e+003
 5.301478505135e-001 -1.454878662109e+003
 5.345321893692e-001 -1.451955200195e+003
 5.389175415039e-001 -1.448499023438e+003
 5.433121323586e-001 -1.444397460938e+003
 5.477155447006e-001 -1.439578979492e+003
 5.521252751350e-001 -1.434034667969e+003
 5.565470457077e-001 -1.427801391602e+003
 5.609813928604e-001 -1.420940307617e+003
 5.654246807098e-001 -1.413544677734e+003
 5.698809027672e-001 -1.405642456055e+003
 5.743516087532e-001 -1.397249145508e+003
 5.788378119469e-001 -1.388379638672e+003
 5.833412408829e-001 -1.379082519531e+003
 5.878614783287e-001 -1.369483276367e+003
 5.923975706100e-001 -1.359700317383e+003
 5.969507694244e-001 -1.349854736328e+003
 6.015282273293e-001 -1.340062866211e+003
 6.061248779297e-001 -1.330429687500e+003
 6.107413172722e-001 -1.320990844727e+003
 6.153811812401e-001 -1.311751464844e+003
 6.200458407402e-001 -1.302706054688e+003
 6.247334480286e-001 -1.293836303711e+003
 6.294451951981e-001 -1.285142822266e+003
 6.341849565506e-001 -1.276635986328e+003
 6.389514207840e-001 -1.268347045898e+003
 6.437479257584e-001 -1.260314575195e+003
 6.485716700554e-001 -1.252578002930e+003
 6.534268856049e-001 -1.245169921875e+003
 6.583132743835e-001 -1.238061889648e+003
 6.632301807404e-001 -1.231229125977e+003
 6.681787967682e-001 -1.224637695313e+003
 6.731652021408e-001 -1.218239013672e+003
 6.781817078590e-001 -1.211957031250e+003
 6.832374930382e-001 -1.205680053711e+003
 6.883285641670e-001 -1.199325073242e+003
 6.934561133385e-001 -1.192887207031e+003
 6.986190676689e-001 -1.186471679688e+003
 7.038280963898e-001 -1.180304687500e+003
 7.090718746185e-001 -1.174646728516e+003
 7.143586874008e-001 -1.169827636719e+003
 7.196844220161e-001 -1.166126464844e+003
 7.250545620918e-001 -1.163680297852e+003
 7.304712533951e-001 -1.162503173828e+003
 7.359288334846e-001 -1.162258178711e+003
 7.414344549179e-001 -1.162605712891e+003
 7.469825148582e-001 -1.163225708008e+003
 7.525781393051e-001 -1.163928100586e+003
 7.582251429558e-001 -1.164666015625e+003
 7.639136314392e-001 -1.165491455078e+003
 7.696454524994e-001 -1.166541992188e+003
 7.754219174385e-001 -1.168029785156e+003
 7.812367677689e-001 -1.170253295898e+003
 7.870990037918e-001 -1.173609497070e+003
 7.929936647415e-001 -1.178273559570e+003
 7.989315986633e-001 -1.184343872070e+003
 8.049112558365e-001 -1.191634887695e+003
 8.109309077263e-001 -1.199801025391e+003
 8.170104026794e-001 -1.208516235352e+003
 8.231534957886e-001 -1.217241821289e+003
 8.293846845627e-001 -1.225811889648e+003
 8.357136845589e-001 -1.234089477539e+003
 8.421629071236e-001 -1.242146484375e+003
 8.487649559975e-001 -1.250045654297e+003
 8.555330634117e-001 -1.258027343750e+003
 8.624561429024e-001 -1.266098876953e+003
 8.695214986801e-001 -1.274518188477e+003
 8.766930103302e-001 -1.283604003906e+003
 8.838742375374e-001 -1.293854003906e+003
 8.909386396408e-001 -1.305319335938e+003
 8.977196216583e-001 -1.317672363281e+003
 9.040004014969e-001 -1.330215576172e+003
 9.095440506935e-001 -1.342058715820e+003
 9.140484333038e-001 -1.352151123047e+003
 9.173665046692e-001 -1.359868408203e+003
 9.194325208664e-001 -1.364846801758e+003
 9.203633666039e-001 -1.367164306641e+003
 9.205451607704e-001 -1.367626342773e+003
endcurve
