Curveplot
LS-DYNA keyword deck by LS-PrePost
Yrot-displ
phi moment-stiffness
Joint Stiff
300001 #pts=1000
* Minval= -2.075922460938e+004 at time=      -1.526359915733
* Maxval=  5.276953125000e+004 at time=       1.797680377960
-2.319394631911e-008 -1.290964037180e-001
-1.662199089481e-008 -1.636674851179e-001
-3.027459616334e-009 -1.882625371218e-001
 1.923522319203e-008 -1.925767213106e-001
 5.124597279860e-008 -1.635123938322e-001
 9.308612192171e-008 -8.551771938801e-002
 1.433104159787e-007  6.170025467873e-002
 1.967837590655e-007  2.889231443405e-001
 2.458187964294e-007  6.014598011971e-001
 2.792432951537e-007  9.837749600410e-001
 2.827326568422e-007  1.395593762398e+000
 2.357481179160e-007  1.772601604462e+000
 1.224778856113e-007  2.047660589218e+000
-7.267985324688e-008  2.160794973373e+000
-3.630262312981e-007  2.062861204147e+000
-7.580568990306e-007  1.718624234200e+000
-1.269955077987e-006  1.089131474495e+000
-1.893422222565e-006  1.810781657696e-001
-2.623270347613e-006 -9.969033002853e-001
-3.451681322986e-006 -2.431827306747e+000
-4.367945621198e-006 -4.112851142883e+000
-5.362173396861e-006 -6.057254791260e+000
-6.413412847905e-006 -8.273998260498e+000
-7.503103006457e-006 -1.079455566406e+001
-8.608873031335e-006 -1.365212345123e+001
-9.707001481729e-006 -1.688297653198e+001
-1.076244461728e-005 -2.053403091431e+001
-1.174122644443e-005 -2.462285423279e+001
-1.260251974600e-005 -2.918714523315e+001
-1.330074610451e-005 -3.429307937622e+001
-1.378363776894e-005 -4.003271102905e+001
-1.397134110448e-005 -4.657088851929e+001
-1.380017147312e-005 -5.403276062012e+001
-1.318944487139e-005 -6.259006881714e+001
-1.204124691867e-005 -7.245867156982e+001
-1.024487301038e-005 -8.383193206787e+001
-7.611813998665e-006 -9.703297424316e+001
-4.012618774141e-006 -1.121080017090e+002
 7.268350259437e-007 -1.290892639160e+002
 6.800472874602e-006 -1.478664855957e+002
 1.442543270969e-005 -1.681759490967e+002
 2.391757516307e-005 -1.894949951172e+002
 3.547122105374e-005 -2.109308624268e+002
 4.929156784783e-005 -2.312814941406e+002
 6.562342605321e-005 -2.490841522217e+002
 8.471422916045e-005 -2.626160888672e+002
 1.069170539267e-004 -2.695665893555e+002
 1.323478354607e-004 -2.682631530762e+002
 1.611677580513e-004 -2.574872131348e+002
 1.935193868121e-004 -2.368964691162e+002
 2.295558369951e-004 -2.076721343994e+002
 2.695185248740e-004 -1.734222717285e+002
 3.134584694635e-004 -1.418070068359e+002
 3.614328743424e-004 -1.239536895752e+002
 4.135239578318e-004 -1.349380950928e+002
 4.700770368800e-004 -1.935743713379e+002
 5.317318136804e-004 -3.260037231445e+002
 5.990843637846e-004 -5.537709350586e+002
 6.730448221788e-004 -8.934265136719e+002
 7.550619775429e-004 -1.354049316406e+003
 8.468870655634e-004 -1.928560058594e+003
 9.514571283944e-004 -2.587682128906e+003
 1.071101520211e-003 -3.259337646484e+003
 1.208149478771e-003 -3.854779052734e+003
 1.364991185255e-003 -4.285241210938e+003
 1.543425954878e-003 -4.485213867188e+003
 1.745563582517e-003 -4.423993652344e+003
 1.970741664991e-003 -4.152321289063e+003
 2.218199661002e-003 -3.761203613281e+003
 2.486521843821e-003 -3.359163330078e+003
 2.774595515803e-003 -3.052678222656e+003
 3.082236973569e-003 -2.940132080078e+003
 3.407850628719e-003 -3.071557861328e+003
 3.752227406949e-003 -3.451409423828e+003
 4.115911666304e-003 -4.047038330078e+003
 4.500739276409e-003 -4.792704589844e+003
 4.910836927593e-003 -5.597428222656e+003
 5.348610226065e-003 -6.355561035156e+003
 5.816077813506e-003 -6.987869628906e+003
 6.315471138805e-003 -7.452666015625e+003
 6.849176716059e-003 -7.752412597656e+003
 7.420438341796e-003 -7.931801757813e+003
 8.028604090214e-003 -8.081034667969e+003
 8.674833923578e-003 -8.292048828125e+003
 9.360235184431e-003 -8.638027343750e+003
 1.008549705148e-002 -9.157404296875e+003
 1.085578091443e-002 -9.850651367188e+003
 1.167241483927e-002 -1.065683398438e+004
 1.253831386566e-002 -1.148649707031e+004
 1.345687452704e-002 -1.224512792969e+004
 1.443025097251e-002 -1.284468652344e+004
 1.546326745301e-002 -1.321641308594e+004
 1.655709929764e-002 -1.334630859375e+004
 1.771035790443e-002 -1.327089062500e+004
 1.892356947064e-002 -1.306040429688e+004
 2.019519917667e-002 -1.281162109375e+004
 2.152622677386e-002 -1.263505761719e+004
 2.291618473828e-002 -1.262411230469e+004
 2.436377108097e-002 -1.282438281250e+004
 2.586771175265e-002 -1.323778515625e+004
 2.743307314813e-002 -1.382525488281e+004
 2.906052023172e-002 -1.451384375000e+004
 3.075604140759e-002 -1.520868457031e+004
 3.251889720559e-002 -1.582930273438e+004
 3.435321897268e-002 -1.632379101563e+004
 3.625923022628e-002 -1.667291015625e+004
 3.824147582054e-002 -1.689107031250e+004
 4.030203446746e-002 -1.703222656250e+004
 4.243991151452e-002 -1.716116796875e+004
 4.465365409851e-002 -1.733245703125e+004
 4.694679751992e-002 -1.757944335938e+004
 4.931994900107e-002 -1.790671093750e+004
 5.177835747600e-002 -1.828061523438e+004
 5.431856215000e-002 -1.864500585938e+004
 5.694466829300e-002 -1.894189453125e+004
 5.965443328023e-002 -1.912158593750e+004
 6.245312839746e-002 -1.915363671875e+004
 6.533963978291e-002 -1.904956835938e+004
 6.831410527229e-002 -1.885951757813e+004
 7.137208431959e-002 -1.865132031250e+004
 7.451491057873e-002 -1.849781835938e+004
 7.774695008993e-002 -1.846445703125e+004
 8.106183260679e-002 -1.858364453125e+004
 8.446581661701e-002 -1.884186132813e+004
 8.795283734798e-002 -1.919721484375e+004
 9.153092652559e-002 -1.958836718750e+004
 9.519677609205e-002 -1.994465429688e+004
 9.896077215672e-002 -2.020631054688e+004
 1.028164327145e-001 -2.034620507813e+004
 1.067656576633e-001 -2.036487109375e+004
 1.108103245497e-001 -2.028815625000e+004
 1.149491593242e-001 -2.015866601563e+004
 1.191886588931e-001 -2.002622656250e+004
 1.235182657838e-001 -1.992603906250e+004
 1.279441565275e-001 -1.987161523438e+004
 1.324624568224e-001 -1.985518359375e+004
 1.370762586594e-001 -1.985057031250e+004
 1.417887061834e-001 -1.981951562500e+004
 1.465922147036e-001 -1.973085156250e+004
 1.514908224344e-001 -1.956708984375e+004
 1.564814448357e-001 -1.932875781250e+004
 1.615707278252e-001 -1.903444921875e+004
 1.667529195547e-001 -1.872153906250e+004
 1.720228642225e-001 -1.843107812500e+004
 1.773836314678e-001 -1.819688085938e+004
 1.828326582909e-001 -1.804089843750e+004
 1.883717924356e-001 -1.796993359375e+004
 1.940049529076e-001 -1.796826953125e+004
 1.997258514166e-001 -1.800023437500e+004
 2.055358588696e-001 -1.802458789063e+004
 2.114348560572e-001 -1.799936914063e+004
 2.174248695374e-001 -1.788788671875e+004
 2.235130816698e-001 -1.766959765625e+004
 2.296818494797e-001 -1.735240429688e+004
 2.359437346458e-001 -1.695720117188e+004
 2.422888725996e-001 -1.651744921875e+004
 2.487230896950e-001 -1.607122753906e+004
 2.552469074726e-001 -1.565539941406e+004
 2.618473768234e-001 -1.529131933594e+004
 2.685352265835e-001 -1.498306738281e+004
 2.752983868122e-001 -1.472083398438e+004
 2.821370661259e-001 -1.448125976563e+004
 2.890649437904e-001 -1.423167968750e+004
 2.960649728775e-001 -1.394519140625e+004
 3.031372427940e-001 -1.360552832031e+004
 3.102903366089e-001 -1.321024316406e+004
 3.175169825554e-001 -1.277161035156e+004
 3.248164653778e-001 -1.231715039063e+004
 3.321860730648e-001 -1.187879199219e+004
 3.396197259426e-001 -1.148350878906e+004
 3.471229970455e-001 -1.114798144531e+004
 3.546938002110e-001 -1.087753515625e+004
 3.623345792294e-001 -1.065978027344e+004
 3.700383603573e-001 -1.046538085938e+004
 3.778027296066e-001 -1.026144140625e+004
 3.856311440468e-001 -1.001504785156e+004
 3.935280442238e-001 -9.698484375000e+003
 4.014803767204e-001 -9.296439453125e+003
 4.094949662685e-001 -8.815428710938e+003
 4.175660908222e-001 -8.272480468750e+003
 4.256871938705e-001 -7.695053710938e+003
 4.338648021221e-001 -7.112887695313e+003
 4.420982003212e-001 -6.557254394531e+003
 4.503756463528e-001 -6.048984375000e+003
 4.587016701698e-001 -5.597712402344e+003
 4.670657217503e-001 -5.206219726563e+003
 4.754789471626e-001 -4.869267578125e+003
 4.839337468147e-001 -4.577477050781e+003
 4.924277663231e-001 -4.316520507813e+003
 5.009577274323e-001 -4.075025634766e+003
 5.095251798630e-001 -3.844187988281e+003
 5.181384086609e-001 -3.618705810547e+003
 5.267814993858e-001 -3.398518066406e+003
 5.354637503624e-001 -3.186847167969e+003
 5.441778302193e-001 -2.989772705078e+003
 5.529265999794e-001 -2.814107177734e+003
 5.617052316666e-001 -2.666294921875e+003
 5.705189108849e-001 -2.551025878906e+003
 5.793617367744e-001 -2.465877685547e+003
 5.882357954979e-001 -2.406969238281e+003
 5.971426367760e-001 -2.369029052734e+003
 6.060771942139e-001 -2.346546630859e+003
 6.150460243225e-001 -2.334328369141e+003
 6.240398883820e-001 -2.327376708984e+003
 6.330585479736e-001 -2.322395751953e+003
 6.421085596085e-001 -2.316989746094e+003
 6.511859893799e-001 -2.309496337891e+003
 6.602991223335e-001 -2.298739013672e+003
 6.694329977036e-001 -2.284437744141e+003
 6.785876154900e-001 -2.266545410156e+003
 6.877831220627e-001 -2.245152099609e+003
 6.969922184944e-001 -2.220565185547e+003
 7.062354087830e-001 -2.192908203125e+003
 7.155020236969e-001 -2.162642578125e+003
 7.248011231422e-001 -2.129968750000e+003
 7.341193556786e-001 -2.095193847656e+003
 7.434590458870e-001 -2.058621826172e+003
 7.528320550919e-001 -2.020681396484e+003
 7.622297406197e-001 -1.982333496094e+003
 7.716452479362e-001 -1.944729003906e+003
 7.810868620872e-001 -1.909412353516e+003
 7.905610799789e-001 -1.878391479492e+003
 8.000526428223e-001 -1.854845825195e+003
 8.095645308495e-001 -1.841543457031e+003
 8.191061615944e-001 -1.841804199219e+003
 8.286626338959e-001 -1.858884277344e+003
 8.382568955421e-001 -1.895649902344e+003
 8.478701710701e-001 -1.954542236328e+003
 8.575059771538e-001 -2.032785400391e+003
 8.671721816063e-001 -2.124905761719e+003
 8.768569827080e-001 -2.219941162109e+003
 8.865716457367e-001 -2.300553222656e+003
 8.963050246239e-001 -2.337121093750e+003
 9.060586094856e-001 -2.296518554688e+003
 9.158256053925e-001 -2.139171630859e+003
 9.256135821342e-001 -1.822980468750e+003
 9.354051947594e-001 -1.309611572266e+003
 9.452073574066e-001 -5.585882568359e+002
 9.550225734711e-001  4.146621704102e+002
 9.648340940475e-001  1.564572021484e+003
 9.746541380882e-001  2.799797607422e+003
 9.844672083855e-001  3.984786376953e+003
 9.942889213562e-001  4.947183593750e+003
 1.004098057747e+000  5.572788574219e+003
 1.013912200928e+000  5.816074707031e+003
 1.023715615273e+000  5.712609375000e+003
 1.033523321152e+000  5.375091308594e+003
 1.043319582939e+000  4.979038574219e+003
 1.053102374077e+000  4.716266601563e+003
 1.062873363495e+000  4.729367675781e+003
 1.072639703751e+000  5.104488281250e+003
 1.082372069359e+000  5.855616699219e+003
 1.092084169388e+000  6.940265625000e+003
 1.101763725281e+000  8.216910156250e+003
 1.111400485039e+000  9.543052734375e+003
 1.121001482010e+000  1.078558300781e+004
 1.130553841591e+000  1.184052539063e+004
 1.140045523643e+000  1.264217578125e+004
 1.149492263794e+000  1.321859765625e+004
 1.158887624741e+000  1.363225097656e+004
 1.168228745461e+000  1.396893847656e+004
 1.177521824837e+000  1.431468652344e+004
 1.186765909195e+000  1.474225878906e+004
 1.195956707001e+000  1.527823730469e+004
 1.205107450485e+000  1.591819921875e+004
 1.214201569557e+000  1.663449609375e+004
 1.223259925842e+000  1.739070117188e+004
 1.232261538506e+000  1.814427148438e+004
 1.241221308708e+000  1.886376367188e+004
 1.250131011009e+000  1.953029687500e+004
 1.258999228477e+000  2.013892578125e+004
 1.267814993858e+000  2.069541601563e+004
 1.276588201523e+000  2.121222070313e+004
 1.285319805145e+000  2.171178125000e+004
 1.294002890587e+000  2.221660742188e+004
 1.302645564079e+000  2.275171875000e+004
 1.311242341995e+000  2.334005273438e+004
 1.319801330566e+000  2.400458593750e+004
 1.328310370445e+000  2.474521679688e+004
 1.336772918701e+000  2.554611132813e+004
 1.345191717148e+000  2.637476171875e+004
 1.353549838066e+000  2.718026953125e+004
 1.361859798431e+000  2.790105468750e+004
 1.370107531548e+000  2.848731054688e+004
 1.378295779228e+000  2.891583593750e+004
 1.386425971985e+000  2.919387695313e+004
 1.394498586655e+000  2.936559179688e+004
 1.402504563332e+000  2.950923242188e+004
 1.410456299782e+000  2.972265625000e+004
 1.418348312378e+000  3.008140625000e+004
 1.426184415817e+000  3.062744140625e+004
 1.433958292007e+000  3.135746093750e+004
 1.441673159599e+000  3.223108203125e+004
 1.449323534966e+000  3.316123046875e+004
 1.456906914711e+000  3.405826562500e+004
 1.464424610138e+000  3.484116796875e+004
 1.471871852875e+000  3.545197265625e+004
 1.479245781898e+000  3.586067187500e+004
 1.486550331116e+000  3.609721093750e+004
 1.493780732155e+000  3.621566406250e+004
 1.500939965248e+000  3.628417578125e+004
 1.508029699326e+000  3.637419140625e+004
 1.515046000481e+000  3.655247265625e+004
 1.521985530853e+000  3.685400781250e+004
 1.528864622116e+000  3.728322656250e+004
 1.535671710968e+000  3.782200390625e+004
 1.542403697968e+000  3.843533593750e+004
 1.549066781998e+000  3.907797265625e+004
 1.555653572083e+000  3.969668750000e+004
 1.562165379524e+000  4.024550000000e+004
 1.568600893021e+000  4.069003906250e+004
 1.574961304665e+000  4.101282031250e+004
 1.581238269806e+000  4.121444921875e+004
 1.587435722351e+000  4.132813671875e+004
 1.593560934067e+000  4.139788281250e+004
 1.599605083466e+000  4.146763281250e+004
 1.605575203896e+000  4.157529687500e+004
 1.611469984055e+000  4.175056640625e+004
 1.617287516594e+000  4.200189062500e+004
 1.623032212257e+000  4.232233203125e+004
 1.628704905510e+000  4.269475781250e+004
 1.634299874306e+000  4.309326171875e+004
 1.639818429947e+000  4.348380468750e+004
 1.645255684853e+000  4.382882812500e+004
 1.650618910789e+000  4.410021093750e+004
 1.655901789665e+000  4.428019140625e+004
 1.661110639572e+000  4.436601562500e+004
 1.666236519814e+000  4.436911328125e+004
 1.671286225319e+000  4.432208203125e+004
 1.676263570786e+000  4.426051171875e+004
 1.681167244911e+000  4.421356250000e+004
 1.686000227928e+000  4.419921875000e+004
 1.690761208534e+000  4.422319921875e+004
 1.695455193520e+000  4.427733593750e+004
 1.700082302094e+000  4.434998046875e+004
 1.704645991325e+000  4.443403906250e+004
 1.709143400192e+000  4.453057812500e+004
 1.713577270508e+000  4.465160156250e+004
 1.717943787575e+000  4.481873046875e+004
 1.722242832184e+000  4.506032031250e+004
 1.726462721825e+000  4.540960546875e+004
 1.730603575706e+000  4.589969140625e+004
 1.734640002251e+000  4.655706640625e+004
 1.738564014435e+000  4.736930468750e+004
 1.742359995842e+000  4.827241796875e+004
 1.746017694473e+000  4.915644531250e+004
 1.749521374702e+000  4.987429687500e+004
 1.752862811089e+000  5.027042968750e+004
 1.756046772003e+000  5.026501953125e+004
 1.759087681770e+000  4.990670703125e+004
 1.761995673180e+000  4.934500781250e+004
 1.764787673950e+000  4.879569531250e+004
 1.767468690872e+000  4.847741015625e+004
 1.770048856735e+000  4.850457031250e+004
 1.772535800934e+000  4.883450000000e+004
 1.774933099747e+000  4.933717968750e+004
 1.777237296104e+000  4.985512109375e+004
 1.779441237450e+000  5.027158984375e+004
 1.781542301178e+000  5.057207421875e+004
 1.783536076546e+000  5.082850390625e+004
 1.785420179367e+000  5.112432031250e+004
 1.787184834480e+000  5.149710156250e+004
 1.788823723793e+000  5.190993359375e+004
 1.790328145027e+000  5.225765234375e+004
 1.791697382927e+000  5.245037890625e+004
 1.792929530144e+000  5.245941796875e+004
 1.794023275375e+000  5.233092187500e+004
 1.794972896576e+000  5.216984375000e+004
 1.795778155327e+000  5.209127343750e+004
 1.796444296837e+000  5.214477343750e+004
 1.796970725060e+000  5.231076953125e+004
 1.797355651855e+000  5.252072265625e+004
 1.797593235970e+000  5.269239843750e+004
 1.797680377960e+000  5.276953125000e+004
 1.797620058060e+000  5.274642578125e+004
 1.797409892082e+000  5.263917187500e+004
 1.797047615051e+000  5.246461718750e+004
 1.796527385712e+000  5.222551953125e+004
 1.795846223831e+000  5.191664843750e+004
 1.795008301735e+000  5.154759375000e+004
 1.794013261795e+000  5.114943750000e+004
 1.792860746384e+000  5.077135546875e+004
 1.791549444199e+000  5.046571093750e+004
 1.790077567101e+000  5.025671484375e+004
 1.788449764252e+000  5.011909375000e+004
 1.786666274071e+000  4.999922656250e+004
 1.784726858139e+000  4.983394140625e+004
 1.782629728317e+000  4.957258984375e+004
 1.780369520187e+000  4.919835156250e+004
 1.777952551842e+000  4.873219531250e+004
 1.775381207466e+000  4.820074609375e+004
 1.772653460503e+000  4.762218359375e+004
 1.769767165184e+000  4.699795312500e+004
 1.766723036766e+000  4.632289453125e+004
 1.763526320457e+000  4.560479296875e+004
 1.760183572769e+000  4.487776171875e+004
 1.756694316864e+000  4.419419140625e+004
 1.753057718277e+000  4.361398046875e+004
 1.749276995659e+000  4.317254296875e+004
 1.745355010033e+000  4.284139843750e+004
 1.741292715073e+000  4.254970312500e+004
 1.737090110779e+000  4.220028125000e+004
 1.732747673988e+000  4.169786328125e+004
 1.728259205818e+000  4.098966796875e+004
 1.723635077477e+000  4.010422265625e+004
 1.718875646591e+000  3.910949218750e+004
 1.713988661766e+000  3.809418359375e+004
 1.708968400955e+000  3.713489062500e+004
 1.703822493553e+000  3.627892578125e+004
 1.698550820351e+000  3.551894531250e+004
 1.693165302277e+000  3.482816015625e+004
 1.687667250633e+000  3.417317187500e+004
 1.682054400444e+000  3.353190625000e+004
 1.676331162453e+000  3.290014843750e+004
 1.670502901077e+000  3.228291601563e+004
 1.664577126503e+000  3.168011914063e+004
 1.658552050591e+000  3.107480273438e+004
 1.652435302734e+000  3.043251171875e+004
 1.646221637726e+000  2.970030859375e+004
 1.639920353889e+000  2.884256250000e+004
 1.633541226387e+000  2.784730273438e+004
 1.627091646194e+000  2.673553515625e+004
 1.620569348335e+000  2.555842968750e+004
 1.613986253738e+000  2.439996093750e+004
 1.607353568077e+000  2.333911328125e+004
 1.600673437119e+000  2.243310937500e+004
 1.593958258629e+000  2.170909570313e+004
 1.587212324142e+000  2.115656054688e+004
 1.580435872078e+000  2.072383203125e+004
 1.573637008667e+000  2.032463085938e+004
 1.566821098328e+000  1.987580859375e+004
 1.559998631477e+000  1.930925390625e+004
 1.553160667419e+000  1.858094140625e+004
 1.546327233315e+000  1.768236523438e+004
 1.539496541023e+000  1.665377734375e+004
 1.532687544823e+000  1.554996582031e+004
 1.525905966759e+000  1.443386914063e+004
 1.519154667854e+000  1.336700097656e+004
 1.512448787689e+000  1.240315234375e+004
 1.505798816681e+000  1.156402441406e+004
 1.499197244644e+000  1.085129589844e+004
 1.492658376694e+000  1.025155566406e+004
 1.486182451248e+000  9.738280273438e+003
 1.479776263237e+000  9.277963867188e+003
 1.473445653915e+000  8.830342773438e+003
 1.467191338539e+000  8.363117187500e+003
 1.461021900177e+000  7.851572753906e+003
 1.454937100410e+000  7.278204589844e+003
 1.448944449425e+000  6.633933593750e+003
 1.443052053452e+000  5.929247558594e+003
 1.437257885933e+000  5.179039550781e+003
 1.431570172310e+000  4.407243652344e+003
 1.425996899605e+000  3.643810546875e+003
 1.420541524887e+000  2.922884521484e+003
 1.415207147598e+000  2.272508300781e+003
 1.409994125366e+000  1.713802246094e+003
 1.404913902283e+000  1.261673950195e+003
 1.399963736534e+000  9.210532226563e+002
 1.395149111748e+000  6.920170898438e+002
 1.390467882156e+000  5.525799560547e+002
 1.385921716690e+000  4.794595642090e+002
 1.381506323814e+000  4.449405212402e+002
 1.377225995064e+000  4.205376892090e+002
 1.373087525368e+000  3.782518920898e+002
 1.369081854820e+000  2.997574157715e+002
 1.365207076073e+000  1.759553070068e+002
 1.361463546753e+000  6.503614425659e+000
 1.357851505280e+000 -2.007847137451e+002
 1.354373335838e+000 -4.312609252930e+002
 1.351023077965e+000 -6.613902587891e+002
 1.347795963287e+000 -8.685643310547e+002
 1.344690799713e+000 -1.029948364258e+003
 1.341706395149e+000 -1.124243408203e+003
 1.338843107224e+000 -1.127752075195e+003
 1.336090207100e+000 -1.033161376953e+003
 1.333443880081e+000 -8.360681152344e+002
 1.330896496773e+000 -5.395839233398e+002
 1.328441262245e+000 -1.554569091797e+002
 1.326079130173e+000  2.981211547852e+002
 1.323798894882e+000  7.873070068359e+002
 1.321591496468e+000  1.280645141602e+003
 1.319452404976e+000  1.746869873047e+003
 1.317380785942e+000  2.159144287109e+003
 1.315370440483e+000  2.497315185547e+003
 1.313414454460e+000  2.764546142578e+003
 1.311511278152e+000  2.975851806641e+003
 1.309655785561e+000  3.159657714844e+003
 1.307844042778e+000  3.353027343750e+003
 1.306079268456e+000  3.600636962891e+003
 1.304353594780e+000  3.935394775391e+003
 1.302664518356e+000  4.377775878906e+003
 1.301010489464e+000  4.932068359375e+003
 1.299386858940e+000  5.586596191406e+003
 1.297795176506e+000  6.313368652344e+003
 1.296226978302e+000  7.068576171875e+003
 1.294682025909e+000  7.807808105469e+003
 1.293157696724e+000  8.492606445313e+003
 1.291654706001e+000  9.095319335938e+003
 1.290169715881e+000  9.601940429688e+003
 1.288699626923e+000  1.002700292969e+004
 1.287243604660e+000  1.039661914063e+004
 1.285795211792e+000  1.074668847656e+004
 1.284353971481e+000  1.111544335938e+004
 1.282911896706e+000  1.154180664063e+004
 1.281468987465e+000  1.204348242188e+004
 1.280020833015e+000  1.262225292969e+004
 1.278563499451e+000  1.326438574219e+004
 1.277092695236e+000  1.394335937500e+004
 1.275604844093e+000  1.462436621094e+004
 1.274095416069e+000  1.527622753906e+004
 1.272561192513e+000  1.587931445313e+004
 1.271003007889e+000  1.642398046875e+004
 1.269415259361e+000  1.691561523438e+004
 1.267797708511e+000  1.736383203125e+004
 1.266147494316e+000  1.779072656250e+004
 1.264463424683e+000  1.821493750000e+004
 1.262744545937e+000  1.865057421875e+004
 1.260987758636e+000  1.910589062500e+004
 1.259188294411e+000  1.958334960938e+004
 1.257343292236e+000  2.007668359375e+004
 1.255453228951e+000  2.057747656250e+004
 1.253513216972e+000  2.107735742188e+004
 1.251521348953e+000  2.156823828125e+004
 1.249470591545e+000  2.203972460938e+004
 1.247362375259e+000  2.248255859375e+004
 1.245195388794e+000  2.289229687500e+004
 1.242965459824e+000  2.327005664063e+004
 1.240672826767e+000  2.362175195313e+004
 1.238311171532e+000  2.395593359375e+004
 1.235878944397e+000  2.428237890625e+004
 1.233377456665e+000  2.460774609375e+004
 1.230803608894e+000  2.493652734375e+004
 1.228154659271e+000  2.527113281250e+004
 1.225423932076e+000  2.561030273438e+004
 1.222614169121e+000  2.594824414063e+004
 1.219724655151e+000  2.627725390625e+004
 1.216752767563e+000  2.658844921875e+004
 1.213695049286e+000  2.687122851563e+004
 1.210548281670e+000  2.711400585938e+004
 1.207313060760e+000  2.731452539063e+004
 1.203991174698e+000  2.747791210938e+004
 1.200579166412e+000  2.761574609375e+004
 1.197075963020e+000  2.774402343750e+004
 1.193477392197e+000  2.788064453125e+004
 1.189785718918e+000  2.803827929688e+004
 1.186000943184e+000  2.822033203125e+004
 1.182119607925e+000  2.842166210938e+004
 1.178143501282e+000  2.862912890625e+004
 1.174064278603e+000  2.882378710938e+004
 1.169884443283e+000  2.898578125000e+004
 1.165608167648e+000  2.910228320313e+004
 1.161230444908e+000  2.916885742188e+004
 1.156754255295e+000  2.919084570313e+004
 1.152169823647e+000  2.918211718750e+004
 1.147487640381e+000  2.916421875000e+004
 1.142698884010e+000  2.915453906250e+004
 1.137811541557e+000  2.916226757813e+004
 1.132823228836e+000  2.918665625000e+004
 1.127725362778e+000  2.921750390625e+004
 1.122525930405e+000  2.923841210938e+004
 1.117224812508e+000  2.923557617188e+004
 1.111825227737e+000  2.920069726563e+004
 1.106321811676e+000  2.913268750000e+004
 1.100714564323e+000  2.903670117188e+004
 1.095003724098e+000  2.892413671875e+004
 1.089193224907e+000  2.880497265625e+004
 1.083284020424e+000  2.868450781250e+004
 1.077274441719e+000  2.856283007813e+004
 1.071158409119e+000  2.843526171875e+004
 1.064947485924e+000  2.829546875000e+004
 1.058635592461e+000  2.813949804688e+004
 1.052232980728e+000  2.796643359375e+004
 1.045734286308e+000  2.777810156250e+004
 1.039134860039e+000  2.757709375000e+004
 1.032449126244e+000  2.736536718750e+004
 1.025662779808e+000  2.714214257813e+004
 1.018790245056e+000  2.690427929688e+004
 1.011822581291e+000  2.664816015625e+004
 1.004768371582e+000  2.637107226563e+004
 9.976131916046e-001  2.607508984375e+004
 9.903870224953e-001  2.576648046875e+004
 9.830650687218e-001  2.545309765625e+004
 9.756756424904e-001  2.514247851563e+004
 9.681918025017e-001  2.483921484375e+004
 9.606284499168e-001  2.454109570313e+004
 9.529920816422e-001  2.423933789063e+004
 9.452818036079e-001  2.392225585938e+004
 9.374951720238e-001  2.357901953125e+004
 9.296310544014e-001  2.320229882813e+004
 9.217031598091e-001  2.279384179688e+004
 9.137012958527e-001  2.236343164063e+004
 9.056390523911e-001  2.192341601563e+004
 8.975110054016e-001  2.148605664063e+004
 8.893210291862e-001  2.106052343750e+004
 8.810685276985e-001  2.064889453125e+004
 8.727608323097e-001  2.024566210938e+004
 8.644049763680e-001  1.984125390625e+004
 8.559838533401e-001  1.942447265625e+004
 8.475239872932e-001  1.898491796875e+004
 8.390125036240e-001  1.851744531250e+004
 8.304529190063e-001  1.802443359375e+004
 8.218550682068e-001  1.751253906250e+004
 8.132148981094e-001  1.699134179688e+004
 8.045301437378e-001  1.647116796875e+004
 7.958179116249e-001  1.596062500000e+004
 7.870634198189e-001  1.546303222656e+004
 7.782793641090e-001  1.497736328125e+004
 7.694692611694e-001  1.449884179688e+004
 7.606378793716e-001  1.401995996094e+004
 7.517771720886e-001  1.353224511719e+004
 7.428951263428e-001  1.302983300781e+004
 7.339955568314e-001  1.250967675781e+004
 7.250798344612e-001  1.197205468750e+004
 7.161481976509e-001  1.142011718750e+004
 7.072053551674e-001  1.086026757813e+004
 6.982460021973e-001  1.030022558594e+004
 6.892911791801e-001  9.746877929688e+003
 6.803358197212e-001  9.206003906250e+003
 6.713750958443e-001  8.682337890625e+003
 6.624113321304e-001  8.178215332031e+003
 6.534550189972e-001  7.692319824219e+003
 6.445043087006e-001  7.221799804688e+003
 6.355511546135e-001  6.762233886719e+003
 6.266097426414e-001  6.308676269531e+003
 6.176801323891e-001  5.855729980469e+003
 6.087530255318e-001  5.398481933594e+003
 5.998406410217e-001  4.933155761719e+003
 5.909419655800e-001  4.457526367188e+003
 5.820626020432e-001  3.971275146484e+003
 5.731953978539e-001  3.477330078125e+003
 5.643480420113e-001  2.982213623047e+003
 5.555235743523e-001  2.494950683594e+003
 5.467221736908e-001  2.026333496094e+003
 5.379431843758e-001  1.587611328125e+003
 5.291842222214e-001  1.189004150391e+003
 5.204553008080e-001  8.353643188477e+002
 5.117528438568e-001  5.303586425781e+002
 5.030809640884e-001  2.756415405273e+002
 4.944288134575e-001  7.199977874756e+001
 4.858113825321e-001 -8.150227355957e+001
 4.772164523602e-001 -1.904141235352e+002
 4.686573743820e-001 -2.594630432129e+002
 4.601202607155e-001 -2.947591247559e+002
 4.516122043133e-001 -3.033464050293e+002
 4.431371688843e-001 -2.932351684570e+002
 4.346832931042e-001 -2.726333618164e+002
 4.262472689152e-001 -2.473519134521e+002
 4.178428053856e-001 -2.218403625488e+002
 4.094720184803e-001 -1.993276824951e+002
 4.011172354221e-001 -1.820911865234e+002
 3.927773535252e-001 -1.709655914307e+002
 3.844693005085e-001 -1.662593231201e+002
 3.761756718159e-001 -1.678081817627e+002
 3.679051995277e-001 -1.751708831787e+002
 3.596505522728e-001 -1.876275482178e+002
 3.514183461666e-001 -2.039354248047e+002
 3.432040512562e-001 -2.231103820801e+002
 3.350031673908e-001 -2.442418518066e+002
 3.268250524998e-001 -2.665442504883e+002
 3.186591565609e-001 -2.893528137207e+002
 3.105056285858e-001 -3.121509704590e+002
 3.023716211319e-001 -3.346322631836e+002
 2.942483127117e-001 -3.566046142578e+002
 2.861379981041e-001 -3.779754638672e+002
 2.780373692513e-001 -3.987645874023e+002
 2.699546217918e-001 -4.191475524902e+002
 2.618794739246e-001 -4.393365173340e+002
 2.538138926029e-001 -4.595636596680e+002
 2.457590401173e-001 -4.800716552734e+002
 2.377132177353e-001 -5.010874328613e+002
 2.296725362539e-001 -5.227022705078e+002
 2.216413021088e-001 -5.449323730469e+002
 2.136161923409e-001 -5.677088623047e+002
 2.056020647287e-001 -5.909019775391e+002
 1.975820213556e-001 -6.143449707031e+002
 1.895829737186e-001 -6.379038696289e+002
 1.815742105246e-001 -6.615263061523e+002
 1.735807657242e-001 -6.852055664063e+002
 1.655822098255e-001 -7.089401245117e+002
 1.575901657343e-001 -7.327244262695e+002
 1.496034562588e-001 -7.565668945313e+002
 1.416138559580e-001 -7.804963989258e+002
 1.336320340633e-001 -8.046094970703e+002
 1.256399899721e-001 -8.290893554688e+002
 1.176570057869e-001 -8.542592163086e+002
 1.096804365516e-001 -8.804838867188e+002
 1.016959771514e-001 -9.082159423828e+002
 9.371403604746e-002 -9.378497924805e+002
 8.573424816132e-002 -9.696514282227e+002
 7.774362713099e-002 -1.003725708008e+003
 6.975940614939e-002 -1.039566406250e+003
 6.177539750934e-002 -1.076387329102e+003
 5.379170551896e-002 -1.113034545898e+003
 4.579677060246e-002 -1.147838012695e+003
 3.780894726515e-002 -1.178877929688e+003
 2.981873042881e-002 -1.203978393555e+003
 2.183003909886e-002 -1.221568603516e+003
 1.384086720645e-002 -1.230546630859e+003
 5.845922976732e-003 -1.230622558594e+003
-2.145326696336e-003 -1.223192260742e+003
-1.013677194715e-002 -1.213538208008e+003
-1.812676526606e-002 -1.209856933594e+003
-2.612307481468e-002 -1.224337768555e+003
-3.411171212792e-002 -1.272585449219e+003
-4.210703447461e-002 -1.378833618164e+003
-5.009409040213e-002 -1.561770385742e+003
-5.808575823903e-002 -1.840944091797e+003
-6.607111543417e-002 -2.228755126953e+003
-7.404832541943e-002 -2.722342285156e+003
-8.202169835567e-002 -3.311621826172e+003
-8.999085426331e-002 -3.939370605469e+003
-9.794437885284e-002 -4.520514648438e+003
-1.058850586414e-001 -4.967616210938e+003
-1.138044595718e-001 -5.192650878906e+003
-1.217167899013e-001 -5.130095703125e+003
-1.296052336693e-001 -4.811612792969e+003
-1.374835968018e-001 -4.298063476563e+003
-1.453456133604e-001 -3.694247802734e+003
-1.531910449266e-001 -3.104307373047e+003
-1.610275954008e-001 -2.632255859375e+003
-1.688618063927e-001 -2.353147460938e+003
-1.766831129789e-001 -2.316427246094e+003
-1.845036000013e-001 -2.547914550781e+003
-1.923094838858e-001 -3.047639160156e+003
-2.001137435436e-001 -3.796997314453e+003
-2.079018652439e-001 -4.713104980469e+003
-2.156775146723e-001 -5.699800292969e+003
-2.234350889921e-001 -6.644923828125e+003
-2.311632782221e-001 -7.438996582031e+003
-2.388738244772e-001 -7.984668945313e+003
-2.465576231480e-001 -8.271322265625e+003
-2.542150020599e-001 -8.343306640625e+003
-2.618408203125e-001 -8.294714843750e+003
-2.694379389286e-001 -8.247738281250e+003
-2.769997715950e-001 -8.335351562500e+003
-2.845355272293e-001 -8.636333984375e+003
-2.920416593552e-001 -9.167616210938e+003
-2.995059788227e-001 -9.884375000000e+003
-3.069422841072e-001 -1.068923730469e+004
-3.143341839314e-001 -1.144287402344e+004
-3.216794133186e-001 -1.201323046875e+004
-3.289871811867e-001 -1.231508105469e+004
-3.362464010715e-001 -1.232040820313e+004
-3.434637784958e-001 -1.206565429688e+004
-3.506366312504e-001 -1.164600878906e+004
-3.577656149864e-001 -1.121466113281e+004
-3.648570477962e-001 -1.090935449219e+004
-3.719145953655e-001 -1.083731835938e+004
-3.789315819740e-001 -1.105618261719e+004
-3.859100341797e-001 -1.157559570313e+004
-3.928451240063e-001 -1.231305273438e+004
-3.997460901737e-001 -1.316160546875e+004
-4.065990149975e-001 -1.400628125000e+004
-4.134005606174e-001 -1.474495410156e+004
-4.201563894749e-001 -1.529806933594e+004
-4.268557727337e-001 -1.565466015625e+004
-4.334991574287e-001 -1.584866894531e+004
-4.400885105133e-001 -1.594388574219e+004
-4.466247856617e-001 -1.601621191406e+004
-4.531029462814e-001 -1.613620507813e+004
-4.595226049423e-001 -1.633722851563e+004
-4.658939540386e-001 -1.660987500000e+004
-4.722024202347e-001 -1.691248828125e+004
-4.784583747387e-001 -1.718425781250e+004
-4.846543371677e-001 -1.735576367188e+004
-4.907956421375e-001 -1.738551953125e+004
-4.968739748001e-001 -1.726915234375e+004
-5.029020905495e-001 -1.703863281250e+004
-5.088762044907e-001 -1.675746289063e+004
-5.147947072983e-001 -1.651183398438e+004
-5.206605195999e-001 -1.638160156250e+004
-5.264776945114e-001 -1.641398242188e+004
-5.322442054749e-001 -1.662123046875e+004
-5.379694104195e-001 -1.697907226563e+004
-5.436335802078e-001 -1.743468554688e+004
-5.492476224899e-001 -1.790952929688e+004
-5.548075437546e-001 -1.833578320313e+004
-5.603152513504e-001 -1.866380078125e+004
-5.657677054405e-001 -1.886757812500e+004
-5.711582899094e-001 -1.894163671875e+004
-5.764944553375e-001 -1.891271875000e+004
-5.817779302597e-001 -1.881491796875e+004
-5.870048403740e-001 -1.867927343750e+004
-5.921819806099e-001 -1.852880859375e+004
-5.973016023636e-001 -1.837466406250e+004
-6.023743152618e-001 -1.821540625000e+004
-6.073976159096e-001 -1.804180664063e+004
-6.123722195625e-001 -1.784278515625e+004
-6.172995567322e-001 -1.761001367188e+004
-6.221751570702e-001 -1.734023828125e+004
-6.270144581795e-001 -1.704224804688e+004
-6.318069100380e-001 -1.673316015625e+004
-6.365609169006e-001 -1.643569140625e+004
-6.412770152092e-001 -1.617551562500e+004
-6.459503769875e-001 -1.598038476563e+004
-6.505883336067e-001 -1.586715136719e+004
-6.551917195320e-001 -1.583760937500e+004
-6.597623825073e-001 -1.587954101563e+004
-6.642991900444e-001 -1.596461425781e+004
-6.687983870506e-001 -1.604980664063e+004
-6.732601523399e-001 -1.608381933594e+004
-6.776899695396e-001 -1.602559277344e+004
-6.820883750916e-001 -1.584793261719e+004
-6.864493489265e-001 -1.554835742188e+004
-6.907807588577e-001 -1.513436328125e+004
-6.950826644897e-001 -1.465229199219e+004
-6.993557214737e-001 -1.414960742188e+004
-7.036088705063e-001 -1.365892285156e+004
-7.078346014023e-001 -1.321337011719e+004
-7.120413184166e-001 -1.282552636719e+004
-7.162265777588e-001 -1.248925390625e+004
-7.203984260559e-001 -1.218535937500e+004
-7.245491743088e-001 -1.189189843750e+004
-7.286869287491e-001 -1.159036035156e+004
-7.328121066093e-001 -1.127113867188e+004
-7.369214892387e-001 -1.093980761719e+004
-7.410185337067e-001 -1.061373046875e+004
-7.451061606407e-001 -1.031525878906e+004
-7.491848468781e-001 -1.006525488281e+004
-7.532570362091e-001 -9.878743164063e+003
-7.573255896568e-001 -9.752304687500e+003
-7.613851428032e-001 -9.665551757813e+003
-7.654461264610e-001 -9.587493164063e+003
-7.695078253746e-001 -9.480844726563e+003
-7.735648155212e-001 -9.306678710938e+003
-7.776231765747e-001 -9.040153320313e+003
-7.816817760468e-001 -8.678759765625e+003
-7.857435345650e-001 -8.236580078125e+003
-7.898023128510e-001 -7.742695312500e+003
-7.938635349274e-001 -7.236444335938e+003
-7.979326844215e-001 -6.761588867188e+003
-8.020042777061e-001 -6.350989257813e+003
-8.060858249664e-001 -6.025186523438e+003
-8.101739287376e-001 -5.790750000000e+003
-8.142714500427e-001 -5.642789062500e+003
-8.183836340904e-001 -5.559928710938e+003
-8.225075602531e-001 -5.514160644531e+003
-8.266432881355e-001 -5.479722656250e+003
-8.307908177376e-001 -5.435425292969e+003
-8.349509835243e-001 -5.367101562500e+003
-8.391291499138e-001 -5.271234863281e+003
-8.433177471161e-001 -5.153669921875e+003
-8.475221991539e-001 -5.024065917969e+003
-8.517417907715e-001 -4.893418945313e+003
-8.559772372246e-001 -4.771524902344e+003
-8.602271676064e-001 -4.663703613281e+003
-8.644970655441e-001 -4.568811035156e+003
-8.687818050385e-001 -4.481429199219e+003
-8.730812072754e-001 -4.393183105469e+003
-8.774034976959e-001 -4.294555175781e+003
-8.817419409752e-001 -4.178409179688e+003
-8.860977292061e-001 -4.044004882813e+003
-8.904721140862e-001 -3.896428955078e+003
-8.948693275452e-001 -3.746660644531e+003
-8.992851972580e-001 -3.611028808594e+003
-9.037197828293e-001 -3.508951171875e+003
-9.081776738167e-001 -3.455907958984e+003
-9.126582741737e-001 -3.463060058594e+003
-9.171586036682e-001 -3.534399169922e+003
-9.216758012772e-001 -3.666293457031e+003
-9.262209534645e-001 -3.842344970703e+003
-9.307833313942e-001 -4.036523681641e+003
-9.353623986244e-001 -4.221204589844e+003
-9.399598836899e-001 -4.369858886719e+003
-9.445776343346e-001 -4.460403808594e+003
-9.492154717445e-001 -4.482855468750e+003
-9.538667798042e-001 -4.445142089844e+003
-9.585401415825e-001 -4.364580566406e+003
-9.632221460342e-001 -4.266325683594e+003
-9.679293036461e-001 -4.179334960938e+003
-9.726503491402e-001 -4.131151367188e+003
-9.773937463760e-001 -4.137326171875e+003
-9.821544289589e-001 -4.203775390625e+003
-9.869327545166e-001 -4.326296875000e+003
-9.917262792587e-001 -4.492598632813e+003
-9.965389966965e-001 -4.682660644531e+003
-1.001368880272e+000 -4.875252929688e+003
-1.006214022636e+000 -5.054149902344e+003
-1.011069059372e+000 -5.209082031250e+003
-1.015944838524e+000 -5.336529785156e+003
-1.020830273628e+000 -5.440926757813e+003
-1.025730848312e+000 -5.533087402344e+003
-1.030643701553e+000 -5.624172363281e+003
-1.035571098328e+000 -5.723838867188e+003
-1.040513753891e+000 -5.838200683594e+003
-1.045462608337e+000 -5.967707519531e+003
-1.050423502922e+000 -6.106494140625e+003
-1.055391073227e+000 -6.246429687500e+003
-1.060364484787e+000 -6.378754394531e+003
-1.065343379974e+000 -6.496229980469e+003
-1.070327401161e+000 -6.595732421875e+003
-1.075309872627e+000 -6.681750488281e+003
-1.080298781395e+000 -6.763198242188e+003
-1.085289478302e+000 -6.852105468750e+003
-1.090283870697e+000 -6.961767578125e+003
-1.095280647278e+000 -7.104376464844e+003
-1.100285172462e+000 -7.282340820313e+003
-1.105297088623e+000 -7.495440917969e+003
-1.110314488411e+000 -7.734313476563e+003
-1.115336537361e+000 -7.985277343750e+003
-1.120360732079e+000 -8.230730468750e+003
-1.125380277634e+000 -8.453727539063e+003
-1.130398869514e+000 -8.644058593750e+003
-1.135410785675e+000 -8.796251953125e+003
-1.140417098999e+000 -8.911585937500e+003
-1.145416140556e+000 -8.998831054688e+003
-1.150415778160e+000 -9.073061523438e+003
-1.155410766602e+000 -9.149015625000e+003
-1.160400390625e+000 -9.240212890625e+003
-1.165391921997e+000 -9.357485351563e+003
-1.170375704765e+000 -9.507416992188e+003
-1.175355792046e+000 -9.688432617188e+003
-1.180328130722e+000 -9.895808593750e+003
-1.185296297073e+000 -1.012152539063e+004
-1.190249562263e+000 -1.035554492188e+004
-1.195195794106e+000 -1.058687207031e+004
-1.200125575066e+000 -1.080714453125e+004
-1.205042719841e+000 -1.101130859375e+004
-1.209946990013e+000 -1.119739257813e+004
-1.214834809303e+000 -1.136605957031e+004
-1.219711303711e+000 -1.152031250000e+004
-1.224573612213e+000 -1.166542089844e+004
-1.229423522949e+000 -1.180604882813e+004
-1.234259247780e+000 -1.194649414063e+004
-1.239080190659e+000 -1.209031347656e+004
-1.243884205818e+000 -1.224036523438e+004
-1.248670101166e+000 -1.239794433594e+004
-1.253443241119e+000 -1.256381640625e+004
-1.258190393448e+000 -1.273795507813e+004
-1.262922525406e+000 -1.291920410156e+004
-1.267633080482e+000 -1.310530761719e+004
-1.272324323654e+000 -1.329335742188e+004
-1.276992321014e+000 -1.348109765625e+004
-1.281637072563e+000 -1.366698535156e+004
-1.286262035370e+000 -1.385039062500e+004
-1.290864944458e+000 -1.403146191406e+004
-1.295444846153e+000 -1.421096972656e+004
-1.300003647804e+000 -1.438930859375e+004
-1.304543972015e+000 -1.456606347656e+004
-1.309057950974e+000 -1.473971679688e+004
-1.313546419144e+000 -1.490737890625e+004
-1.318010926247e+000 -1.506639160156e+004
-1.322450280190e+000 -1.521448535156e+004
-1.326869249344e+000 -1.535081250000e+004
-1.331260681152e+000 -1.547677636719e+004
-1.335622310638e+000 -1.559680078125e+004
-1.339965581894e+000 -1.571828320313e+004
-1.344284296036e+000 -1.584878515625e+004
-1.348581433296e+000 -1.599484863281e+004
-1.352848649025e+000 -1.616033789063e+004
-1.357091546059e+000 -1.634530957031e+004
-1.361309170723e+000 -1.654262890625e+004
-1.365499615669e+000 -1.674250781250e+004
-1.369663000107e+000 -1.693291796875e+004
-1.373802304268e+000 -1.710185742188e+004
-1.377911686897e+000 -1.723890039063e+004
-1.381993651390e+000 -1.734366796875e+004
-1.386057496071e+000 -1.742107421875e+004
-1.390090823174e+000 -1.748147265625e+004
-1.394101619720e+000 -1.753833398438e+004
-1.398084402084e+000 -1.760629492188e+004
-1.402045488358e+000 -1.769465625000e+004
-1.405980110168e+000 -1.780713476563e+004
-1.409892439842e+000 -1.794208398438e+004
-1.413779139519e+000 -1.809354101563e+004
-1.417646765709e+000 -1.825182031250e+004
-1.421485900879e+000 -1.840506250000e+004
-1.425300955772e+000 -1.854433203125e+004
-1.429093003273e+000 -1.866446289063e+004
-1.432857155800e+000 -1.876465039063e+004
-1.436596751213e+000 -1.884734375000e+004
-1.440312981606e+000 -1.891940820313e+004
-1.444000601768e+000 -1.898652734375e+004
-1.447666645050e+000 -1.905297265625e+004
-1.451308250427e+000 -1.912095507813e+004
-1.454923272133e+000 -1.919092578125e+004
-1.458516716957e+000 -1.926211523438e+004
-1.462085485458e+000 -1.933409765625e+004
-1.465632319450e+000 -1.940724609375e+004
-1.469161152840e+000 -1.948281835938e+004
-1.472676396370e+000 -1.956309765625e+004
-1.476181030273e+000 -1.964938476563e+004
-1.479684233665e+000 -1.974248046875e+004
-1.483196854591e+000 -1.984164257813e+004
-1.486723542213e+000 -1.994224414063e+004
-1.490280628204e+000 -2.004081445313e+004
-1.493872165680e+000 -2.013296093750e+004
-1.497494220734e+000 -2.021440625000e+004
-1.501146197319e+000 -2.028591015625e+004
-1.504801750183e+000 -2.034848046875e+004
-1.508418083191e+000 -2.040519726563e+004
-1.511939406395e+000 -2.046015820313e+004
-1.515286803246e+000 -2.051572460938e+004
-1.518362283707e+000 -2.057217578125e+004
-1.521061539650e+000 -2.062747265625e+004
-1.523241519928e+000 -2.067717968750e+004
-1.524838447571e+000 -2.071705273438e+004
-1.525828957558e+000 -2.074377929688e+004
-1.526273250580e+000 -2.075659570313e+004
-1.526359915733e+000 -2.075922460938e+004
endcurve
