Curveplot
LS-DYNA keyword deck by LS-PrePost
Abscissa
Ordinate
XY data
NBDLHeadzCoo-1 #pts=2000
* Minval=     4.3794700623e+01 at time=       150.5998840332
* Maxval=     1.5358210754e+02 at time=        36.3998527527
    0.0000000000e+00    1.5358110046e+02
    9.9978484213e-02    1.5358110046e+02
    1.9995696843e-01    1.5358110046e+02
    2.9993546009e-01    1.5358110046e+02
    3.9991393685e-01    1.5358110046e+02
    4.9989241362e-01    1.5358110046e+02
    5.9987092018e-01    1.5358110046e+02
    6.9989228249e-01    1.5358110046e+02
    7.9987078905e-01    1.5358110046e+02
    8.9984923601e-01    1.5358110046e+02
    9.9982774258e-01    1.5358110046e+02
    1.0999879837e+00    1.5358110046e+02
    1.1999665499e+00    1.5358110046e+02
    1.2999449968e+00    1.5358110046e+02
    1.3999276161e+00    1.5358110046e+02
    1.4998989105e+00    1.5358110046e+02
    1.5999723673e+00    1.5358110046e+02
    1.6999509335e+00    1.5358110046e+02
    1.7999293804e+00    1.5358110046e+02
    1.8999079466e+00    1.5358110046e+02
    1.9998862743e+00    1.5358110046e+02
    2.0998647213e+00    1.5358110046e+02
    2.1998434067e+00    1.5358110046e+02
    2.2998218536e+00    1.5358110046e+02
    2.3999822140e+00    1.5358110046e+02
    2.4999604225e+00    1.5358110046e+02
    2.5999391079e+00    1.5358110046e+02
    2.6999175549e+00    1.5358110046e+02
    2.7999644279e+00    1.5358110046e+02
    2.8999450207e+00    1.5358110046e+02
    2.9999256134e+00    1.5358110046e+02
    3.0999062061e+00    1.5358110046e+02
    3.1998867989e+00    1.5358110046e+02
    3.2998673916e+00    1.5358110046e+02
    3.3998479843e+00    1.5358110046e+02
    3.4999725819e+00    1.5358110046e+02
    3.5999510288e+00    1.5358110046e+02
    3.6999294758e+00    1.5358110046e+02
    3.7999079227e+00    1.5358110046e+02
    3.8998863697e+00    1.5358110046e+02
    3.9998648167e+00    1.5358110046e+02
    4.0998435020e+00    1.5358110046e+02
    4.1999077797e+00    1.5358110046e+02
    4.2999424934e+00    1.5358110046e+02
    4.3999209404e+00    1.5358110046e+02
    4.4998140335e+00    1.5358110046e+02
    4.5999875069e+00    1.5358110046e+02
    4.6999678612e+00    1.5358110046e+02
    4.7999486923e+00    1.5358110046e+02
    4.8999295235e+00    1.5358110046e+02
    4.9999098778e+00    1.5358110046e+02
    5.0998907089e+00    1.5358110046e+02
    5.1998715401e+00    1.5358110046e+02
    5.2998518944e+00    1.5358110046e+02
    5.3998327255e+00    1.5358110046e+02
    5.4998135567e+00    1.5358110046e+02
    5.5999875069e+00    1.5358110046e+02
    5.6999678612e+00    1.5358110046e+02
    5.7999486923e+00    1.5358110046e+02
    5.8999295235e+00    1.5358110046e+02
    5.9999098778e+00    1.5358110046e+02
    6.0998907089e+00    1.5358110046e+02
    6.1998720169e+00    1.5358110046e+02
    6.2998533249e+00    1.5358110046e+02
    6.3998341560e+00    1.5358110046e+02
    6.4998154640e+00    1.5358110046e+02
    6.5999894142e+00    1.5358110046e+02
    6.6999702454e+00    1.5358110046e+02
    6.7999505997e+00    1.5358110046e+02
    6.8999319077e+00    1.5358110046e+02
    6.9999132156e+00    1.5358110046e+02
    7.0998940468e+00    1.5358110046e+02
    7.1998748779e+00    1.5358110046e+02
    7.2998557091e+00    1.5358110046e+02
    7.3998365402e+00    1.5358110046e+02
    7.4998173714e+00    1.5358110046e+02
    7.5999917984e+00    1.5358110046e+02
    7.6999726295e+00    1.5358110046e+02
    7.7999534607e+00    1.5358110046e+02
    7.8999342918e+00    1.5358110046e+02
    7.9999155998e+00    1.5358110046e+02
    8.0998964310e+00    1.5358110046e+02
    8.1998767853e+00    1.5358110046e+02
    8.2998580933e+00    1.5358110046e+02
    8.3998880386e+00    1.5358110046e+02
    8.4998693466e+00    1.5358110046e+02
    8.5998497009e+00    1.5358110046e+02
    8.6998310089e+00    1.5358110046e+02
    8.7998123169e+00    1.5358110046e+02
    8.8999862671e+00    1.5358110046e+02
    8.9999666214e+00    1.5358110046e+02
    9.0999479294e+00    1.5358110046e+02
    9.1999282837e+00    1.5358110046e+02
    9.2999095917e+00    1.5358110046e+02
    9.3999519348e+00    1.5358110046e+02
    9.4999074936e+00    1.5358110046e+02
    9.5998830795e+00    1.5358110046e+02
    9.6999139786e+00    1.5358110046e+02
    9.7998952866e+00    1.5358110046e+02
    9.8999872208e+00    1.5358110046e+02
    9.9999685287e+00    1.5358110046e+02
    1.0099983215e+01    1.5358110046e+02
    1.0199975014e+01    1.5358110046e+02
    1.0299956322e+01    1.5358110046e+02
    1.0399936676e+01    1.5358110046e+02
    1.0499917984e+01    1.5358110046e+02
    1.0599899292e+01    1.5358110046e+02
    1.0699864388e+01    1.5358110046e+02
    1.0799910545e+01    1.5358110046e+02
    1.0899917603e+01    1.5358110046e+02
    1.0999970436e+01    1.5358110046e+02
    1.1099864006e+01    1.5358110046e+02
    1.1199980736e+01    1.5358110046e+02
    1.1299835205e+01    1.5358110046e+02
    1.1399992943e+01    1.5358110046e+02
    1.1499871254e+01    1.5358110046e+02
    1.1599942207e+01    1.5358110046e+02
    1.1699864388e+01    1.5358110046e+02
    1.1799834251e+01    1.5358110046e+02
    1.1899873734e+01    1.5358110046e+02
    1.1999855042e+01    1.5358110046e+02
    1.2099854469e+01    1.5358110046e+02
    1.2199934959e+01    1.5358110046e+02
    1.2299835205e+01    1.5358110046e+02
    1.2400009155e+01    1.5358110046e+02
    1.2499894142e+01    1.5358110046e+02
    1.2599875450e+01    1.5358110046e+02
    1.2699855804e+01    1.5358110046e+02
    1.2799965858e+01    1.5358110046e+02
    1.2899947166e+01    1.5358110046e+02
    1.2999929428e+01    1.5358110046e+02
    1.3099960327e+01    1.5358110046e+02
    1.3199871063e+01    1.5358110046e+02
    1.3299901962e+01    1.5358110046e+02
    1.3399874687e+01    1.5358110046e+02
    1.3500013351e+01    1.5358110046e+02
    1.3599948883e+01    1.5358110046e+02
    1.3699834824e+01    1.5358110046e+02
    1.3799953461e+01    1.5358110046e+02
    1.3899933815e+01    1.5358110046e+02
    1.3999915123e+01    1.5358110046e+02
    1.4099896431e+01    1.5358110046e+02
    1.4199888229e+01    1.5358110046e+02
    1.4299868584e+01    1.5358110046e+02
    1.4399849892e+01    1.5358110046e+02
    1.4500000000e+01    1.5358110046e+02
    1.4599981308e+01    1.5358110046e+02
    1.4699961662e+01    1.5358110046e+02
    1.4799942970e+01    1.5358110046e+02
    1.4899949074e+01    1.5358110046e+02
    1.4999968529e+01    1.5358110046e+02
    1.5099892616e+01    1.5358110046e+02
    1.5199966431e+01    1.5358110046e+02
    1.5299855232e+01    1.5358110046e+02
    1.5399835587e+01    1.5358110046e+02
    1.5499872208e+01    1.5358110046e+02
    1.5599851608e+01    1.5358110046e+02
    1.5699954987e+01    1.5358110046e+02
    1.5799936295e+01    1.5358110046e+02
    1.5899939537e+01    1.5358110046e+02
    1.5999930382e+01    1.5358110046e+02
    1.6099920273e+01    1.5358110046e+02
    1.6199848175e+01    1.5358110046e+02
    1.6299987793e+01    1.5358110046e+02
    1.6400001526e+01    1.5358110046e+02
    1.6499929428e+01    1.5358110046e+02
    1.6599838257e+01    1.5358110046e+02
    1.6700016022e+01    1.5358110046e+02
    1.6799911499e+01    1.5358110046e+02
    1.6899932861e+01    1.5358110046e+02
    1.6999912262e+01    1.5358110046e+02
    1.7100021362e+01    1.5358110046e+02
    1.7199914932e+01    1.5358110046e+02
    1.7299938202e+01    1.5358110046e+02
    1.7399885178e+01    1.5358110046e+02
    1.7499942780e+01    1.5358110046e+02
    1.7599973679e+01    1.5358110046e+02
    1.7699937820e+01    1.5358110046e+02
    1.7799867630e+01    1.5358110046e+02
    1.7899997711e+01    1.5358110046e+02
    1.7999948502e+01    1.5358110046e+02
    1.8099880219e+01    1.5358110046e+02
    1.8200000763e+01    1.5358110046e+02
    1.8299980164e+01    1.5358110046e+02
    1.8399932861e+01    1.5358110046e+02
    1.8499965668e+01    1.5358110046e+02
    1.8599903107e+01    1.5358110046e+02
    1.8699882507e+01    1.5358110046e+02
    1.8799877167e+01    1.5358110046e+02
    1.8899856567e+01    1.5358110046e+02
    1.9000017166e+01    1.5358110046e+02
    1.9099855423e+01    1.5358110046e+02
    1.9199947357e+01    1.5358110046e+02
    1.9299928665e+01    1.5358110046e+02
    1.9399908066e+01    1.5358110046e+02
    1.9500028610e+01    1.5358110046e+02
    1.9599920273e+01    1.5358110046e+02
    1.9700027466e+01    1.5358110046e+02
    1.9800006866e+01    1.5358110046e+02
    1.9899984360e+01    1.5358110046e+02
    1.9999956131e+01    1.5358110046e+02
    2.0100036621e+01    1.5358110046e+02
    2.0199945450e+01    1.5358110046e+02
    2.0299924850e+01    1.5358110046e+02
    2.0399900436e+01    1.5358110046e+02
    2.0499975204e+01    1.5358110046e+02
    2.0600008011e+01    1.5358110046e+02
    2.0699981689e+01    1.5358110046e+02
    2.0799993515e+01    1.5358110046e+02
    2.0899972916e+01    1.5358110046e+02
    2.0999952316e+01    1.5358110046e+02
    2.1099929810e+01    1.5358110046e+02
    2.1199909210e+01    1.5358110046e+02
    2.1299888611e+01    1.5358110046e+02
    2.1399866104e+01    1.5358110046e+02
    2.1500028610e+01    1.5358110046e+02
    2.1600006104e+01    1.5358110046e+02
    2.1699985504e+01    1.5358110046e+02
    2.1799964905e+01    1.5358110046e+02
    2.1899942398e+01    1.5358110046e+02
    2.1999921799e+01    1.5358110046e+02
    2.2099901199e+01    1.5358110046e+02
    2.2199878693e+01    1.5358110046e+02
    2.2300039291e+01    1.5358110046e+02
    2.2400018692e+01    1.5358110046e+02
    2.2499998093e+01    1.5358110046e+02
    2.2599977493e+01    1.5358110046e+02
    2.2699956894e+01    1.5358110046e+02
    2.2799934387e+01    1.5358110046e+02
    2.2899913788e+01    1.5358110046e+02
    2.2999891281e+01    1.5358110046e+02
    2.3099870682e+01    1.5358110046e+02
    2.3200031281e+01    1.5358110046e+02
    2.3300033569e+01    1.5358110046e+02
    2.3399997711e+01    1.5358110046e+02
    2.3499977112e+01    1.5358110046e+02
    2.3599956512e+01    1.5358110046e+02
    2.3699935913e+01    1.5358110046e+02
    2.3799913406e+01    1.5358110046e+02
    2.3899892807e+01    1.5358110046e+02
    2.4000053406e+01    1.5358110046e+02
    2.4100032806e+01    1.5358110046e+02
    2.4200010300e+01    1.5358110046e+02
    2.4299989700e+01    1.5358110046e+02
    2.4399969101e+01    1.5358110046e+02
    2.4499948502e+01    1.5358110046e+02
    2.4599925995e+01    1.5358110046e+02
    2.4699905396e+01    1.5358110046e+02
    2.4799894333e+01    1.5358110046e+02
    2.4900014877e+01    1.5358110046e+02
    2.4999992371e+01    1.5358110046e+02
    2.5099971771e+01    1.5358110046e+02
    2.5199951172e+01    1.5358110046e+02
    2.5300046921e+01    1.5358110046e+02
    2.5400009155e+01    1.5358110046e+02
    2.5499988556e+01    1.5358110046e+02
    2.5599939346e+01    1.5358110046e+02
    2.5699916840e+01    1.5358110046e+02
    2.5799896240e+01    1.5358110046e+02
    2.5900056839e+01    1.5358110046e+02
    2.5999889374e+01    1.5358110046e+02
    2.6100048065e+01    1.5358110046e+02
    2.6200027466e+01    1.5358110046e+02
    2.6299972534e+01    1.5358110046e+02
    2.6399951935e+01    1.5358110046e+02
    2.6499929428e+01    1.5358110046e+02
    2.6599908829e+01    1.5358110046e+02
    2.6700002670e+01    1.5358110046e+02
    2.6799957275e+01    1.5358110046e+02
    2.6899894714e+01    1.5358110046e+02
    2.7000055313e+01    1.5358110046e+02
    2.7100034714e+01    1.5358110046e+02
    2.7200012207e+01    1.5358110046e+02
    2.7299900055e+01    1.5358110046e+02
    2.7400028229e+01    1.5358110046e+02
    2.7500005722e+01    1.5358110046e+02
    2.7599899292e+01    1.5358110046e+02
    2.7700059891e+01    1.5358110046e+02
    2.7799909592e+01    1.5358110046e+02
    2.7899888992e+01    1.5358110046e+02
    2.7999937057e+01    1.5358110046e+02
    2.8099987030e+01    1.5358110046e+02
    2.8200065613e+01    1.5358110046e+02
    2.8300045013e+01    1.5358110046e+02
    2.8400022507e+01    1.5358110046e+02
    2.8499893188e+01    1.5358110046e+02
    2.8600055695e+01    1.5358110046e+02
    2.8700033188e+01    1.5358110046e+02
    2.8799894333e+01    1.5358110046e+02
    2.8900005341e+01    1.5358110046e+02
    2.8999940872e+01    1.5358110046e+02
    2.9099918365e+01    1.5358110046e+02
    2.9199945450e+01    1.5358110046e+02
    2.9300001144e+01    1.5358110046e+02
    2.9399980545e+01    1.5358110046e+02
    2.9499975204e+01    1.5358110046e+02
    2.9600055695e+01    1.5358110046e+02
    2.9699905396e+01    1.5358110046e+02
    2.9800067902e+01    1.5358110046e+02
    2.9899921417e+01    1.5358110046e+02
    2.9999914169e+01    1.5358110046e+02
    3.0100076675e+01    1.5358110046e+02
    3.0199974060e+01    1.5358110046e+02
    3.0299974442e+01    1.5358110046e+02
    3.0399929047e+01    1.5358110046e+02
    3.0499931335e+01    1.5358110046e+02
    3.0600036621e+01    1.5358110046e+02
    3.0699972153e+01    1.5358110046e+02
    3.0800075531e+01    1.5358110046e+02
    3.0900054932e+01    1.5358110046e+02
    3.0999954224e+01    1.5358110046e+02
    3.1100013733e+01    1.5358110046e+02
    3.1200025558e+01    1.5358110046e+02
    3.1299922943e+01    1.5358110046e+02
    3.1400070190e+01    1.5358110046e+02
    3.1500078201e+01    1.5358110046e+02
    3.1600004196e+01    1.5358110046e+02
    3.1699998856e+01    1.5358110046e+02
    3.1800037384e+01    1.5358110046e+02
    3.1899921417e+01    1.5358110046e+02
    3.1999902725e+01    1.5358110046e+02
    3.2099964142e+01    1.5358110046e+02
    3.2200077057e+01    1.5358110046e+02
    3.2299949646e+01    1.5358110046e+02
    3.2399917603e+01    1.5358110046e+02
    3.2500072479e+01    1.5358110046e+02
    3.2599998474e+01    1.5358110046e+02
    3.2699977875e+01    1.5358110046e+02
    3.2799968719e+01    1.5358110046e+02
    3.2900005341e+01    1.5358110046e+02
    3.2999874115e+01    1.5358110046e+02
    3.3100028992e+01    1.5358110046e+02
    3.3200046539e+01    1.5358110046e+02
    3.3300052643e+01    1.5358110046e+02
    3.3399971008e+01    1.5358110046e+02
    3.3499958038e+01    1.5358110046e+02
    3.3599884033e+01    1.5358110046e+02
    3.3700042725e+01    1.5358110046e+02
    3.3800022125e+01    1.5358110046e+02
    3.3899982452e+01    1.5358110046e+02
    3.3999961853e+01    1.5358110046e+02
    3.4099906921e+01    1.5358110046e+02
    3.4199863434e+01    1.5358110046e+02
    3.4299995422e+01    1.5358110046e+02
    3.4399978638e+01    1.5358110046e+02
    3.4499958038e+01    1.5358110046e+02
    3.4599891663e+01    1.5358110046e+02
    3.4699867249e+01    1.5358110046e+02
    3.4799888611e+01    1.5358110046e+02
    3.4899871826e+01    1.5358110046e+02
    3.5000011444e+01    1.5358110046e+02
    3.5100013733e+01    1.5358110046e+02
    3.5199993134e+01    1.5358110046e+02
    3.5299972534e+01    1.5358110046e+02
    3.5399955750e+01    1.5358110046e+02
    3.5499889374e+01    1.5358110046e+02
    3.5599948883e+01    1.5358110046e+02
    3.5699882507e+01    1.5358110046e+02
    3.5799861908e+01    1.5358110046e+02
    3.5900005341e+01    1.5358110046e+02
    3.5999912262e+01    1.5358110046e+02
    3.6099929810e+01    1.5358110046e+02
    3.6199874878e+01    1.5358110046e+02
    3.6299968719e+01    1.5358110046e+02
    3.6399852753e+01    1.5358210754e+02
    3.6499935150e+01    1.5358210754e+02
    3.6599956512e+01    1.5358210754e+02
    3.6699970245e+01    1.5358210754e+02
    3.6799850464e+01    1.5358210754e+02
    3.6899940491e+01    1.5358210754e+02
    3.6999992371e+01    1.5358210754e+02
    3.7100002289e+01    1.5358210754e+02
    3.7199901581e+01    1.5358210754e+02
    3.7299877167e+01    1.5358210754e+02
    3.7399986267e+01    1.5358210754e+02
    3.7499965668e+01    1.5358210754e+02
    3.7599887848e+01    1.5358210754e+02
    3.7699951172e+01    1.5358210754e+02
    3.7799861908e+01    1.5358210754e+02
    3.7899845123e+01    1.5358210754e+02
    3.7999931335e+01    1.5358210754e+02
    3.8099819183e+01    1.5358210754e+02
    3.8199821472e+01    1.5358210754e+02
    3.8299938202e+01    1.5358110046e+02
    3.8399887085e+01    1.5358110046e+02
    3.8499931335e+01    1.5358110046e+02
    3.8599960327e+01    1.5358110046e+02
    3.8699878693e+01    1.5358110046e+02
    3.8799839020e+01    1.5358110046e+02
    3.8899787903e+01    1.5358110046e+02
    3.8999862671e+01    1.5358110046e+02
    3.9099895477e+01    1.5358110046e+02
    3.9199871063e+01    1.5358110046e+02
    3.9299812317e+01    1.5358110046e+02
    3.9399883270e+01    1.5358110046e+02
    3.9499889374e+01    1.5358110046e+02
    3.9599948883e+01    1.5358110046e+02
    3.9699947357e+01    1.5358110046e+02
    3.9799804688e+01    1.5358110046e+02
    3.9899841309e+01    1.5358110046e+02
    3.9999847412e+01    1.5358110046e+02
    4.0099864960e+01    1.5358110046e+02
    4.0199844360e+01    1.5358110046e+02
    4.0299919128e+01    1.5358110046e+02
    4.0399860382e+01    1.5358110046e+02
    4.0499847412e+01    1.5358009338e+02
    4.0599826813e+01    1.5358009338e+02
    4.0699848175e+01    1.5358009338e+02
    4.0799789429e+01    1.5358009338e+02
    4.0899753571e+01    1.5358009338e+02
    4.0999816895e+01    1.5358009338e+02
    4.1099906921e+01    1.5358009338e+02
    4.1199794769e+01    1.5358009338e+02
    4.1299789429e+01    1.5358009338e+02
    4.1399856567e+01    1.5358009338e+02
    4.1499874115e+01    1.5357910156e+02
    4.1599918365e+01    1.5357910156e+02
    4.1699871063e+01    1.5357910156e+02
    4.1799789429e+01    1.5357910156e+02
    4.1899768829e+01    1.5357910156e+02
    4.1999748230e+01    1.5357910156e+02
    4.2099876404e+01    1.5357910156e+02
    4.2199825287e+01    1.5357809448e+02
    4.2299831390e+01    1.5357809448e+02
    4.2399902344e+01    1.5357809448e+02
    4.2499835968e+01    1.5357809448e+02
    4.2599895477e+01    1.5357809448e+02
    4.2699897766e+01    1.5357710266e+02
    4.2799755096e+01    1.5357710266e+02
    4.2899871826e+01    1.5357710266e+02
    4.2999797821e+01    1.5357710266e+02
    4.3099773407e+01    1.5357710266e+02
    4.3199787140e+01    1.5357609558e+02
    4.3299762726e+01    1.5357609558e+02
    4.3399868011e+01    1.5357609558e+02
    4.3499851227e+01    1.5357609558e+02
    4.3599819183e+01    1.5357510376e+02
    4.3699810028e+01    1.5357510376e+02
    4.3799842834e+01    1.5357510376e+02
    4.3899837494e+01    1.5357510376e+02
    4.3999881744e+01    1.5357409668e+02
    4.4099723816e+01    1.5357409668e+02
    4.4199779510e+01    1.5357409668e+02
    4.4299884796e+01    1.5357409668e+02
    4.4399761200e+01    1.5357310486e+02
    4.4499713898e+01    1.5357310486e+02
    4.4599727631e+01    1.5357310486e+02
    4.4699817657e+01    1.5357209778e+02
    4.4799774170e+01    1.5357209778e+02
    4.4899879456e+01    1.5357209778e+02
    4.4999774933e+01    1.5357110596e+02
    4.5099830627e+01    1.5357110596e+02
    4.5199764252e+01    1.5357110596e+02
    4.5299785614e+01    1.5357009888e+02
    4.5399765015e+01    1.5357009888e+02
    4.5499809265e+01    1.5356910706e+02
    4.5599861145e+01    1.5356910706e+02
    4.5699783325e+01    1.5356910706e+02
    4.5799854279e+01    1.5356809998e+02
    4.5899833679e+01    1.5356809998e+02
    4.5999687195e+01    1.5356709290e+02
    4.6099723816e+01    1.5356709290e+02
    4.6199859619e+01    1.5356709290e+02
    4.6299827576e+01    1.5356610107e+02
    4.6399806976e+01    1.5356610107e+02
    4.6499839783e+01    1.5356509399e+02
    4.6599693298e+01    1.5356509399e+02
    4.6699810028e+01    1.5356410217e+02
    4.6799777985e+01    1.5356410217e+02
    4.6899837494e+01    1.5356309509e+02
    4.6999725342e+01    1.5356309509e+02
    4.7099784851e+01    1.5356210327e+02
    4.7199775696e+01    1.5356210327e+02
    4.7299766541e+01    1.5356109619e+02
    4.7399726868e+01    1.5356109619e+02
    4.7499774933e+01    1.5356010437e+02
    4.7599731445e+01    1.5356010437e+02
    4.7699722290e+01    1.5355909729e+02
    4.7799648285e+01    1.5355909729e+02
    4.7899707794e+01    1.5355810547e+02
    4.7999797821e+01    1.5355709839e+02
    4.8099727631e+01    1.5355709839e+02
    4.8199733734e+01    1.5355610657e+02
    4.8299663544e+01    1.5355610657e+02
    4.8399677277e+01    1.5355509949e+02
    4.8499725342e+01    1.5355410767e+02
    4.8599727631e+01    1.5355410767e+02
    4.8699775696e+01    1.5355310059e+02
    4.8799686432e+01    1.5355310059e+02
    4.8899677277e+01    1.5355209351e+02
    4.8999771118e+01    1.5355110168e+02
    4.9099792480e+01    1.5355110168e+02
    4.9199817657e+01    1.5355009460e+02
    4.9299808502e+01    1.5354910278e+02
    4.9399662018e+01    1.5354809570e+02
    4.9499790192e+01    1.5354809570e+02
    4.9599681854e+01    1.5354710388e+02
    4.9699657440e+01    1.5354609680e+02
    4.9799659729e+01    1.5354609680e+02
    4.9899795532e+01    1.5354510498e+02
    4.9999782562e+01    1.5354409790e+02
    5.0099796295e+01    1.5354310608e+02
    5.0199726105e+01    1.5354310608e+02
    5.0299797058e+01    1.5354209900e+02
    5.0399623871e+01    1.5354110718e+02
    5.0499649048e+01    1.5354010010e+02
    5.0599761963e+01    1.5354010010e+02
    5.0699638367e+01    1.5353909302e+02
    5.0799739838e+01    1.5353810120e+02
    5.0899772644e+01    1.5353709412e+02
    5.0999698639e+01    1.5353610229e+02
    5.1099632263e+01    1.5353509521e+02
    5.1199668884e+01    1.5353509521e+02
    5.1299633026e+01    1.5353410339e+02
    5.1399646759e+01    1.5353309631e+02
    5.1499671936e+01    1.5353210449e+02
    5.1599651337e+01    1.5353109741e+02
    5.1699649811e+01    1.5353010559e+02
    5.1799671173e+01    1.5352909851e+02
    5.1899639130e+01    1.5352909851e+02
    5.1999626160e+01    1.5352810669e+02
    5.2099639893e+01    1.5352709961e+02
    5.2199745178e+01    1.5352610779e+02
    5.2299678802e+01    1.5352510071e+02
    5.2399589539e+01    1.5352409363e+02
    5.2499759674e+01    1.5352310181e+02
    5.2599597931e+01    1.5352209473e+02
    5.2699668884e+01    1.5352110291e+02
    5.2799655914e+01    1.5352009583e+02
    5.2899662018e+01    1.5351910400e+02
    5.2999603271e+01    1.5351809692e+02
    5.3099624634e+01    1.5351710510e+02
    5.3199623108e+01    1.5351609802e+02
    5.3299636841e+01    1.5351510620e+02
    5.3399600983e+01    1.5351409912e+02
    5.3499710083e+01    1.5351310730e+02
    5.3599742889e+01    1.5351210022e+02
    5.3699676514e+01    1.5351109314e+02
    5.3799709320e+01    1.5351010132e+02
    5.3899555206e+01    1.5350909424e+02
    5.3999679565e+01    1.5350810242e+02
    5.4099689484e+01    1.5350709534e+02
    5.4199588776e+01    1.5350509644e+02
    5.4299640656e+01    1.5350410461e+02
    5.4399639130e+01    1.5350309753e+02
    5.4499584198e+01    1.5350210571e+02
    5.4599617004e+01    1.5350109863e+02
    5.4699565887e+01    1.5350010681e+02
    5.4799556732e+01    1.5349909973e+02
    5.4899669647e+01    1.5349710083e+02
    5.4999721527e+01    1.5349609375e+02
    5.5099643707e+01    1.5349510193e+02
    5.5199588776e+01    1.5349409485e+02
    5.5299591064e+01    1.5349310303e+02
    5.5399711609e+01    1.5349110413e+02
    5.5499553680e+01    1.5349009705e+02
    5.5599632263e+01    1.5348910522e+02
    5.5699630737e+01    1.5348809814e+02
    5.5799583435e+01    1.5348609924e+02
    5.5899547577e+01    1.5348510742e+02
    5.5999694824e+01    1.5348410034e+02
    5.6099651337e+01    1.5348309326e+02
    5.6199661255e+01    1.5348109436e+02
    5.6299644470e+01    1.5348010254e+02
    5.6399620056e+01    1.5347909546e+02
    5.6499561310e+01    1.5347709656e+02
    5.6599605560e+01    1.5347610474e+02
    5.6699676514e+01    1.5347410583e+02
    5.6799694061e+01    1.5347309875e+02
    5.6899581909e+01    1.5347210693e+02
    5.6999664307e+01    1.5347010803e+02
    5.7099521637e+01    1.5346910095e+02
    5.7199573517e+01    1.5346710205e+02
    5.7299652100e+01    1.5346609497e+02
    5.7399566650e+01    1.5346510315e+02
    5.7499534607e+01    1.5346310425e+02
    5.7599613190e+01    1.5346209717e+02
    5.7699516296e+01    1.5346009827e+02
    5.7799560547e+01    1.5345910645e+02
    5.7899559021e+01    1.5345710754e+02
    5.7999599457e+01    1.5345509338e+02
    5.8099552155e+01    1.5345410156e+02
    5.8199630737e+01    1.5345210266e+02
    5.8299621582e+01    1.5345109558e+02
    5.8399654388e+01    1.5344909668e+02
    5.8499538422e+01    1.5344709778e+02
    5.8599605560e+01    1.5344610596e+02
    5.8699657440e+01    1.5344410706e+02
    5.8799510956e+01    1.5344209290e+02
    5.8899635315e+01    1.5344110107e+02
    5.8999519348e+01    1.5343910217e+02
    5.9099487305e+01    1.5343710327e+02
    5.9199577332e+01    1.5343609619e+02
    5.9299533844e+01    1.5343409729e+02
    5.9399608612e+01    1.5343209839e+02
    5.9499652863e+01    1.5343009949e+02
    5.9599491119e+01    1.5342810059e+02
    5.9699481964e+01    1.5342709351e+02
    5.9799549103e+01    1.5342509460e+02
    5.9899513245e+01    1.5342309570e+02
    5.9999534607e+01    1.5342109680e+02
    6.0099594116e+01    1.5341909790e+02
    6.0199577332e+01    1.5341709900e+02
    6.0299568176e+01    1.5341510010e+02
    6.0399543762e+01    1.5341310120e+02
    6.0499511719e+01    1.5341110229e+02
    6.0599643707e+01    1.5340910339e+02
    6.0699474335e+01    1.5340710449e+02
    6.0799583435e+01    1.5340510559e+02
    6.0899547577e+01    1.5340310669e+02
    6.0999534607e+01    1.5340110779e+02
    6.1099555969e+01    1.5339810181e+02
    6.1199542999e+01    1.5339610291e+02
    6.1299617767e+01    1.5339410400e+02
    6.1399463654e+01    1.5339210510e+02
    6.1499565125e+01    1.5339010620e+02
    6.1599567413e+01    1.5338710022e+02
    6.1699474335e+01    1.5338510132e+02
    6.1799495697e+01    1.5338310242e+02
    6.1899528503e+01    1.5338009644e+02
    6.1999446869e+01    1.5337809753e+02
    6.2099456787e+01    1.5337510681e+02
    6.2199558258e+01    1.5337310791e+02
    6.2299568176e+01    1.5337010193e+02
    6.2399612427e+01    1.5336810303e+02
    6.2499542236e+01    1.5336509705e+02
    6.2599494934e+01    1.5336309814e+02
    6.2699443817e+01    1.5336010742e+02
    6.2799594879e+01    1.5335710144e+02
    6.2899475098e+01    1.5335510254e+02
    6.2999519348e+01    1.5335209656e+02
    6.3099605560e+01    1.5334910583e+02
    6.3199459076e+01    1.5334609985e+02
    6.3299411774e+01    1.5334410095e+02
    6.3399559021e+01    1.5334109497e+02
    6.3499523163e+01    1.5333810425e+02
    6.3599521637e+01    1.5333509827e+02
    6.3699451447e+01    1.5333210754e+02
    6.3799533844e+01    1.5332910156e+02
    6.3899539948e+01    1.5332609558e+02
    6.3999584198e+01    1.5332310486e+02
    6.4099525452e+01    1.5332009888e+02
    6.4199478149e+01    1.5331610107e+02
    6.4299552917e+01    1.5331309509e+02
    6.4399475098e+01    1.5331010437e+02
    6.4499519348e+01    1.5330709839e+02
    6.4599403381e+01    1.5330310059e+02
    6.4699531555e+01    1.5330009460e+02
    6.4799514771e+01    1.5329609680e+02
    6.4899421692e+01    1.5329310608e+02
    6.4999511719e+01    1.5328909302e+02
    6.5099388123e+01    1.5328610229e+02
    6.5199470520e+01    1.5328210449e+02
    6.5299415588e+01    1.5327909851e+02
    6.5399490356e+01    1.5327510071e+02
    6.5499557495e+01    1.5327110291e+02
    6.5599426270e+01    1.5326710510e+02
    6.5699501038e+01    1.5326310730e+02
    6.5799392700e+01    1.5326010132e+02
    6.5899444580e+01    1.5325610352e+02
    6.5999542236e+01    1.5325210571e+02
    6.6099433899e+01    1.5324810791e+02
    6.6199401855e+01    1.5324310303e+02
    6.6299415588e+01    1.5323910522e+02
    6.6399406433e+01    1.5323510742e+02
    6.6499473572e+01    1.5323109436e+02
    6.6599479675e+01    1.5322610474e+02
    6.6699409485e+01    1.5322210693e+02
    6.6799362183e+01    1.5321809387e+02
    6.6899520874e+01    1.5321310425e+02
    6.6999542236e+01    1.5320910645e+02
    6.7099487305e+01    1.5320410156e+02
    6.7199432373e+01    1.5319909668e+02
    6.7299407959e+01    1.5319509888e+02
    6.7399467468e+01    1.5319009399e+02
    6.7499427795e+01    1.5318510437e+02
    6.7599449158e+01    1.5318009949e+02
    6.7699348450e+01    1.5317509460e+02
    6.7799346924e+01    1.5317010498e+02
    6.7899383545e+01    1.5316510010e+02
    6.7999496460e+01    1.5316009521e+02
    6.8099494934e+01    1.5315510559e+02
    6.8199501038e+01    1.5315010071e+02
    6.8299461365e+01    1.5314410400e+02
    6.8399467468e+01    1.5313909912e+02
    6.8499366760e+01    1.5313409424e+02
    6.8599411011e+01    1.5312809753e+02
    6.8699485779e+01    1.5312210083e+02
    6.8799461365e+01    1.5311709595e+02
    6.8899467468e+01    1.5311109924e+02
    6.8999481201e+01    1.5310510254e+02
    6.9099441528e+01    1.5309910583e+02
    6.9199386597e+01    1.5309309387e+02
    6.9299339294e+01    1.5308709717e+02
    6.9399459839e+01    1.5308110046e+02
    6.9499504089e+01    1.5307510376e+02
    6.9599388123e+01    1.5306910706e+02
    6.9699447632e+01    1.5306309509e+02
    6.9799484253e+01    1.5305610657e+02
    6.9899360657e+01    1.5305009460e+02
    6.9999504089e+01    1.5304310608e+02
    7.0099334717e+01    1.5303610229e+02
    7.0199325562e+01    1.5303010559e+02
    7.0299339294e+01    1.5302310181e+02
    7.0399330139e+01    1.5301609802e+02
    7.0499435425e+01    1.5300909424e+02
    7.0599441528e+01    1.5300210571e+02
    7.0699386597e+01    1.5299510193e+02
    7.0799461365e+01    1.5298809814e+02
    7.0899307251e+01    1.5298010254e+02
    7.0999343872e+01    1.5297309875e+02
    7.1099433899e+01    1.5296510315e+02
    7.1199310303e+01    1.5295809937e+02
    7.1299446106e+01    1.5295010376e+02
    7.1399353027e+01    1.5294209290e+02
    7.1499382019e+01    1.5293409729e+02
    7.1599472046e+01    1.5292610168e+02
    7.1699440002e+01    1.5291810608e+02
    7.1799453735e+01    1.5291009521e+02
    7.1899391174e+01    1.5290110779e+02
    7.1999305725e+01    1.5289309692e+02
    7.2099365234e+01    1.5288409424e+02
    7.2199279785e+01    1.5287609863e+02
    7.2299362183e+01    1.5286709595e+02
    7.2399421692e+01    1.5285809326e+02
    7.2499343872e+01    1.5284910583e+02
    7.2599281311e+01    1.5284010315e+02
    7.2699371338e+01    1.5283110046e+02
    7.2799430847e+01    1.5282209778e+02
    7.2899330139e+01    1.5281210327e+02
    7.2999328613e+01    1.5280310059e+02
    7.3099281311e+01    1.5279310608e+02
    7.3199447632e+01    1.5278309631e+02
    7.3299385071e+01    1.5277310181e+02
    7.3399375916e+01    1.5276310730e+02
    7.3499298096e+01    1.5275309753e+02
    7.3599441528e+01    1.5274209595e+02
    7.3699272156e+01    1.5273210144e+02
    7.3799293518e+01    1.5272109985e+02
    7.3899391174e+01    1.5271110535e+02
    7.3999343872e+01    1.5270010376e+02
    7.4099380493e+01    1.5268910217e+02
    7.4199317932e+01    1.5267810059e+02
    7.4299346924e+01    1.5266610718e+02
    7.4399353027e+01    1.5265510559e+02
    7.4499252319e+01    1.5264309692e+02
    7.4599349976e+01    1.5263110352e+02
    7.4699424744e+01    1.5262010193e+02
    7.4799247742e+01    1.5260809326e+02
    7.4899391174e+01    1.5259510803e+02
    7.4999412537e+01    1.5258309937e+02
    7.5099334717e+01    1.5257009888e+02
    7.5199378967e+01    1.5255810547e+02
    7.5299324036e+01    1.5254510498e+02
    7.5399322510e+01    1.5253210449e+02
    7.5499290466e+01    1.5251910400e+02
    7.5599227905e+01    1.5250509644e+02
    7.5699249268e+01    1.5249209595e+02
    7.5799346924e+01    1.5247810364e+02
    7.5899307251e+01    1.5246409607e+02
    7.5999336243e+01    1.5245010376e+02
    7.6099281311e+01    1.5243609619e+02
    7.6199226379e+01    1.5242109680e+02
    7.6299293518e+01    1.5240609741e+02
    7.6399330139e+01    1.5239109802e+02
    7.6499252319e+01    1.5237609863e+02
    7.6599395752e+01    1.5236109924e+02
    7.6699302673e+01    1.5234609985e+02
    7.6799316406e+01    1.5233009338e+02
    7.6899299622e+01    1.5231410217e+02
    7.6999275208e+01    1.5229809570e+02
    7.7099327087e+01    1.5228210449e+02
    7.7199363708e+01    1.5226510620e+02
    7.7299240112e+01    1.5224810791e+02
    7.7399230957e+01    1.5223109436e+02
    7.7499382019e+01    1.5221409607e+02
    7.7599212646e+01    1.5219610596e+02
    7.7699317932e+01    1.5217910767e+02
    7.7799308777e+01    1.5216110229e+02
    7.7899299622e+01    1.5214309692e+02
    7.7999259949e+01    1.5212409973e+02
    7.8099372864e+01    1.5210510254e+02
    7.8199226379e+01    1.5208610535e+02
    7.8299278259e+01    1.5206709290e+02
    7.8399345398e+01    1.5204809570e+02
    7.8499374390e+01    1.5202810669e+02
    7.8599197388e+01    1.5200810242e+02
    7.8699287415e+01    1.5198710632e+02
    7.8799240112e+01    1.5196710205e+02
    7.8899223328e+01    1.5194610596e+02
    7.8999237061e+01    1.5192509460e+02
    7.9099281311e+01    1.5190310669e+02
    7.9199264526e+01    1.5188110352e+02
    7.9299247742e+01    1.5185910034e+02
    7.9399192810e+01    1.5183709717e+02
    7.9499221802e+01    1.5181509399e+02
    7.9599281311e+01    1.5179209900e+02
    7.9699272156e+01    1.5176910400e+02
    7.9799339294e+01    1.5174510193e+02
    7.9899269104e+01    1.5172210693e+02
    7.9999191284e+01    1.5169810486e+02
    8.0099250793e+01    1.5167309570e+02
    8.0199195862e+01    1.5164909363e+02
    8.0299194336e+01    1.5162409973e+02
    8.0399238586e+01    1.5159910583e+02
    8.0499176025e+01    1.5157310486e+02
    8.0599311829e+01    1.5154710388e+02
    8.0699165344e+01    1.5152110291e+02
    8.0799263000e+01    1.5149510193e+02
    8.0899192810e+01    1.5146809387e+02
    8.0999336243e+01    1.5144110107e+02
    8.1099151611e+01    1.5141310120e+02
    8.1199150085e+01    1.5138510132e+02
    8.1299186707e+01    1.5135710144e+02
    8.1399322510e+01    1.5132910156e+02
    8.1499267578e+01    1.5130009460e+02
    8.1599235535e+01    1.5127110291e+02
    8.1699295044e+01    1.5124110413e+02
    8.1799293518e+01    1.5121110535e+02
    8.1899299622e+01    1.5118110657e+02
    8.1999244690e+01    1.5115110779e+02
    8.2099273682e+01    1.5112010193e+02
    8.2199211121e+01    1.5108909607e+02
    8.2299263000e+01    1.5105810547e+02
    8.2399169922e+01    1.5102610779e+02
    8.2499214172e+01    1.5099409485e+02
    8.2599212646e+01    1.5096209717e+02
    8.2699279785e+01    1.5092910767e+02
    8.2799293518e+01    1.5089610291e+02
    8.2899238586e+01    1.5086210632e+02
    8.2999275208e+01    1.5082809448e+02
    8.3099128723e+01    1.5079409790e+02
    8.3199157715e+01    1.5076010132e+02
    8.3299125671e+01    1.5072509766e+02
    8.3399238586e+01    1.5068910217e+02
    8.3499153137e+01    1.5065310669e+02
    8.3599197388e+01    1.5061709595e+02
    8.3699272156e+01    1.5058009338e+02
    8.3799102783e+01    1.5054310608e+02
    8.3899124146e+01    1.5050610352e+02
    8.3999214172e+01    1.5046809387e+02
    8.4099159241e+01    1.5043009949e+02
    8.4199150085e+01    1.5039109802e+02
    8.4299255371e+01    1.5035209656e+02
    8.4399101257e+01    1.5031309509e+02
    8.4499107361e+01    1.5027310181e+02
    8.4599250793e+01    1.5023210144e+02
    8.4699256897e+01    1.5019209290e+02
    8.4799224854e+01    1.5015110779e+02
    8.4899223328e+01    1.5010910034e+02
    8.4999206543e+01    1.5006709290e+02
    8.5099128723e+01    1.5002510071e+02
    8.5199150085e+01    1.4998210144e+02
    8.5299095154e+01    1.4993910217e+02
    8.5399192810e+01    1.4989509583e+02
    8.5499191284e+01    1.4985110474e+02
    8.5599205017e+01    1.4980610657e+02
    8.5699157715e+01    1.4976109314e+02
    8.5799095154e+01    1.4971609497e+02
    8.5899246216e+01    1.4966909790e+02
    8.5999191284e+01    1.4962310791e+02
    8.6099220276e+01    1.4957609558e+02
    8.6199089050e+01    1.4952810669e+02
    8.6299217224e+01    1.4948010254e+02
    8.6399238586e+01    1.4943110657e+02
    8.6499160767e+01    1.4938209534e+02
    8.6599182129e+01    1.4933309937e+02
    8.6699188232e+01    1.4928210449e+02
    8.6799110413e+01    1.4923210144e+02
    8.6899101257e+01    1.4918110657e+02
    8.6999191284e+01    1.4912910461e+02
    8.7099159241e+01    1.4907710266e+02
    8.7199157715e+01    1.4902409363e+02
    8.7299110413e+01    1.4897109985e+02
    8.7399154663e+01    1.4891709900e+02
    8.7499229431e+01    1.4886309814e+02
    8.7599128723e+01    1.4880810547e+02
    8.7699188232e+01    1.4875210571e+02
    8.7799064636e+01    1.4869610596e+02
    8.7899070740e+01    1.4863909912e+02
    8.7999122620e+01    1.4858210754e+02
    8.8099159241e+01    1.4852409363e+02
    8.8199165344e+01    1.4846510315e+02
    8.8299118042e+01    1.4840609741e+02
    8.8399032593e+01    1.4834609985e+02
    8.8499122620e+01    1.4828509521e+02
    8.8599128723e+01    1.4822410583e+02
    8.8699188232e+01    1.4816209412e+02
    8.8799118042e+01    1.4809910583e+02
    8.8899032593e+01    1.4803610229e+02
    8.8999153137e+01    1.4797210693e+02
    8.9099052429e+01    1.4790809631e+02
    8.9199134827e+01    1.4784309387e+02
    8.9299079895e+01    1.4777709961e+02
    8.9399177551e+01    1.4771009827e+02
    8.9499145508e+01    1.4764309692e+02
    8.9599090576e+01    1.4757510376e+02
    8.9699157715e+01    1.4750610352e+02
    8.9799018860e+01    1.4743710327e+02
    8.9899078369e+01    1.4736709595e+02
    8.9999183655e+01    1.4729609680e+02
    9.0099098206e+01    1.4722410583e+02
    9.0199127197e+01    1.4715209961e+02
    9.0299102783e+01    1.4707809448e+02
    9.0399101257e+01    1.4700410461e+02
    9.0499069214e+01    1.4692910767e+02
    9.0599182129e+01    1.4685409546e+02
    9.0699073792e+01    1.4677709961e+02
    9.0799018860e+01    1.4670010376e+02
    9.0899108887e+01    1.4662210083e+02
    9.0999076843e+01    1.4654309082e+02
    9.1099143982e+01    1.4646310425e+02
    9.1199012756e+01    1.4638310242e+02
    9.1299118042e+01    1.4630110168e+02
    9.1399162292e+01    1.4621910095e+02
    9.1499046326e+01    1.4613610840e+02
    9.1599029541e+01    1.4605209351e+02
    9.1699043274e+01    1.4596710205e+02
    9.1799110413e+01    1.4588110352e+02
    9.1899040222e+01    1.4579409790e+02
    9.1998985291e+01    1.4570610046e+02
    9.2099159241e+01    1.4561810303e+02
    9.2199096680e+01    1.4552810669e+02
    9.2299087524e+01    1.4543710327e+02
    9.2399154663e+01    1.4534609985e+02
    9.2499130249e+01    1.4525309753e+02
    9.2599159241e+01    1.4516009521e+02
    9.2699089050e+01    1.4506509399e+02
    9.2799064636e+01    1.4496910095e+02
    9.2899101257e+01    1.4487310791e+02
    9.2999107361e+01    1.4477510071e+02
    9.3098968506e+01    1.4467709351e+02
    9.3199089050e+01    1.4457710266e+02
    9.3299011230e+01    1.4447610474e+02
    9.3399131775e+01    1.4437409973e+02
    9.3499130249e+01    1.4427209473e+02
    9.3599021912e+01    1.4416809082e+02
    9.3699073792e+01    1.4406311035e+02
    9.3799064636e+01    1.4395709229e+02
    9.3898979187e+01    1.4385009766e+02
    9.3999092102e+01    1.4374209595e+02
    9.4098960876e+01    1.4363310242e+02
    9.4199020386e+01    1.4352209473e+02
    9.4299057007e+01    1.4341110229e+02
    9.4399078369e+01    1.4329809570e+02
    9.4498985291e+01    1.4318409729e+02
    9.4598953247e+01    1.4306909180e+02
    9.4698951721e+01    1.4295309448e+02
    9.4799095154e+01    1.4283609009e+02
    9.4899047852e+01    1.4271710205e+02
    9.4999023438e+01    1.4259710693e+02
    9.5099113464e+01    1.4247610474e+02
    9.5198982239e+01    1.4235409546e+02
    9.5299026489e+01    1.4223110962e+02
    9.5398956299e+01    1.4210610962e+02
    9.5498924255e+01    1.4198110962e+02
    9.5599044800e+01    1.4185409546e+02
    9.5699043274e+01    1.4172509766e+02
    9.5799049377e+01    1.4159609985e+02
    9.5899040222e+01    1.4146510315e+02
    9.5999092102e+01    1.4133309937e+02
    9.6098960876e+01    1.4120010376e+02
    9.6198951721e+01    1.4106610107e+02
    9.6298980713e+01    1.4093009949e+02
    9.6398971558e+01    1.4079309082e+02
    9.6498916626e+01    1.4065509033e+02
    9.6599067688e+01    1.4051510620e+02
    9.6698989868e+01    1.4037409973e+02
    9.6798934937e+01    1.4023210144e+02
    9.6898979187e+01    1.4008911133e+02
    9.6999046326e+01    1.3994409180e+02
    9.7099044800e+01    1.3979809570e+02
    9.7199020386e+01    1.3965109253e+02
    9.7299049377e+01    1.3950210571e+02
    9.7398963928e+01    1.3935211182e+02
    9.7498992920e+01    1.3920010376e+02
    9.7598976135e+01    1.3904809570e+02
    9.7699035645e+01    1.3889410400e+02
    9.7799026489e+01    1.3873809814e+02
    9.7898933411e+01    1.3858209229e+02
    9.7998893738e+01    1.3842410278e+02
    9.8099014282e+01    1.3826510620e+02
    9.8198966980e+01    1.3810409546e+02
    9.8298995972e+01    1.3794210815e+02
    9.8399063110e+01    1.3777909851e+02
    9.8499008179e+01    1.3761410522e+02
    9.8598922729e+01    1.3744909668e+02
    9.8699012756e+01    1.3728109741e+02
    9.8798919678e+01    1.3711309814e+02
    9.8898887634e+01    1.3694309998e+02
    9.8998947144e+01    1.3677110291e+02
    9.9098922729e+01    1.3659909058e+02
    9.9198905945e+01    1.3642510986e+02
    9.9299026489e+01    1.3624909973e+02
    9.9398887634e+01    1.3607308960e+02
    9.9498886108e+01    1.3589511108e+02
    9.9598937988e+01    1.3571510315e+02
    9.9698875427e+01    1.3553509521e+02
    9.9799011230e+01    1.3535211182e+02
    9.9898880005e+01    1.3516909790e+02
    9.9998916626e+01    1.3498510742e+02
    1.0009898376e+02    1.3479910278e+02
    1.0019901276e+02    1.3461109924e+02
    1.0029888153e+02    1.3442309570e+02
    1.0039897156e+02    1.3423309326e+02
    1.0049886322e+02    1.3404209900e+02
    1.0059887695e+02    1.3385009766e+02
    1.0069898987e+02    1.3365609741e+02
    1.0079895020e+02    1.3346109009e+02
    1.0089888000e+02    1.3326510620e+02
    1.0099902344e+02    1.3306710815e+02
    1.0109890747e+02    1.3286810303e+02
    1.0119895935e+02    1.3266809082e+02
    1.0129898071e+02    1.3246609497e+02
    1.0139884186e+02    1.3226409912e+02
    1.0149897766e+02    1.3206008911e+02
    1.0159896088e+02    1.3185510254e+02
    1.0169901276e+02    1.3164810181e+02
    1.0179888916e+02    1.3144009399e+02
    1.0189885712e+02    1.3123210144e+02
    1.0199887085e+02    1.3102110291e+02
    1.0209892273e+02    1.3081008911e+02
    1.0219895172e+02    1.3059710693e+02
    1.0229886627e+02    1.3038409424e+02
    1.0239884949e+02    1.3016909790e+02
    1.0249887848e+02    1.2995309448e+02
    1.0259882355e+02    1.2973609924e+02
    1.0269882965e+02    1.2951708984e+02
    1.0279894257e+02    1.2929710388e+02
    1.0289895630e+02    1.2907710266e+02
    1.0299897003e+02    1.2885510254e+02
    1.0309899139e+02    1.2863211060e+02
    1.0319895935e+02    1.2840811157e+02
    1.0329891968e+02    1.2818310547e+02
    1.0339891052e+02    1.2795709991e+02
    1.0349896240e+02    1.2772910309e+02
    1.0359893036e+02    1.2750109863e+02
    1.0369883728e+02    1.2727210236e+02
    1.0379885864e+02    1.2704109955e+02
    1.0389882660e+02    1.2681009674e+02
    1.0399883270e+02    1.2657810211e+02
    1.0409889221e+02    1.2634410095e+02
    1.0419880676e+02    1.2611009979e+02
    1.0429889679e+02    1.2587409973e+02
    1.0439891052e+02    1.2563809967e+02
    1.0449891663e+02    1.2540010071e+02
    1.0459883881e+02    1.2516210175e+02
    1.0469879913e+02    1.2492310333e+02
    1.0479891205e+02    1.2468309784e+02
    1.0489888000e+02    1.2444210052e+02
    1.0499891663e+02    1.2420010376e+02
    1.0509883881e+02    1.2395809937e+02
    1.0519883728e+02    1.2371510315e+02
    1.0529891968e+02    1.2347010040e+02
    1.0539893341e+02    1.2322509766e+02
    1.0549877930e+02    1.2298010254e+02
    1.0559877777e+02    1.2273410034e+02
    1.0569882202e+02    1.2248609924e+02
    1.0579882050e+02    1.2223909760e+02
    1.0589894104e+02    1.2199009705e+02
    1.0599880981e+02    1.2174110413e+02
    1.0609880066e+02    1.2149110413e+02
    1.0619885254e+02    1.2124110413e+02
    1.0629882050e+02    1.2099009705e+02
    1.0639891052e+02    1.2073809814e+02
    1.0649893951e+02    1.2048609924e+02
    1.0659883881e+02    1.2023310089e+02
    1.0669889069e+02    1.1998010254e+02
    1.0679881287e+02    1.1972609711e+02
    1.0689884186e+02    1.1947209930e+02
    1.0699884033e+02    1.1921710205e+02
    1.0709880829e+02    1.1896209717e+02
    1.0719886780e+02    1.1870639801e+02
    1.0729879761e+02    1.1845050049e+02
    1.0739878845e+02    1.1819409943e+02
    1.0749883270e+02    1.1793730164e+02
    1.0759886169e+02    1.1768000031e+02
    1.0769876099e+02    1.1742279816e+02
    1.0779891968e+02    1.1716470337e+02
    1.0789875793e+02    1.1690699768e+02
    1.0799877167e+02    1.1664869690e+02
    1.0809886169e+02    1.1638980103e+02
    1.0819877625e+02    1.1613120270e+02
    1.0829888916e+02    1.1587190247e+02
    1.0839885712e+02    1.1561280060e+02
    1.0849880981e+02    1.1535350037e+02
    1.0859886169e+02    1.1509370422e+02
    1.0869876099e+02    1.1483429718e+02
    1.0879885864e+02    1.1457409668e+02
    1.0889885712e+02    1.1431410217e+02
    1.0899883270e+02    1.1405410004e+02
    1.0909889984e+02    1.1379370117e+02
    1.0919877625e+02    1.1353379822e+02
    1.0929888153e+02    1.1327320099e+02
    1.0939888763e+02    1.1301280212e+02
    1.0949877167e+02    1.1275270081e+02
    1.0959887695e+02    1.1249210358e+02
    1.0969872284e+02    1.1223210144e+02
    1.0979878235e+02    1.1197150421e+02
    1.0989871979e+02    1.1171130371e+02
    1.0999873352e+02    1.1145100403e+02
    1.1009877777e+02    1.1119059753e+02
    1.1019876099e+02    1.1093039703e+02
    1.1029882812e+02    1.1067009735e+02
    1.1039881897e+02    1.1041010284e+02
    1.1049880219e+02    1.1015029907e+02
    1.1059879303e+02    1.0989050293e+02
    1.1069875336e+02    1.0963089752e+02
    1.1079875183e+02    1.0937129974e+02
    1.1089877319e+02    1.0911190033e+02
    1.1099881744e+02    1.0885250092e+02
    1.1109886169e+02    1.0859329987e+02
    1.1119877625e+02    1.0833460236e+02
    1.1129875183e+02    1.0807600403e+02
    1.1139875793e+02    1.0781749725e+02
    1.1149874878e+02    1.0755920410e+02
    1.1159883881e+02    1.0730090332e+02
    1.1169882202e+02    1.0704319763e+02
    1.1179873657e+02    1.0678579712e+02
    1.1189868164e+02    1.0652870178e+02
    1.1199877167e+02    1.0627169800e+02
    1.1209867859e+02    1.0601540375e+02
    1.1219869995e+02    1.0575920105e+02
    1.1229878235e+02    1.0550330353e+02
    1.1239877319e+02    1.0524800110e+02
    1.1249881744e+02    1.0499289703e+02
    1.1259880829e+02    1.0473830414e+02
    1.1269880676e+02    1.0448410034e+02
    1.1279876709e+02    1.0423040009e+02
    1.1289871216e+02    1.0397720337e+02
    1.1299874115e+02    1.0372409821e+02
    1.1309873199e+02    1.0347160339e+02
    1.1319876099e+02    1.0321929932e+02
    1.1329876709e+02    1.0296759796e+02
    1.1339871979e+02    1.0271640015e+02
    1.1349874878e+02    1.0246549988e+02
    1.1359870148e+02    1.0221510315e+02
    1.1369877625e+02    1.0196479797e+02
    1.1379875946e+02    1.0171500397e+02
    1.1389868927e+02    1.0146540070e+02
    1.1399864960e+02    1.0121590424e+02
    1.1409873199e+02    1.0096610260e+02
    1.1419864655e+02    1.0071669769e+02
    1.1429869843e+02    1.0046690369e+02
    1.1439881134e+02    1.0021710205e+02
    1.1449880219e+02    9.9967597961e+01
    1.1459864044e+02    9.9718597412e+01
    1.1469867706e+02    9.9469299316e+01
    1.1479863739e+02    9.9220497131e+01
    1.1489878082e+02    9.8971702576e+01
    1.1499873352e+02    9.8723701477e+01
    1.1509877014e+02    9.8476097107e+01
    1.1519870758e+02    9.8229301453e+01
    1.1529865265e+02    9.7983001709e+01
    1.1539878845e+02    9.7736900330e+01
    1.1549873352e+02    9.7491897583e+01
    1.1559879303e+02    9.7247200012e+01
    1.1569866180e+02    9.7003700256e+01
    1.1579869843e+02    9.6760398865e+01
    1.1589862061e+02    9.6517997742e+01
    1.1599880219e+02    9.6275497437e+01
    1.1609874725e+02    9.6033897400e+01
    1.1619866943e+02    9.5792701721e+01
    1.1629875183e+02    9.5551300049e+01
    1.1639865875e+02    9.5310501099e+01
    1.1649861908e+02    9.5069702148e+01
    1.1659867859e+02    9.4828598022e+01
    1.1669873047e+02    9.4587402344e+01
    1.1679862976e+02    9.4346702576e+01
    1.1689875793e+02    9.4105300903e+01
    1.1699868011e+02    9.3864501953e+01
    1.1709873962e+02    9.3623497009e+01
    1.1719870758e+02    9.3383003235e+01
    1.1729875946e+02    9.3142402649e+01
    1.1739871216e+02    9.2902397156e+01
    1.1749874115e+02    9.2662597656e+01
    1.1759867859e+02    9.2423500061e+01
    1.1769863892e+02    9.2184700012e+01
    1.1779875946e+02    9.1946197510e+01
    1.1789865875e+02    9.1708602905e+01
    1.1799871826e+02    9.1471199036e+01
    1.1809874725e+02    9.1234397888e+01
    1.1819860077e+02    9.0998497009e+01
    1.1829866028e+02    9.0762397766e+01
    1.1839859009e+02    9.0526901245e+01
    1.1849867249e+02    9.0291297913e+01
    1.1859863281e+02    9.0056098938e+01
    1.1869863129e+02    8.9820899963e+01
    1.1879866028e+02    8.9585601807e+01
    1.1889869690e+02    8.9350303650e+01
    1.1899873352e+02    8.9114898682e+01
    1.1909863281e+02    8.8879798889e+01
    1.1919863129e+02    8.8644401550e+01
    1.1929865265e+02    8.8408897400e+01
    1.1939871979e+02    8.8173301697e+01
    1.1949868774e+02    8.7937896729e+01
    1.1959867859e+02    8.7702499390e+01
    1.1969863129e+02    8.7467300415e+01
    1.1979872131e+02    8.7231903076e+01
    1.1989859772e+02    8.6997100830e+01
    1.1999855042e+02    8.6762397766e+01
    1.2009873199e+02    8.6527297974e+01
    1.2019869995e+02    8.6292999268e+01
    1.2029872131e+02    8.6058700562e+01
    1.2039862061e+02    8.5824996948e+01
    1.2049871826e+02    8.5591003418e+01
    1.2059861755e+02    8.5357597351e+01
    1.2069856262e+02    8.5124099731e+01
    1.2079857635e+02    8.4890502930e+01
    1.2089865875e+02    8.4656600952e+01
    1.2099859619e+02    8.4423004150e+01
    1.2109870911e+02    8.4188796997e+01
    1.2119856262e+02    8.3955001831e+01
    1.2129866791e+02    8.3720298767e+01
    1.2139862823e+02    8.3485702515e+01
    1.2149861908e+02    8.3250602722e+01
    1.2159868622e+02    8.3015098572e+01
    1.2169869995e+02    8.2779403687e+01
    1.2179859161e+02    8.2543701172e+01
    1.2189866638e+02    8.2307296753e+01
    1.2199871063e+02    8.2070800781e+01
    1.2209858704e+02    8.1834396362e+01
    1.2219856262e+02    8.1597702026e+01
    1.2229868317e+02    8.1360702515e+01
    1.2239865875e+02    8.1123901367e+01
    1.2249854279e+02    8.0887496948e+01
    1.2259858704e+02    8.0650604248e+01
    1.2269857025e+02    8.0414001465e+01
    1.2279859161e+02    8.0177398682e+01
    1.2289852905e+02    7.9940902710e+01
    1.2299855804e+02    7.9704200745e+01
    1.2309851837e+02    7.9467498779e+01
    1.2319864655e+02    7.9230201721e+01
    1.2329865265e+02    7.8992996216e+01
    1.2339865875e+02    7.8755500793e+01
    1.2349861145e+02    7.8517799377e+01
    1.2359854889e+02    7.8279800415e+01
    1.2369851685e+02    7.8041198730e+01
    1.2379850769e+02    7.7802299500e+01
    1.2389852905e+02    7.7562805176e+01
    1.2399849701e+02    7.7322998047e+01
    1.2409861755e+02    7.7082504272e+01
    1.2419853210e+02    7.6842201233e+01
    1.2429857635e+02    7.6601303101e+01
    1.2439859772e+02    7.6360198975e+01
    1.2449849701e+02    7.6119300842e+01
    1.2459858704e+02    7.5877899170e+01
    1.2469857788e+02    7.5636596680e+01
    1.2479859161e+02    7.5395301819e+01
    1.2489859009e+02    7.5153999329e+01
    1.2499858856e+02    7.4912796021e+01
    1.2509864807e+02    7.4671401978e+01
    1.2519863129e+02    7.4430198669e+01
    1.2529850769e+02    7.4189201355e+01
    1.2539852905e+02    7.3947799683e+01
    1.2549848175e+02    7.3706405640e+01
    1.2559854889e+02    7.3464599609e+01
    1.2569860840e+02    7.3222503662e+01
    1.2579856110e+02    7.2980499268e+01
    1.2589846802e+02    7.2738296509e+01
    1.2599851227e+02    7.2495605469e+01
    1.2609861755e+02    7.2252395630e+01
    1.2619863129e+02    7.2009201050e+01
    1.2629857635e+02    7.1765899658e+01
    1.2639861298e+02    7.1522201538e+01
    1.2649851990e+02    7.1278594971e+01
    1.2659850311e+02    7.1034698486e+01
    1.2669863129e+02    7.0790199280e+01
    1.2679847717e+02    7.0546401978e+01
    1.2689852905e+02    7.0301895142e+01
    1.2699857330e+02    7.0057495117e+01
    1.2709855652e+02    6.9813095093e+01
    1.2719846344e+02    6.9569000244e+01
    1.2729859924e+02    6.9324295044e+01
    1.2739846802e+02    6.9080398560e+01
    1.2749849701e+02    6.8836105347e+01
    1.2759854126e+02    6.8591796875e+01
    1.2769860077e+02    6.8347702026e+01
    1.2779853058e+02    6.8103897095e+01
    1.2789853668e+02    6.7860000610e+01
    1.2799851990e+02    6.7616104126e+01
    1.2809844971e+02    6.7372497559e+01
    1.2819856262e+02    6.7128295898e+01
    1.2829849243e+02    6.6884704590e+01
    1.2839846802e+02    6.6640899658e+01
    1.2849848938e+02    6.6396896362e+01
    1.2859855652e+02    6.6152801514e+01
    1.2869860840e+02    6.5908699036e+01
    1.2879864502e+02    6.5664596558e+01
    1.2889857483e+02    6.5420799255e+01
    1.2899861145e+02    6.5176803589e+01
    1.2909854126e+02    6.4932998657e+01
    1.2919859314e+02    6.4689201355e+01
    1.2929867554e+02    6.4445297241e+01
    1.2939851379e+02    6.4202400208e+01
    1.2949861145e+02    6.3958999634e+01
    1.2959860229e+02    6.3716300964e+01
    1.2969868469e+02    6.3473701477e+01
    1.2979858398e+02    6.3231899261e+01
    1.2989866638e+02    6.2990200043e+01
    1.2999865723e+02    6.2749099731e+01
    1.3009860229e+02    6.2508602142e+01
    1.3019865417e+02    6.2268199921e+01
    1.3029856873e+02    6.2028701782e+01
    1.3039872742e+02    6.1789001465e+01
    1.3049862671e+02    6.1550399780e+01
    1.3059864807e+02    6.1312000275e+01
    1.3069868469e+02    6.1074199677e+01
    1.3079873657e+02    6.0836799622e+01
    1.3089874268e+02    6.0600002289e+01
    1.3099870300e+02    6.0363700867e+01
    1.3109878540e+02    6.0127799988e+01
    1.3119871521e+02    5.9892700195e+01
    1.3129878235e+02    5.9657901764e+01
    1.3139874268e+02    5.9423999786e+01
    1.3149880981e+02    5.9190502167e+01
    1.3159866333e+02    5.8958301544e+01
    1.3169879150e+02    5.8726299286e+01
    1.3179879761e+02    5.8495399475e+01
    1.3189874268e+02    5.8265602112e+01
    1.3199877930e+02    5.8036499023e+01
    1.3209869385e+02    5.7808700562e+01
    1.3219873047e+02    5.7581600189e+01
    1.3229872131e+02    5.7355701447e+01
    1.3239874268e+02    5.7130699158e+01
    1.3249876404e+02    5.6906799316e+01
    1.3259887695e+02    5.6683799744e+01
    1.3269888306e+02    5.6462100983e+01
    1.3279882812e+02    5.6241600037e+01
    1.3289874268e+02    5.6022399902e+01
    1.3299876404e+02    5.5804100037e+01
    1.3309890747e+02    5.5586700439e+01
    1.3319885254e+02    5.5370800018e+01
    1.3329887390e+02    5.5156101227e+01
    1.3339889526e+02    5.4942600250e+01
    1.3349893188e+02    5.4730201721e+01
    1.3359878540e+02    5.4519401550e+01
    1.3369886780e+02    5.4309398651e+01
    1.3379879761e+02    5.4101100922e+01
    1.3389880371e+02    5.3893901825e+01
    1.3399896240e+02    5.3687801361e+01
    1.3409890747e+02    5.3483501434e+01
    1.3419880676e+02    5.3280799866e+01
    1.3429890442e+02    5.3079200745e+01
    1.3439884949e+02    5.2879501343e+01
    1.3449890137e+02    5.2681098938e+01
    1.3459884644e+02    5.2484600067e+01
    1.3469883728e+02    5.2289600372e+01
    1.3479890442e+02    5.2096199036e+01
    1.3489892578e+02    5.1904499054e+01
    1.3499899292e+02    5.1714500427e+01
    1.3509895325e+02    5.1526401520e+01
    1.3519894409e+02    5.1340000153e+01
    1.3529896545e+02    5.1155300140e+01
    1.3539895630e+02    5.0972400665e+01
    1.3549902344e+02    5.0791000366e+01
    1.3559902954e+02    5.0611400604e+01
    1.3569906616e+02    5.0433502197e+01
    1.3579893494e+02    5.0257698059e+01
    1.3589901733e+02    5.0083099365e+01
    1.3599891663e+02    4.9910598755e+01
    1.3609898376e+02    4.9739799500e+01
    1.3619902039e+02    4.9570602417e+01
    1.3629899597e+02    4.9403198242e+01
    1.3639898682e+02    4.9237701416e+01
    1.3649911499e+02    4.9074100494e+01
    1.3659907532e+02    4.8912597656e+01
    1.3669900513e+02    4.8753101349e+01
    1.3679896545e+02    4.8595500946e+01
    1.3689915466e+02    4.8439598083e+01
    1.3699911499e+02    4.8286201477e+01
    1.3709915161e+02    4.8134597778e+01
    1.3719905090e+02    4.7985298157e+01
    1.3729902649e+02    4.7837898254e+01
    1.3739912415e+02    4.7692298889e+01
    1.3749906921e+02    4.7548900604e+01
    1.3759913635e+02    4.7407501221e+01
    1.3769905090e+02    4.7268402100e+01
    1.3779916382e+02    4.7130901337e+01
    1.3789912415e+02    4.6995700836e+01
    1.3799920654e+02    4.6862197876e+01
    1.3809921265e+02    4.6730800629e+01
    1.3819918823e+02    4.6602500916e+01
    1.3829913330e+02    4.6479103088e+01
    1.3839910889e+02    4.6362701416e+01
    1.3849919128e+02    4.6254501343e+01
    1.3859915161e+02    4.6156402588e+01
    1.3869921875e+02    4.6068702698e+01
    1.3879910278e+02    4.5991600037e+01
    1.3889909363e+02    4.5924400330e+01
    1.3899926758e+02    4.5865303040e+01
    1.3909924316e+02    4.5811203003e+01
    1.3919912720e+02    4.5760398865e+01
    1.3929913330e+02    4.5712100983e+01
    1.3939921570e+02    4.5665702820e+01
    1.3949923706e+02    4.5620498657e+01
    1.3959927368e+02    4.5576698303e+01
    1.3969929504e+02    4.5534301758e+01
    1.3979919434e+02    4.5493598938e+01
    1.3989929199e+02    4.5454200745e+01
    1.3999923706e+02    4.5416297913e+01
    1.4009921265e+02    4.5379501343e+01
    1.4019926453e+02    4.5344001770e+01
    1.4029925537e+02    4.5309600830e+01
    1.4039918518e+02    4.5276298523e+01
    1.4049920654e+02    4.5244003296e+01
    1.4059919739e+02    4.5212799072e+01
    1.4069920349e+02    4.5182502747e+01
    1.4079930115e+02    4.5152999878e+01
    1.4089927673e+02    4.5124198914e+01
    1.4099934387e+02    4.5096099854e+01
    1.4109936523e+02    4.5068599701e+01
    1.4119931030e+02    4.5041702271e+01
    1.4129937744e+02    4.5015300751e+01
    1.4139929199e+02    4.4989601135e+01
    1.4149937439e+02    4.4964401245e+01
    1.4159939575e+02    4.4939903259e+01
    1.4169929504e+02    4.4916000366e+01
    1.4179928589e+02    4.4892700195e+01
    1.4189930725e+02    4.4870101929e+01
    1.4199937439e+02    4.4848098755e+01
    1.4209942627e+02    4.4826599121e+01
    1.4219935608e+02    4.4805500031e+01
    1.4229945374e+02    4.4784797668e+01
    1.4239935303e+02    4.4764499664e+01
    1.4249937439e+02    4.4744499207e+01
    1.4259934998e+02    4.4724998474e+01
    1.4269938660e+02    4.4705802917e+01
    1.4279934692e+02    4.4686901093e+01
    1.4289939880e+02    4.4668399811e+01
    1.4299940491e+02    4.4650199890e+01
    1.4309942627e+02    4.4632400513e+01
    1.4319938660e+02    4.4614997864e+01
    1.4329940796e+02    4.4597900391e+01
    1.4339949036e+02    4.4581199646e+01
    1.4349948120e+02    4.4564800262e+01
    1.4359948730e+02    4.4548797607e+01
    1.4369947815e+02    4.4532897949e+01
    1.4379948425e+02    4.4517299652e+01
    1.4389950562e+02    4.4501701355e+01
    1.4399954224e+02    4.4486297607e+01
    1.4409950256e+02    4.4471000671e+01
    1.4419955444e+02    4.4455802917e+01
    1.4429945374e+02    4.4440601349e+01
    1.4439955139e+02    4.4425399780e+01
    1.4449952698e+02    4.4410400391e+01
    1.4459945679e+02    4.4395401001e+01
    1.4469944763e+02    4.4380500793e+01
    1.4479949951e+02    4.4365798950e+01
    1.4489955139e+02    4.4351303101e+01
    1.4499960327e+02    4.4336898804e+01
    1.4509957886e+02    4.4322898865e+01
    1.4519953918e+02    4.4308998108e+01
    1.4529949951e+02    4.4295402527e+01
    1.4539959717e+02    4.4281997681e+01
    1.4549958801e+02    4.4268699646e+01
    1.4559962463e+02    4.4255500793e+01
    1.4569963074e+02    4.4242401123e+01
    1.4579963684e+02    4.4229301453e+01
    1.4589958191e+02    4.4216201782e+01
    1.4599969482e+02    4.4203002930e+01
    1.4609957886e+02    4.4189903259e+01
    1.4619969177e+02    4.4176601410e+01
    1.4629960632e+02    4.4163398743e+01
    1.4639959717e+02    4.4150199890e+01
    1.4649960327e+02    4.4137100220e+01
    1.4659971619e+02    4.4124099731e+01
    1.4669964600e+02    4.4111297607e+01
    1.4679969788e+02    4.4098503113e+01
    1.4689959717e+02    4.4085998535e+01
    1.4699971008e+02    4.4073699951e+01
    1.4709968567e+02    4.4061599731e+01
    1.4719966125e+02    4.4049598694e+01
    1.4729969788e+02    4.4037799835e+01
    1.4739978027e+02    4.4026100159e+01
    1.4749969482e+02    4.4014602661e+01
    1.4759970093e+02    4.4003200531e+01
    1.4769973755e+02    4.3992000580e+01
    1.4779968262e+02    4.3980899811e+01
    1.4789973450e+02    4.3969902039e+01
    1.4799978638e+02    4.3959098816e+01
    1.4809982300e+02    4.3948402405e+01
    1.4819981384e+02    4.3937999725e+01
    1.4829981995e+02    4.3927803040e+01
    1.4839984131e+02    4.3917900085e+01
    1.4849972534e+02    4.3908302307e+01
    1.4859974670e+02    4.3899002075e+01
    1.4869972229e+02    4.3889900208e+01
    1.4879983521e+02    4.3881202698e+01
    1.4889976501e+02    4.3872802734e+01
    1.4899984741e+02    4.3864700317e+01
    1.4909974670e+02    4.3857002258e+01
    1.4919984436e+02    4.3849601746e+01
    1.4929980469e+02    4.3842498779e+01
    1.4939984131e+02    4.3835700989e+01
    1.4949984741e+02    4.3829399109e+01
    1.4959983826e+02    4.3823402405e+01
    1.4969978333e+02    4.3818000793e+01
    1.4979981995e+02    4.3812999725e+01
    1.4989990234e+02    4.3808601379e+01
    1.4999987793e+02    4.3804801941e+01
    1.5009991455e+02    4.3801601410e+01
    1.5019990540e+02    4.3798900604e+01
    1.5029992676e+02    4.3796897888e+01
    1.5039982605e+02    4.3795600891e+01
    1.5049995422e+02    4.3794799805e+01
    1.5059988403e+02    4.3794700623e+01
    1.5069985962e+02    4.3795299530e+01
    1.5079992676e+02    4.3796501160e+01
    1.5089991760e+02    4.3798400879e+01
    1.5099998474e+02    4.3800903320e+01
    1.5109988403e+02    4.3804199219e+01
    1.5120001221e+02    4.3808200836e+01
    1.5129994202e+02    4.3813102722e+01
    1.5139990234e+02    4.3818801880e+01
    1.5150000000e+02    4.3825599670e+01
    1.5159997559e+02    4.3833297729e+01
    1.5169998169e+02    4.3842002869e+01
    1.5179991150e+02    4.3851799011e+01
    1.5189990234e+02    4.3862800598e+01
    1.5199996948e+02    4.3875000000e+01
    1.5210006714e+02    4.3888500214e+01
    1.5220002747e+02    4.3903301239e+01
    1.5229995728e+02    4.3919403076e+01
    1.5239991760e+02    4.3936798096e+01
    1.5250000000e+02    4.3955600739e+01
    1.5260000610e+02    4.3975700378e+01
    1.5269993591e+02    4.3997299194e+01
    1.5280007935e+02    4.4020301819e+01
    1.5290011597e+02    4.4044799805e+01
    1.5300001526e+02    4.4070899963e+01
    1.5310000610e+02    4.4098503113e+01
    1.5320005798e+02    4.4127700806e+01
    1.5330012512e+02    4.4158699036e+01
    1.5340014648e+02    4.4191398621e+01
    1.5350003052e+02    4.4225799561e+01
    1.5360008240e+02    4.4262100220e+01
    1.5370004272e+02    4.4300201416e+01
    1.5380000305e+02    4.4340301514e+01
    1.5390008545e+02    4.4382301331e+01
    1.5400009155e+02    4.4426300049e+01
    1.5410014343e+02    4.4472297668e+01
    1.5420018005e+02    4.4520202637e+01
    1.5430009460e+02    4.4569999695e+01
    1.5440008545e+02    4.4622001648e+01
    1.5450007629e+02    4.4675903320e+01
    1.5460012817e+02    4.4732002258e+01
    1.5470005798e+02    4.4790100098e+01
    1.5480009460e+02    4.4850097656e+01
    1.5490017700e+02    4.4912399292e+01
    1.5500015259e+02    4.4976600647e+01
    1.5510023499e+02    4.5042900085e+01
    1.5520016479e+02    4.5111198425e+01
    1.5530018616e+02    4.5181701660e+01
    1.5540023804e+02    4.5254302979e+01
    1.5550015259e+02    4.5329101562e+01
    1.5560020447e+02    4.5406600952e+01
    1.5570022583e+02    4.5486900330e+01
    1.5580018616e+02    4.5570301056e+01
    1.5590019226e+02    4.5656799316e+01
    1.5600030518e+02    4.5746601105e+01
    1.5610026550e+02    4.5839000702e+01
    1.5620016479e+02    4.5933898926e+01
    1.5630024719e+02    4.6031299591e+01
    1.5640031433e+02    4.6130699158e+01
    1.5650021362e+02    4.6231903076e+01
    1.5660031128e+02    4.6335502625e+01
    1.5670033264e+02    4.6441001892e+01
    1.5680030823e+02    4.6548400879e+01
    1.5690031433e+02    4.6657798767e+01
    1.5700025940e+02    4.6769302368e+01
    1.5710032654e+02    4.6882801056e+01
    1.5720031738e+02    4.6998298645e+01
    1.5730029297e+02    4.7115699768e+01
    1.5740037537e+02    4.7235198975e+01
    1.5750039673e+02    4.7356597900e+01
    1.5760031128e+02    4.7479801178e+01
    1.5770025635e+02    4.7605102539e+01
    1.5780033875e+02    4.7732200623e+01
    1.5790039062e+02    4.7861198425e+01
    1.5800028992e+02    4.7991901398e+01
    1.5810040283e+02    4.8124603271e+01
    1.5820033264e+02    4.8258899689e+01
    1.5830030823e+02    4.8394901276e+01
    1.5840046692e+02    4.8532897949e+01
    1.5850033569e+02    4.8672302246e+01
    1.5860031128e+02    4.8813499451e+01
    1.5870048523e+02    4.8956600189e+01
    1.5880035400e+02    4.9100997925e+01
    1.5890046692e+02    4.9247299194e+01
    1.5900035095e+02    4.9395000458e+01
    1.5910038757e+02    4.9544403076e+01
    1.5920034790e+02    4.9695301056e+01
    1.5930052185e+02    4.9848098755e+01
    1.5940046692e+02    5.0002201080e+01
    1.5950039673e+02    5.0157699585e+01
    1.5960047913e+02    5.0314903259e+01
    1.5970042419e+02    5.0473300934e+01
    1.5980047607e+02    5.0633300781e+01
    1.5990049744e+02    5.0794601440e+01
    1.6000041199e+02    5.0957000732e+01
    1.6010046387e+02    5.1121101379e+01
    1.6020045471e+02    5.1286300659e+01
    1.6030050659e+02    5.1452800751e+01
    1.6040042114e+02    5.1620300293e+01
    1.6050050354e+02    5.1789501190e+01
    1.6060049438e+02    5.1959602356e+01
    1.6070054626e+02    5.2131099701e+01
    1.6080053711e+02    5.2303600311e+01
    1.6090051270e+02    5.2477298737e+01
    1.6100044250e+02    5.2651901245e+01
    1.6110058594e+02    5.2828102112e+01
    1.6120051575e+02    5.3004901886e+01
    1.6130052185e+02    5.3182998657e+01
    1.6140051270e+02    5.3362098694e+01
    1.6150059509e+02    5.3542400360e+01
    1.6160064697e+02    5.3723701477e+01
    1.6170054626e+02    5.3905700684e+01
    1.6180056763e+02    5.4088802338e+01
    1.6190057373e+02    5.4272899628e+01
    1.6200054932e+02    5.4457801819e+01
    1.6210057068e+02    5.4643699646e+01
    1.6220053101e+02    5.4830501556e+01
    1.6230056763e+02    5.5018199921e+01
    1.6240058899e+02    5.5206802368e+01
    1.6250059509e+02    5.5396301270e+01
    1.6260061646e+02    5.5586700439e+01
    1.6270057678e+02    5.5777801514e+01
    1.6280073547e+02    5.5970199585e+01
    1.6290071106e+02    5.6163002014e+01
    1.6300056458e+02    5.6356498718e+01
    1.6310067749e+02    5.6551300049e+01
    1.6320060730e+02    5.6746601105e+01
    1.6330064392e+02    5.6942798615e+01
    1.6340069580e+02    5.7139900208e+01
    1.6350068665e+02    5.7337600708e+01
    1.6360060120e+02    5.7535999298e+01
    1.6370077515e+02    5.7735599518e+01
    1.6380067444e+02    5.7935401917e+01
    1.6390071106e+02    5.8136199951e+01
    1.6400076294e+02    5.8337902069e+01
    1.6410066223e+02    5.8539798737e+01
    1.6420065308e+02    5.8742801666e+01
    1.6430070496e+02    5.8946498871e+01
    1.6440071106e+02    5.9150901794e+01
    1.6450076294e+02    5.9356101990e+01
    1.6460081482e+02    5.9561901093e+01
    1.6470083618e+02    5.9768402100e+01
    1.6480079651e+02    5.9975399017e+01
    1.6490083313e+02    6.0183300018e+01
    1.6500083923e+02    6.0391799927e+01
    1.6510076904e+02    6.0600700378e+01
    1.6520071411e+02    6.0810199738e+01
    1.6530087280e+02    6.1020900726e+01
    1.6540075684e+02    6.1231498718e+01
    1.6550085449e+02    6.1443199158e+01
    1.6560083008e+02    6.1655200958e+01
    1.6570088196e+02    6.1868000031e+01
    1.6580082703e+02    6.2081100464e+01
    1.6590086365e+02    6.2295001984e+01
    1.6600088501e+02    6.2509399414e+01
    1.6610087585e+02    6.2724399567e+01
    1.6620089722e+02    6.2939998627e+01
    1.6630084229e+02    6.3156002045e+01
    1.6640086365e+02    6.3372798920e+01
    1.6650083923e+02    6.3590099335e+01
    1.6660090637e+02    6.3808101654e+01
    1.6670091248e+02    6.4026596069e+01
    1.6680081177e+02    6.4245300293e+01
    1.6690086365e+02    6.4464904785e+01
    1.6700096130e+02    6.4685195923e+01
    1.6710096741e+02    6.4905799866e+01
    1.6720095825e+02    6.5126899719e+01
    1.6730099487e+02    6.5348495483e+01
    1.6740098572e+02    6.5570602417e+01
    1.6750093079e+02    6.5793106079e+01
    1.6760084534e+02    6.6015998840e+01
    1.6770094299e+02    6.6239799500e+01
    1.6780097961e+02    6.6463897705e+01
    1.6790086365e+02    6.6688301086e+01
    1.6800096130e+02    6.6913604736e+01
    1.6810093689e+02    6.7139205933e+01
    1.6820098877e+02    6.7365501404e+01
    1.6830093384e+02    6.7591995239e+01
    1.6840097046e+02    6.7819198608e+01
    1.6850099182e+02    6.8046905518e+01
    1.6860093689e+02    6.8274795532e+01
    1.6870104980e+02    6.8503700256e+01
    1.6880091858e+02    6.8732498169e+01
    1.6890107727e+02    6.8962295532e+01
    1.6900094604e+02    6.9191902161e+01
    1.6910096741e+02    6.9422401428e+01
    1.6920103455e+02    6.9653305054e+01
    1.6930093384e+02    6.9884399414e+01
    1.6940095520e+02    7.0116104126e+01
    1.6950099182e+02    7.0348297119e+01
    1.6960102844e+02    7.0580902100e+01
    1.6970104980e+02    7.0813995361e+01
    1.6980101013e+02    7.1047302246e+01
    1.6990110779e+02    7.1281402588e+01
    1.7000111389e+02    7.1515701294e+01
    1.7010102844e+02    7.1750305176e+01
    1.7020117188e+02    7.1985801697e+01
    1.7030108643e+02    7.2221099854e+01
    1.7040118408e+02    7.2457305908e+01
    1.7050106812e+02    7.2693496704e+01
    1.7060107422e+02    7.2930297852e+01
    1.7070114136e+02    7.3167495728e+01
    1.7080104065e+02    7.3404800415e+01
    1.7090115356e+02    7.3643005371e+01
    1.7100122070e+02    7.3881401062e+01
    1.7110113525e+02    7.4119903564e+01
    1.7120117188e+02    7.4359001160e+01
    1.7130110168e+02    7.4598297119e+01
    1.7140113831e+02    7.4838195801e+01
    1.7150115967e+02    7.5078399658e+01
    1.7160110474e+02    7.5318801880e+01
    1.7170111084e+02    7.5559799194e+01
    1.7180116272e+02    7.5801200867e+01
    1.7190112305e+02    7.6042800903e+01
    1.7200122070e+02    7.6285095215e+01
    1.7210119629e+02    7.6527496338e+01
    1.7220126343e+02    7.6770301819e+01
    1.7230128479e+02    7.7013504028e+01
    1.7240130615e+02    7.7257003784e+01
    1.7250123596e+02    7.7500595093e+01
    1.7260127258e+02    7.7744796753e+01
    1.7270115662e+02    7.7988899231e+01
    1.7280125427e+02    7.8233901978e+01
    1.7290127563e+02    7.8479003906e+01
    1.7300125122e+02    7.8724304199e+01
    1.7310122681e+02    7.8970001221e+01
    1.7320126343e+02    7.9216201782e+01
    1.7330128479e+02    7.9462699890e+01
    1.7340126038e+02    7.9709396362e+01
    1.7350120544e+02    7.9956298828e+01
    1.7360127258e+02    8.0203903198e+01
    1.7370123291e+02    8.0451499939e+01
    1.7380134583e+02    8.0699798584e+01
    1.7390141296e+02    8.0948394775e+01
    1.7400128174e+02    8.1196701050e+01
    1.7410128784e+02    8.1445701599e+01
    1.7420129395e+02    8.1694999695e+01
    1.7430140686e+02    8.1944900513e+01
    1.7440133667e+02    8.2194503784e+01
    1.7450135803e+02    8.2444702148e+01
    1.7460131836e+02    8.2694999695e+01
    1.7470144653e+02    8.2945999146e+01
    1.7480140686e+02    8.3196899414e+01
    1.7490130615e+02    8.3447898865e+01
    1.7500137329e+02    8.3699699402e+01
    1.7510130310e+02    8.3951400757e+01
    1.7520138550e+02    8.4203804016e+01
    1.7530133057e+02    8.4456100464e+01
    1.7540142822e+02    8.4709197998e+01
    1.7550146484e+02    8.4962303162e+01
    1.7560147095e+02    8.5215599060e+01
    1.7570144653e+02    8.5469200134e+01
    1.7580136108e+02    8.5722801208e+01
    1.7590138245e+02    8.5977104187e+01
    1.7600146484e+02    8.6231697083e+01
    1.7610151672e+02    8.6486503601e+01
    1.7620150757e+02    8.6741401672e+01
    1.7630152893e+02    8.6996704102e+01
    1.7640150452e+02    8.7252098083e+01
    1.7650149536e+02    8.7507698059e+01
    1.7660151672e+02    8.7763801575e+01
    1.7670141602e+02    8.8019798279e+01
    1.7680158997e+02    8.8276702881e+01
    1.7690144348e+02    8.8533103943e+01
    1.7700157166e+02    8.8790397644e+01
    1.7710159302e+02    8.9047798157e+01
    1.7720152283e+02    8.9305099487e+01
    1.7730151367e+02    8.9562896729e+01
    1.7740151978e+02    8.9820899963e+01
    1.7750149536e+02    9.0079101562e+01
    1.7760159302e+02    9.0337898254e+01
    1.7770153809e+02    9.0596504211e+01
    1.7780160522e+02    9.0855598450e+01
    1.7790151978e+02    9.1114601135e+01
    1.7800161743e+02    9.1374298096e+01
    1.7810151672e+02    9.1633697510e+01
    1.7820161438e+02    9.1893898010e+01
    1.7830166626e+02    9.2154197693e+01
    1.7840153503e+02    9.2414199829e+01
    1.7850155640e+02    9.2674903870e+01
    1.7860156250e+02    9.2935699463e+01
    1.7870158386e+02    9.3196899414e+01
    1.7880160522e+02    9.3458198547e+01
    1.7890159607e+02    9.3719703674e+01
    1.7900161743e+02    9.3981498718e+01
    1.7910159302e+02    9.4243400574e+01
    1.7920159912e+02    9.4505500793e+01
    1.7930168152e+02    9.4768096924e+01
    1.7940158081e+02    9.5030403137e+01
    1.7950157166e+02    9.5293197632e+01
    1.7960165405e+02    9.5556503296e+01
    1.7970161438e+02    9.5819602966e+01
    1.7980169678e+02    9.6083198547e+01
    1.7990162659e+02    9.6346603394e+01
    1.8000170898e+02    9.6610603333e+01
    1.8010168457e+02    9.6874603271e+01
    1.8020169067e+02    9.7138702393e+01
    1.8030177307e+02    9.7403297424e+01
    1.8040173340e+02    9.7667701721e+01
    1.8050166321e+02    9.7932296753e+01
    1.8060168457e+02    9.8197303772e+01
    1.8070181274e+02    9.8462699890e+01
    1.8080168152e+02    9.8727699280e+01
    1.8090170288e+02    9.8993202209e+01
    1.8100178528e+02    9.9259101868e+01
    1.8110174561e+02    9.9524803162e+01
    1.8120173645e+02    9.9790702820e+01
    1.8130172729e+02    1.0005680084e+02
    1.8140185547e+02    1.0032350159e+02
    1.8150184631e+02    1.0059000397e+02
    1.8160183716e+02    1.0085649872e+02
    1.8170176697e+02    1.0112310028e+02
    1.8180171204e+02    1.0138990021e+02
    1.8190174866e+02    1.0165699768e+02
    1.8200178528e+02    1.0192430115e+02
    1.8210185242e+02    1.0219180298e+02
    1.8220188904e+02    1.0245940399e+02
    1.8230175781e+02    1.0272660065e+02
    1.8240185547e+02    1.0299449921e+02
    1.8250192261e+02    1.0326249695e+02
    1.8260179138e+02    1.0352999878e+02
    1.8270181274e+02    1.0379810333e+02
    1.8280180359e+02    1.0406620026e+02
    1.8290196228e+02    1.0433480072e+02
    1.8300192261e+02    1.0460299683e+02
    1.8310191345e+02    1.0487139893e+02
    1.8320196533e+02    1.0514009857e+02
    1.8330184937e+02    1.0540840149e+02
    1.8340190125e+02    1.0567720032e+02
    1.8350192261e+02    1.0594599915e+02
    1.8360194397e+02    1.0621489716e+02
    1.8370187378e+02    1.0648359680e+02
    1.8380184937e+02    1.0675250244e+02
    1.8390187073e+02    1.0702159882e+02
    1.8400195312e+02    1.0729090118e+02
    1.8410197449e+02    1.0755999756e+02
    1.8420190430e+02    1.0782900238e+02
    1.8430189514e+02    1.0809809875e+02
    1.8440199280e+02    1.0836750031e+02
    1.8450196838e+02    1.0863670349e+02
    1.8460194397e+02    1.0890579987e+02
    1.8470196533e+02    1.0917510223e+02
    1.8480206299e+02    1.0944460297e+02
    1.8490200806e+02    1.0971369934e+02
    1.8500198364e+02    1.0998280334e+02
    1.8510203552e+02    1.1025209808e+02
    1.8520199585e+02    1.1052120209e+02
    1.8530203247e+02    1.1079049683e+02
    1.8540205383e+02    1.1105970001e+02
    1.8550195312e+02    1.1132849884e+02
    1.8560206604e+02    1.1159790039e+02
    1.8570207214e+02    1.1186689758e+02
    1.8580209351e+02    1.1213590240e+02
    1.8590208435e+02    1.1240480042e+02
    1.8600199890e+02    1.1267340088e+02
    1.8610209656e+02    1.1294239807e+02
    1.8620207214e+02    1.1321099854e+02
    1.8630210876e+02    1.1347959900e+02
    1.8640211487e+02    1.1374810028e+02
    1.8650210571e+02    1.1401640320e+02
    1.8660209656e+02    1.1428459930e+02
    1.8670213318e+02    1.1455280304e+02
    1.8680215454e+02    1.1482080078e+02
    1.8690219116e+02    1.1508869934e+02
    1.8700202942e+02    1.1535590363e+02
    1.8710206604e+02    1.1562360382e+02
    1.8720211792e+02    1.1589099884e+02
    1.8730212402e+02    1.1615820312e+02
    1.8740216064e+02    1.1642530060e+02
    1.8750218201e+02    1.1669219971e+02
    1.8760212708e+02    1.1695860291e+02
    1.8770219421e+02    1.1722530365e+02
    1.8780209351e+02    1.1749120331e+02
    1.8790208435e+02    1.1775720215e+02
    1.8800213623e+02    1.1802310181e+02
    1.8810224915e+02    1.1828890228e+02
    1.8820228577e+02    1.1855419922e+02
    1.8830221558e+02    1.1881909943e+02
    1.8840223694e+02    1.1908409882e+02
    1.8850227356e+02    1.1934809875e+02
    1.8860227966e+02    1.1961309814e+02
    1.8870228577e+02    1.1987609863e+02
    1.8880215454e+02    1.2014009857e+02
    1.8890231323e+02    1.2040309906e+02
    1.8900230408e+02    1.2066609955e+02
    1.8910227966e+02    1.2092910004e+02
    1.8920216370e+02    1.2119110107e+02
    1.8930230713e+02    1.2145310211e+02
    1.8940220642e+02    1.2171410370e+02
    1.8950221252e+02    1.2197509766e+02
    1.8960235596e+02    1.2223709869e+02
    1.8970231628e+02    1.2249710083e+02
    1.8980236816e+02    1.2275710297e+02
    1.8990231323e+02    1.2301609802e+02
    1.9000227356e+02    1.2327610016e+02
    1.9010226440e+02    1.2353410339e+02
    1.9020236206e+02    1.2379309845e+02
    1.9030235291e+02    1.2405110168e+02
    1.9040237427e+02    1.2430809784e+02
    1.9050227356e+02    1.2456510162e+02
    1.9060237122e+02    1.2482209778e+02
    1.9070239258e+02    1.2507810211e+02
    1.9080239868e+02    1.2533309937e+02
    1.9090240479e+02    1.2558810425e+02
    1.9100238037e+02    1.2584210205e+02
    1.9110240173e+02    1.2609609985e+02
    1.9120245361e+02    1.2635009766e+02
    1.9130244446e+02    1.2660310364e+02
    1.9140242004e+02    1.2685510254e+02
    1.9150239563e+02    1.2710610199e+02
    1.9160232544e+02    1.2735710144e+02
    1.9170237732e+02    1.2760810089e+02
    1.9180235291e+02    1.2785810089e+02
    1.9190240479e+02    1.2810710144e+02
    1.9200236511e+02    1.2835610962e+02
    1.9210232544e+02    1.2860409546e+02
    1.9220237732e+02    1.2885211182e+02
    1.9230252075e+02    1.2909909058e+02
    1.9240248108e+02    1.2934509277e+02
    1.9250244141e+02    1.2959010315e+02
    1.9260252380e+02    1.2983509827e+02
    1.9270239258e+02    1.3007910156e+02
    1.9280249023e+02    1.3032209778e+02
    1.9290255737e+02    1.3056509399e+02
    1.9300250244e+02    1.3080709839e+02
    1.9310238647e+02    1.3104809570e+02
    1.9320249939e+02    1.3128909302e+02
    1.9330249023e+02    1.3152810669e+02
    1.9340240479e+02    1.3176708984e+02
    1.9350247192e+02    1.3200509644e+02
    1.9360243225e+02    1.3224310303e+02
    1.9370251465e+02    1.3247909546e+02
    1.9380259705e+02    1.3271510315e+02
    1.9390249634e+02    1.3295010376e+02
    1.9400244141e+02    1.3318409729e+02
    1.9410253906e+02    1.3341809082e+02
    1.9420262146e+02    1.3365010071e+02
    1.9430261230e+02    1.3388211060e+02
    1.9440263367e+02    1.3411309814e+02
    1.9450263977e+02    1.3434310913e+02
    1.9460249329e+02    1.3457110596e+02
    1.9470254517e+02    1.3479910278e+02
    1.9480255127e+02    1.3502609253e+02
    1.9490258789e+02    1.3525309753e+02
    1.9500265503e+02    1.3547810364e+02
    1.9510261536e+02    1.3570210266e+02
    1.9520260620e+02    1.3592610168e+02
    1.9530267334e+02    1.3614810181e+02
    1.9540255737e+02    1.3636911011e+02
    1.9550271606e+02    1.3659010315e+02
    1.9560270691e+02    1.3681008911e+02
    1.9570262146e+02    1.3702810669e+02
    1.9580271912e+02    1.3724510193e+02
    1.9590260315e+02    1.3746109009e+02
    1.9600259399e+02    1.3767610168e+02
    1.9610258484e+02    1.3789109802e+02
    1.9620271301e+02    1.3810409546e+02
    1.9630276489e+02    1.3831610107e+02
    1.9640269470e+02    1.3852709961e+02
    1.9650262451e+02    1.3873609924e+02
    1.9660264587e+02    1.3894509888e+02
    1.9670278931e+02    1.3915310669e+02
    1.9680261230e+02    1.3935910034e+02
    1.9690280151e+02    1.3956410217e+02
    1.9700273132e+02    1.3976809692e+02
    1.9710267639e+02    1.3997109985e+02
    1.9720281982e+02    1.4017309570e+02
    1.9730278015e+02    1.4037310791e+02
    1.9740272522e+02    1.4057209778e+02
    1.9750271606e+02    1.4077011108e+02
    1.9760278320e+02    1.4096710205e+02
    1.9770268250e+02    1.4116210938e+02
    1.9780270386e+02    1.4135610962e+02
    1.9790281677e+02    1.4154910278e+02
    1.9800274658e+02    1.4174110413e+02
    1.9810284424e+02    1.4193109131e+02
    1.9820283508e+02    1.4212010193e+02
    1.9830270386e+02    1.4230709839e+02
    1.9840272522e+02    1.4249411011e+02
    1.9850277710e+02    1.4267910767e+02
    1.9860281372e+02    1.4286209106e+02
    1.9870275879e+02    1.4304409790e+02
    1.9880281067e+02    1.4322509766e+02
    1.9890281677e+02    1.4340509033e+02
    1.9900288391e+02    1.4358309937e+02
    1.9910276794e+02    1.4375909424e+02
    1.9920286560e+02    1.4393409729e+02
    1.9930287170e+02    1.4410809326e+02
    1.9940295410e+02    1.4428109741e+02
    1.9950289917e+02    1.4445210266e+02
    1.9960296631e+02    1.4462109375e+02
    1.9970283508e+02    1.4478909302e+02
    1.9980290222e+02    1.4495610046e+02
    1.9990296936e+02    1.4512109375e+02
endcurve
