Curveplot
LS-DYNA keyword deck by LS-PrePost
Abscissa
Ordinate
XY data
NBDLHeadxCoo-1 #pts=2000
* Minval=     3.8422401428e+01 at time=         0.0000000000
* Maxval=     1.4436300659e+02 at time=       149.7998199463
    0.0000000000e+00    3.8422401428e+01
    9.9978484213e-02    3.8422401428e+01
    1.9995696843e-01    3.8422401428e+01
    2.9993546009e-01    3.8422401428e+01
    3.9991393685e-01    3.8422401428e+01
    4.9989241362e-01    3.8422401428e+01
    5.9987092018e-01    3.8422401428e+01
    6.9989228249e-01    3.8422401428e+01
    7.9987078905e-01    3.8422401428e+01
    8.9984923601e-01    3.8422401428e+01
    9.9982774258e-01    3.8422401428e+01
    1.0999879837e+00    3.8422500610e+01
    1.1999665499e+00    3.8422500610e+01
    1.2999449968e+00    3.8422500610e+01
    1.3999276161e+00    3.8422500610e+01
    1.4998989105e+00    3.8422599792e+01
    1.5999723673e+00    3.8422599792e+01
    1.6999509335e+00    3.8422599792e+01
    1.7999293804e+00    3.8422698975e+01
    1.8999079466e+00    3.8422698975e+01
    1.9998862743e+00    3.8422798157e+01
    2.0998647213e+00    3.8422798157e+01
    2.1998434067e+00    3.8422798157e+01
    2.2998218536e+00    3.8422897339e+01
    2.3999822140e+00    3.8423000336e+01
    2.4999604225e+00    3.8423000336e+01
    2.5999391079e+00    3.8423099518e+01
    2.6999175549e+00    3.8423099518e+01
    2.7999644279e+00    3.8423202515e+01
    2.8999450207e+00    3.8423301697e+01
    2.9999256134e+00    3.8423400879e+01
    3.0999062061e+00    3.8423400879e+01
    3.1998867989e+00    3.8423500061e+01
    3.2998673916e+00    3.8423599243e+01
    3.3998479843e+00    3.8423698425e+01
    3.4999725819e+00    3.8423797607e+01
    3.5999510288e+00    3.8423900604e+01
    3.6999294758e+00    3.8423999786e+01
    3.7999079227e+00    3.8424098969e+01
    3.8998863697e+00    3.8424201965e+01
    3.9998648167e+00    3.8424301147e+01
    4.0998435020e+00    3.8424400330e+01
    4.1999077797e+00    3.8424499512e+01
    4.2999424934e+00    3.8424697876e+01
    4.3999209404e+00    3.8424797058e+01
    4.4998140335e+00    3.8424900055e+01
    4.5999875069e+00    3.8424999237e+01
    4.6999678612e+00    3.8425201416e+01
    4.7999486923e+00    3.8425300598e+01
    4.8999295235e+00    3.8425399780e+01
    4.9999098778e+00    3.8425598145e+01
    5.0998907089e+00    3.8425697327e+01
    5.1998715401e+00    3.8425899506e+01
    5.2998518944e+00    3.8426002502e+01
    5.3998327255e+00    3.8426200867e+01
    5.4998135567e+00    3.8426399231e+01
    5.5999875069e+00    3.8426498413e+01
    5.6999678612e+00    3.8426700592e+01
    5.7999486923e+00    3.8426898956e+01
    5.8999295235e+00    3.8427001953e+01
    5.9999098778e+00    3.8427200317e+01
    6.0998907089e+00    3.8427398682e+01
    6.1998720169e+00    3.8427597046e+01
    6.2998533249e+00    3.8427799225e+01
    6.3998341560e+00    3.8428001404e+01
    6.4998154640e+00    3.8428199768e+01
    6.5999894142e+00    3.8428398132e+01
    6.6999702454e+00    3.8428600311e+01
    6.7999505997e+00    3.8428802490e+01
    6.8999319077e+00    3.8429000854e+01
    6.9999132156e+00    3.8429199219e+01
    7.0998940468e+00    3.8429500580e+01
    7.1998748779e+00    3.8429698944e+01
    7.2998557091e+00    3.8429901123e+01
    7.3998365402e+00    3.8430198669e+01
    7.4998173714e+00    3.8430397034e+01
    7.5999917984e+00    3.8430599213e+01
    7.6999726295e+00    3.8430900574e+01
    7.7999534607e+00    3.8431098938e+01
    7.8999342918e+00    3.8431400299e+01
    7.9999155998e+00    3.8431701660e+01
    8.0998964310e+00    3.8431900024e+01
    8.1998767853e+00    3.8432197571e+01
    8.2998580933e+00    3.8432498932e+01
    8.3998880386e+00    3.8432701111e+01
    8.4998693466e+00    3.8432998657e+01
    8.5998497009e+00    3.8433300018e+01
    8.6998310089e+00    3.8433601379e+01
    8.7998123169e+00    3.8433898926e+01
    8.8999862671e+00    3.8434200287e+01
    8.9999666214e+00    3.8434501648e+01
    9.0999479294e+00    3.8434799194e+01
    9.1999282837e+00    3.8435100555e+01
    9.2999095917e+00    3.8435401917e+01
    9.3999519348e+00    3.8435699463e+01
    9.4999074936e+00    3.8436000824e+01
    9.5998830795e+00    3.8436401367e+01
    9.6999139786e+00    3.8436698914e+01
    9.7998952866e+00    3.8437000275e+01
    9.8999872208e+00    3.8437400818e+01
    9.9999685287e+00    3.8437698364e+01
    1.0099983215e+01    3.8437999725e+01
    1.0199975014e+01    3.8438400269e+01
    1.0299956322e+01    3.8438800812e+01
    1.0399936676e+01    3.8439102173e+01
    1.0499917984e+01    3.8439498901e+01
    1.0599899292e+01    3.8439800262e+01
    1.0699864388e+01    3.8440200806e+01
    1.0799910545e+01    3.8440597534e+01
    1.0899917603e+01    3.8441001892e+01
    1.0999970436e+01    3.8441398621e+01
    1.1099864006e+01    3.8441799164e+01
    1.1199980736e+01    3.8442199707e+01
    1.1299835205e+01    3.8442600250e+01
    1.1399992943e+01    3.8443000793e+01
    1.1499871254e+01    3.8443397522e+01
    1.1599942207e+01    3.8443801880e+01
    1.1699864388e+01    3.8444198608e+01
    1.1799834251e+01    3.8444599152e+01
    1.1899873734e+01    3.8445098877e+01
    1.1999855042e+01    3.8445499420e+01
    1.2099854469e+01    3.8445899963e+01
    1.2199934959e+01    3.8446399689e+01
    1.2299835205e+01    3.8446800232e+01
    1.2400009155e+01    3.8447299957e+01
    1.2499894142e+01    3.8447700500e+01
    1.2599875450e+01    3.8448200226e+01
    1.2699855804e+01    3.8448699951e+01
    1.2799965858e+01    3.8449100494e+01
    1.2899947166e+01    3.8449600220e+01
    1.2999929428e+01    3.8450099945e+01
    1.3099960327e+01    3.8450599670e+01
    1.3199871063e+01    3.8451099396e+01
    1.3299901962e+01    3.8451599121e+01
    1.3399874687e+01    3.8452102661e+01
    1.3500013351e+01    3.8452598572e+01
    1.3599948883e+01    3.8453102112e+01
    1.3699834824e+01    3.8453598022e+01
    1.3799953461e+01    3.8454101562e+01
    1.3899933815e+01    3.8454597473e+01
    1.3999915123e+01    3.8455200195e+01
    1.4099896431e+01    3.8455699921e+01
    1.4199888229e+01    3.8456298828e+01
    1.4299868584e+01    3.8456802368e+01
    1.4399849892e+01    3.8457298279e+01
    1.4500000000e+01    3.8457901001e+01
    1.4599981308e+01    3.8458499908e+01
    1.4699961662e+01    3.8458999634e+01
    1.4799942970e+01    3.8459602356e+01
    1.4899949074e+01    3.8460197449e+01
    1.4999968529e+01    3.8460800171e+01
    1.5099892616e+01    3.8461299896e+01
    1.5199966431e+01    3.8461898804e+01
    1.5299855232e+01    3.8462501526e+01
    1.5399835587e+01    3.8463100433e+01
    1.5499872208e+01    3.8463699341e+01
    1.5599851608e+01    3.8464401245e+01
    1.5699954987e+01    3.8465000153e+01
    1.5799936295e+01    3.8465599060e+01
    1.5899939537e+01    3.8466201782e+01
    1.5999930382e+01    3.8466899872e+01
    1.6099920273e+01    3.8467498779e+01
    1.6199848175e+01    3.8468101501e+01
    1.6299987793e+01    3.8468799591e+01
    1.6400001526e+01    3.8469398499e+01
    1.6499929428e+01    3.8470100403e+01
    1.6599838257e+01    3.8470802307e+01
    1.6700016022e+01    3.8471397400e+01
    1.6799911499e+01    3.8472099304e+01
    1.6899932861e+01    3.8472801208e+01
    1.6999912262e+01    3.8473499298e+01
    1.7100021362e+01    3.8474197388e+01
    1.7199914932e+01    3.8474899292e+01
    1.7299938202e+01    3.8475601196e+01
    1.7399885178e+01    3.8476299286e+01
    1.7499942780e+01    3.8476997375e+01
    1.7599973679e+01    3.8477699280e+01
    1.7699937820e+01    3.8478500366e+01
    1.7799867630e+01    3.8479202271e+01
    1.7899997711e+01    3.8479900360e+01
    1.7999948502e+01    3.8480697632e+01
    1.8099880219e+01    3.8481399536e+01
    1.8200000763e+01    3.8482200623e+01
    1.8299980164e+01    3.8482902527e+01
    1.8399932861e+01    3.8483699799e+01
    1.8499965668e+01    3.8484497070e+01
    1.8599903107e+01    3.8485198975e+01
    1.8699882507e+01    3.8486000061e+01
    1.8799877167e+01    3.8486801147e+01
    1.8899856567e+01    3.8487602234e+01
    1.9000017166e+01    3.8488399506e+01
    1.9099855423e+01    3.8489200592e+01
    1.9199947357e+01    3.8489997864e+01
    1.9299928665e+01    3.8490798950e+01
    1.9399908066e+01    3.8491699219e+01
    1.9500028610e+01    3.8492500305e+01
    1.9599920273e+01    3.8493301392e+01
    1.9700027466e+01    3.8494201660e+01
    1.9800006866e+01    3.8494998932e+01
    1.9899984360e+01    3.8495899200e+01
    1.9999956131e+01    3.8496700287e+01
    2.0100036621e+01    3.8497600555e+01
    2.0199945450e+01    3.8498500824e+01
    2.0299924850e+01    3.8499298096e+01
    2.0399900436e+01    3.8500198364e+01
    2.0499975204e+01    3.8501098633e+01
    2.0600008011e+01    3.8501998901e+01
    2.0699981689e+01    3.8502899170e+01
    2.0799993515e+01    3.8503799438e+01
    2.0899972916e+01    3.8504699707e+01
    2.0999952316e+01    3.8505699158e+01
    2.1099929810e+01    3.8506599426e+01
    2.1199909210e+01    3.8507499695e+01
    2.1299888611e+01    3.8508399963e+01
    2.1399866104e+01    3.8509399414e+01
    2.1500028610e+01    3.8510299683e+01
    2.1600006104e+01    3.8511299133e+01
    2.1699985504e+01    3.8512298584e+01
    2.1799964905e+01    3.8513198853e+01
    2.1899942398e+01    3.8514198303e+01
    2.1999921799e+01    3.8515197754e+01
    2.2099901199e+01    3.8516197205e+01
    2.2199878693e+01    3.8517200470e+01
    2.2300039291e+01    3.8518199921e+01
    2.2400018692e+01    3.8519199371e+01
    2.2499998093e+01    3.8520202637e+01
    2.2599977493e+01    3.8521202087e+01
    2.2699956894e+01    3.8522201538e+01
    2.2799934387e+01    3.8523300171e+01
    2.2899913788e+01    3.8524299622e+01
    2.2999891281e+01    3.8525299072e+01
    2.3099870682e+01    3.8526397705e+01
    2.3200031281e+01    3.8527500153e+01
    2.3300033569e+01    3.8528400421e+01
    2.3399997711e+01    3.8529499054e+01
    2.3499977112e+01    3.8530601501e+01
    2.3599956512e+01    3.8531600952e+01
    2.3699935913e+01    3.8532699585e+01
    2.3799913406e+01    3.8533798218e+01
    2.3899892807e+01    3.8534900665e+01
    2.4000053406e+01    3.8535999298e+01
    2.4100032806e+01    3.8537200928e+01
    2.4200010300e+01    3.8538299561e+01
    2.4299989700e+01    3.8539398193e+01
    2.4399969101e+01    3.8540500641e+01
    2.4499948502e+01    3.8541698456e+01
    2.4599925995e+01    3.8542800903e+01
    2.4699905396e+01    3.8543998718e+01
    2.4799894333e+01    3.8545200348e+01
    2.4900014877e+01    3.8546298981e+01
    2.4999992371e+01    3.8547500610e+01
    2.5099971771e+01    3.8548698425e+01
    2.5199951172e+01    3.8549900055e+01
    2.5300046921e+01    3.8551097870e+01
    2.5400009155e+01    3.8552299500e+01
    2.5499988556e+01    3.8553501129e+01
    2.5599939346e+01    3.8554698944e+01
    2.5699916840e+01    3.8555900574e+01
    2.5799896240e+01    3.8557201385e+01
    2.5900056839e+01    3.8558399200e+01
    2.5999889374e+01    3.8559600830e+01
    2.6100048065e+01    3.8560798645e+01
    2.6200027466e+01    3.8562000275e+01
    2.6299972534e+01    3.8563301086e+01
    2.6399951935e+01    3.8564598083e+01
    2.6499929428e+01    3.8565898895e+01
    2.6599908829e+01    3.8567100525e+01
    2.6700002670e+01    3.8568397522e+01
    2.6799957275e+01    3.8569702148e+01
    2.6899894714e+01    3.8570999146e+01
    2.7000055313e+01    3.8572399139e+01
    2.7100034714e+01    3.8573699951e+01
    2.7200012207e+01    3.8574996948e+01
    2.7299900055e+01    3.8576301575e+01
    2.7400028229e+01    3.8577697754e+01
    2.7500005722e+01    3.8579002380e+01
    2.7599899292e+01    3.8580398560e+01
    2.7700059891e+01    3.8581802368e+01
    2.7799909592e+01    3.8583099365e+01
    2.7899888992e+01    3.8584499359e+01
    2.7999937057e+01    3.8585800171e+01
    2.8099987030e+01    3.8587200165e+01
    2.8200065613e+01    3.8588600159e+01
    2.8300045013e+01    3.8590000153e+01
    2.8400022507e+01    3.8591400146e+01
    2.8499893188e+01    3.8592800140e+01
    2.8600055695e+01    3.8594299316e+01
    2.8700033188e+01    3.8595703125e+01
    2.8799894333e+01    3.8597099304e+01
    2.8900005341e+01    3.8598602295e+01
    2.8999940872e+01    3.8599998474e+01
    2.9099918365e+01    3.8601501465e+01
    2.9199945450e+01    3.8603000641e+01
    2.9300001144e+01    3.8604499817e+01
    2.9399980545e+01    3.8606002808e+01
    2.9499975204e+01    3.8607299805e+01
    2.9600055695e+01    3.8608901978e+01
    2.9699905396e+01    3.8610401154e+01
    2.9800067902e+01    3.8611900330e+01
    2.9899921417e+01    3.8613399506e+01
    2.9999914169e+01    3.8614898682e+01
    3.0100076675e+01    3.8616500854e+01
    3.0199974060e+01    3.8618000031e+01
    3.0299974442e+01    3.8619598389e+01
    3.0399929047e+01    3.8621200562e+01
    3.0499931335e+01    3.8622699738e+01
    3.0600036621e+01    3.8624301910e+01
    3.0699972153e+01    3.8625801086e+01
    3.0800075531e+01    3.8627399445e+01
    3.0900054932e+01    3.8629100800e+01
    3.0999954224e+01    3.8630699158e+01
    3.1100013733e+01    3.8632301331e+01
    3.1200025558e+01    3.8634002686e+01
    3.1299922943e+01    3.8635601044e+01
    3.1400070190e+01    3.8637298584e+01
    3.1500078201e+01    3.8638999939e+01
    3.1600004196e+01    3.8640701294e+01
    3.1699998856e+01    3.8642299652e+01
    3.1800037384e+01    3.8644001007e+01
    3.1899921417e+01    3.8645698547e+01
    3.1999902725e+01    3.8647399902e+01
    3.2099964142e+01    3.8649200439e+01
    3.2200077057e+01    3.8650901794e+01
    3.2299949646e+01    3.8652698517e+01
    3.2399917603e+01    3.8654499054e+01
    3.2500072479e+01    3.8656299591e+01
    3.2599998474e+01    3.8658100128e+01
    3.2699977875e+01    3.8659797668e+01
    3.2799968719e+01    3.8661598206e+01
    3.2900005341e+01    3.8663497925e+01
    3.2999874115e+01    3.8665298462e+01
    3.3100028992e+01    3.8667198181e+01
    3.3200046539e+01    3.8669097900e+01
    3.3300052643e+01    3.8670997620e+01
    3.3399971008e+01    3.8672897339e+01
    3.3499958038e+01    3.8674697876e+01
    3.3599884033e+01    3.8676700592e+01
    3.3700042725e+01    3.8678600311e+01
    3.3800022125e+01    3.8680599213e+01
    3.3899982452e+01    3.8682598114e+01
    3.3999961853e+01    3.8684600830e+01
    3.4099906921e+01    3.8686599731e+01
    3.4199863434e+01    3.8688598633e+01
    3.4299995422e+01    3.8690597534e+01
    3.4399978638e+01    3.8692699432e+01
    3.4499958038e+01    3.8694702148e+01
    3.4599891663e+01    3.8696800232e+01
    3.4699867249e+01    3.8698997498e+01
    3.4799888611e+01    3.8701099396e+01
    3.4899871826e+01    3.8703201294e+01
    3.5000011444e+01    3.8705299377e+01
    3.5100013733e+01    3.8707500458e+01
    3.5199993134e+01    3.8709701538e+01
    3.5299972534e+01    3.8711898804e+01
    3.5399955750e+01    3.8714099884e+01
    3.5499889374e+01    3.8716400146e+01
    3.5599948883e+01    3.8718601227e+01
    3.5699882507e+01    3.8720798492e+01
    3.5799861908e+01    3.8723098755e+01
    3.5900005341e+01    3.8725502014e+01
    3.5999912262e+01    3.8727798462e+01
    3.6099929810e+01    3.8730201721e+01
    3.6199874878e+01    3.8732601166e+01
    3.6299968719e+01    3.8734901428e+01
    3.6399852753e+01    3.8737300873e+01
    3.6499935150e+01    3.8739700317e+01
    3.6599956512e+01    3.8742202759e+01
    3.6699970245e+01    3.8744697571e+01
    3.6799850464e+01    3.8747200012e+01
    3.6899940491e+01    3.8749599457e+01
    3.6999992371e+01    3.8752101898e+01
    3.7100002289e+01    3.8754699707e+01
    3.7199901581e+01    3.8757301331e+01
    3.7299877167e+01    3.8759799957e+01
    3.7399986267e+01    3.8762397766e+01
    3.7499965668e+01    3.8765098572e+01
    3.7599887848e+01    3.8767799377e+01
    3.7699951172e+01    3.8770401001e+01
    3.7799861908e+01    3.8773097992e+01
    3.7899845123e+01    3.8775897980e+01
    3.7999931335e+01    3.8778499603e+01
    3.8099819183e+01    3.8781299591e+01
    3.8199821472e+01    3.8784198761e+01
    3.8299938202e+01    3.8786899567e+01
    3.8399887085e+01    3.8789802551e+01
    3.8499931335e+01    3.8792598724e+01
    3.8599960327e+01    3.8795501709e+01
    3.8699878693e+01    3.8798301697e+01
    3.8799839020e+01    3.8801300049e+01
    3.8899787903e+01    3.8804199219e+01
    3.8999862671e+01    3.8807201385e+01
    3.9099895477e+01    3.8810199738e+01
    3.9199871063e+01    3.8813301086e+01
    3.9299812317e+01    3.8816299438e+01
    3.9399883270e+01    3.8819297791e+01
    3.9499889374e+01    3.8822502136e+01
    3.9599948883e+01    3.8825599670e+01
    3.9699947357e+01    3.8828701019e+01
    3.9799804688e+01    3.8831802368e+01
    3.9899841309e+01    3.8834999084e+01
    3.9999847412e+01    3.8838298798e+01
    4.0099864960e+01    3.8841598511e+01
    4.0199844360e+01    3.8844799042e+01
    4.0299919128e+01    3.8848098755e+01
    4.0399860382e+01    3.8851402283e+01
    4.0499847412e+01    3.8854801178e+01
    4.0599826813e+01    3.8858200073e+01
    4.0699848175e+01    3.8861598969e+01
    4.0799789429e+01    3.8864997864e+01
    4.0899753571e+01    3.8868499756e+01
    4.0999816895e+01    3.8871902466e+01
    4.1099906921e+01    3.8875499725e+01
    4.1199794769e+01    3.8878997803e+01
    4.1299789429e+01    3.8882499695e+01
    4.1399856567e+01    3.8886199951e+01
    4.1499874115e+01    3.8889801025e+01
    4.1599918365e+01    3.8893402100e+01
    4.1699871063e+01    3.8897201538e+01
    4.1799789429e+01    3.8900802612e+01
    4.1899768829e+01    3.8904598236e+01
    4.1999748230e+01    3.8908401489e+01
    4.2099876404e+01    3.8912101746e+01
    4.2199825287e+01    3.8915901184e+01
    4.2299831390e+01    3.8919898987e+01
    4.2399902344e+01    3.8923698425e+01
    4.2499835968e+01    3.8927600861e+01
    4.2599895477e+01    3.8931602478e+01
    4.2699897766e+01    3.8935501099e+01
    4.2799755096e+01    3.8939601898e+01
    4.2899871826e+01    3.8943599701e+01
    4.2999797821e+01    3.8947700500e+01
    4.3099773407e+01    3.8951702118e+01
    4.3199787140e+01    3.8955898285e+01
    4.3299762726e+01    3.8959999084e+01
    4.3399868011e+01    3.8964199066e+01
    4.3499851227e+01    3.8968399048e+01
    4.3599819183e+01    3.8972599030e+01
    4.3699810028e+01    3.8976898193e+01
    4.3799842834e+01    3.8981300354e+01
    4.3899837494e+01    3.8985599518e+01
    4.3999881744e+01    3.8989898682e+01
    4.4099723816e+01    3.8994300842e+01
    4.4199779510e+01    3.8998802185e+01
    4.4299884796e+01    3.9003200531e+01
    4.4399761200e+01    3.9007701874e+01
    4.4499713898e+01    3.9012298584e+01
    4.4599727631e+01    3.9016799927e+01
    4.4699817657e+01    3.9021400452e+01
    4.4799774170e+01    3.9026000977e+01
    4.4899879456e+01    3.9030700684e+01
    4.4999774933e+01    3.9035400391e+01
    4.5099830627e+01    3.9040199280e+01
    4.5199764252e+01    3.9044898987e+01
    4.5299785614e+01    3.9049701691e+01
    4.5399765015e+01    3.9054599762e+01
    4.5499809265e+01    3.9059402466e+01
    4.5599861145e+01    3.9064399719e+01
    4.5699783325e+01    3.9069301605e+01
    4.5799854279e+01    3.9074298859e+01
    4.5899833679e+01    3.9079399109e+01
    4.5999687195e+01    3.9084400177e+01
    4.6099723816e+01    3.9089500427e+01
    4.6199859619e+01    3.9094699860e+01
    4.6299827576e+01    3.9099899292e+01
    4.6399806976e+01    3.9105098724e+01
    4.6499839783e+01    3.9110401154e+01
    4.6599693298e+01    3.9115699768e+01
    4.6699810028e+01    3.9121101379e+01
    4.6799777985e+01    3.9126499176e+01
    4.6899837494e+01    3.9131999969e+01
    4.6999725342e+01    3.9137500763e+01
    4.7099784851e+01    3.9143100739e+01
    4.7199775696e+01    3.9148696899e+01
    4.7299766541e+01    3.9154300690e+01
    4.7399726868e+01    3.9159999847e+01
    4.7499774933e+01    3.9165802002e+01
    4.7599731445e+01    3.9171600342e+01
    4.7699722290e+01    3.9177501678e+01
    4.7799648285e+01    3.9183300018e+01
    4.7899707794e+01    3.9189300537e+01
    4.7999797821e+01    3.9195301056e+01
    4.8099727631e+01    3.9201297760e+01
    4.8199733734e+01    3.9207500458e+01
    4.8299663544e+01    3.9213600159e+01
    4.8399677277e+01    3.9219898224e+01
    4.8499725342e+01    3.9226200104e+01
    4.8599727631e+01    3.9232501984e+01
    4.8699775696e+01    3.9238899231e+01
    4.8799686432e+01    3.9245300293e+01
    4.8899677277e+01    3.9251899719e+01
    4.8999771118e+01    3.9258399963e+01
    4.9099792480e+01    3.9265098572e+01
    4.9199817657e+01    3.9271797180e+01
    4.9299808502e+01    3.9278697968e+01
    4.9399662018e+01    3.9285499573e+01
    4.9499790192e+01    3.9292400360e+01
    4.9599681854e+01    3.9299400330e+01
    4.9699657440e+01    3.9306499481e+01
    4.9799659729e+01    3.9313598633e+01
    4.9899795532e+01    3.9320800781e+01
    4.9999782562e+01    3.9328098297e+01
    5.0099796295e+01    3.9335502625e+01
    5.0199726105e+01    3.9342899323e+01
    5.0299797058e+01    3.9350399017e+01
    5.0399623871e+01    3.9358100891e+01
    5.0499649048e+01    3.9365699768e+01
    5.0599761963e+01    3.9373500824e+01
    5.0699638367e+01    3.9381401062e+01
    5.0799739838e+01    3.9389301300e+01
    5.0899772644e+01    3.9397300720e+01
    5.0999698639e+01    3.9405399323e+01
    5.1099632263e+01    3.9413597107e+01
    5.1199668884e+01    3.9422000885e+01
    5.1299633026e+01    3.9430400848e+01
    5.1399646759e+01    3.9438899994e+01
    5.1499671936e+01    3.9447399139e+01
    5.1599651337e+01    3.9456100464e+01
    5.1699649811e+01    3.9465000153e+01
    5.1799671173e+01    3.9473899841e+01
    5.1899639130e+01    3.9482898712e+01
    5.1999626160e+01    3.9492099762e+01
    5.2099639893e+01    3.9501300812e+01
    5.2199745178e+01    3.9510597229e+01
    5.2299678802e+01    3.9520000458e+01
    5.2399589539e+01    3.9529598236e+01
    5.2499759674e+01    3.9539299011e+01
    5.2599597931e+01    3.9549098969e+01
    5.2699668884e+01    3.9558998108e+01
    5.2799655914e+01    3.9569099426e+01
    5.2899662018e+01    3.9579299927e+01
    5.2999603271e+01    3.9589599609e+01
    5.3099624634e+01    3.9599998474e+01
    5.3199623108e+01    3.9610500336e+01
    5.3299636841e+01    3.9621299744e+01
    5.3399600983e+01    3.9631999969e+01
    5.3499710083e+01    3.9642997742e+01
    5.3599742889e+01    3.9654098511e+01
    5.3699676514e+01    3.9665298462e+01
    5.3799709320e+01    3.9676700592e+01
    5.3899555206e+01    3.9688201904e+01
    5.3999679565e+01    3.9699897766e+01
    5.4099689484e+01    3.9711700439e+01
    5.4199588776e+01    3.9723701477e+01
    5.4299640656e+01    3.9735797882e+01
    5.4399639130e+01    3.9748100281e+01
    5.4499584198e+01    3.9760601044e+01
    5.4599617004e+01    3.9773200989e+01
    5.4699565887e+01    3.9785999298e+01
    5.4799556732e+01    3.9798896790e+01
    5.4899669647e+01    3.9812099457e+01
    5.4999721527e+01    3.9825401306e+01
    5.5099643707e+01    3.9838798523e+01
    5.5199588776e+01    3.9852500916e+01
    5.5299591064e+01    3.9866401672e+01
    5.5399711609e+01    3.9880500793e+01
    5.5499553680e+01    3.9894599915e+01
    5.5599632263e+01    3.9909000397e+01
    5.5699630737e+01    3.9923698425e+01
    5.5799583435e+01    3.9938400269e+01
    5.5899547577e+01    3.9953399658e+01
    5.5999694824e+01    3.9968601227e+01
    5.6099651337e+01    3.9984001160e+01
    5.6199661255e+01    3.9999599457e+01
    5.6299644470e+01    4.0015399933e+01
    5.6399620056e+01    4.0031398773e+01
    5.6499561310e+01    4.0047599792e+01
    5.6599605560e+01    4.0063999176e+01
    5.6699676514e+01    4.0080699921e+01
    5.6799694061e+01    4.0097499847e+01
    5.6899581909e+01    4.0114501953e+01
    5.6999664307e+01    4.0131801605e+01
    5.7099521637e+01    4.0149299622e+01
    5.7199573517e+01    4.0166999817e+01
    5.7299652100e+01    4.0184997559e+01
    5.7399566650e+01    4.0203201294e+01
    5.7499534607e+01    4.0221599579e+01
    5.7599613190e+01    4.0240299225e+01
    5.7699516296e+01    4.0259201050e+01
    5.7799560547e+01    4.0278198242e+01
    5.7899559021e+01    4.0297698975e+01
    5.7999599457e+01    4.0317298889e+01
    5.8099552155e+01    4.0337200165e+01
    5.8199630737e+01    4.0357299805e+01
    5.8299621582e+01    4.0377700806e+01
    5.8399654388e+01    4.0398399353e+01
    5.8499538422e+01    4.0419200897e+01
    5.8599605560e+01    4.0440399170e+01
    5.8699657440e+01    4.0461898804e+01
    5.8799510956e+01    4.0483497620e+01
    5.8899635315e+01    4.0505401611e+01
    5.8999519348e+01    4.0527599335e+01
    5.9099487305e+01    4.0550098419e+01
    5.9199577332e+01    4.0572799683e+01
    5.9299533844e+01    4.0595798492e+01
    5.9399608612e+01    4.0619102478e+01
    5.9499652863e+01    4.0642700195e+01
    5.9599491119e+01    4.0666400909e+01
    5.9699481964e+01    4.0690498352e+01
    5.9799549103e+01    4.0714900970e+01
    5.9899513245e+01    4.0739498138e+01
    5.9999534607e+01    4.0764400482e+01
    6.0099594116e+01    4.0789600372e+01
    6.0199577332e+01    4.0815002441e+01
    6.0299568176e+01    4.0840801239e+01
    6.0399543762e+01    4.0866699219e+01
    6.0499511719e+01    4.0892997742e+01
    6.0599643707e+01    4.0919601440e+01
    6.0699474335e+01    4.0946399689e+01
    6.0799583435e+01    4.0973499298e+01
    6.0899547577e+01    4.1000801086e+01
    6.0999534607e+01    4.1028598785e+01
    6.1099555969e+01    4.1056499481e+01
    6.1199542999e+01    4.1084701538e+01
    6.1299617767e+01    4.1113300323e+01
    6.1399463654e+01    4.1141998291e+01
    6.1499565125e+01    4.1171096802e+01
    6.1599567413e+01    4.1200401306e+01
    6.1699474335e+01    4.1230102539e+01
    6.1799495697e+01    4.1260101318e+01
    6.1899528503e+01    4.1290298462e+01
    6.1999446869e+01    4.1320701599e+01
    6.2099456787e+01    4.1351501465e+01
    6.2199558258e+01    4.1382698059e+01
    6.2299568176e+01    4.1414100647e+01
    6.2399612427e+01    4.1445800781e+01
    6.2499542236e+01    4.1477699280e+01
    6.2599494934e+01    4.1509899139e+01
    6.2699443817e+01    4.1542499542e+01
    6.2799594879e+01    4.1575302124e+01
    6.2899475098e+01    4.1608501434e+01
    6.2999519348e+01    4.1641899109e+01
    6.3099605560e+01    4.1675697327e+01
    6.3199459076e+01    4.1709598541e+01
    6.3299411774e+01    4.1743900299e+01
    6.3399559021e+01    4.1778598785e+01
    6.3499523163e+01    4.1813499451e+01
    6.3599521637e+01    4.1848800659e+01
    6.3699451447e+01    4.1884300232e+01
    6.3799533844e+01    4.1920200348e+01
    6.3899539948e+01    4.1956298828e+01
    6.3999584198e+01    4.1992698669e+01
    6.4099525452e+01    4.2029399872e+01
    6.4199478149e+01    4.2066398621e+01
    6.4299552917e+01    4.2103801727e+01
    6.4399475098e+01    4.2141498566e+01
    6.4499519348e+01    4.2179500580e+01
    6.4599403381e+01    4.2217697144e+01
    6.4699531555e+01    4.2256401062e+01
    6.4799514771e+01    4.2295398712e+01
    6.4899421692e+01    4.2334499359e+01
    6.4999511719e+01    4.2374099731e+01
    6.5099388123e+01    4.2414100647e+01
    6.5199470520e+01    4.2454402924e+01
    6.5299415588e+01    4.2494899750e+01
    6.5399490356e+01    4.2535900116e+01
    6.5499557495e+01    4.2577102661e+01
    6.5599426270e+01    4.2618698120e+01
    6.5699501038e+01    4.2660697937e+01
    6.5799392700e+01    4.2703002930e+01
    6.5899444580e+01    4.2745697021e+01
    6.5999542236e+01    4.2788799286e+01
    6.6099433899e+01    4.2832199097e+01
    6.6199401855e+01    4.2875900269e+01
    6.6299415588e+01    4.2920097351e+01
    6.6399406433e+01    4.2964500427e+01
    6.6499473572e+01    4.3009498596e+01
    6.6599479675e+01    4.3054698944e+01
    6.6699409485e+01    4.3100303650e+01
    6.6799362183e+01    4.3146358490e+01
    6.6899520874e+01    4.3192859650e+01
    6.6999542236e+01    4.3239669800e+01
    6.7099487305e+01    4.3286869049e+01
    6.7199432373e+01    4.3334556580e+01
    6.7299407959e+01    4.3382530212e+01
    6.7399467468e+01    4.3431079865e+01
    6.7499427795e+01    4.3479919434e+01
    6.7599449158e+01    4.3529338837e+01
    6.7699348450e+01    4.3579059601e+01
    6.7799346924e+01    4.3629238129e+01
    6.7899383545e+01    4.3679897308e+01
    6.7999496460e+01    4.3731029510e+01
    6.8099494934e+01    4.3782649994e+01
    6.8199501038e+01    4.3834640503e+01
    6.8299461365e+01    4.3887119293e+01
    6.8399467468e+01    4.3940059662e+01
    6.8499366760e+01    4.3993480682e+01
    6.8599411011e+01    4.4047458649e+01
    6.8699485779e+01    4.4101902008e+01
    6.8799461365e+01    4.4156822205e+01
    6.8899467468e+01    4.4212211609e+01
    6.8999481201e+01    4.4268161774e+01
    6.9099441528e+01    4.4324581146e+01
    6.9199386597e+01    4.4381561279e+01
    6.9299339294e+01    4.4438999176e+01
    6.9399459839e+01    4.4497180939e+01
    6.9499504089e+01    4.4555831909e+01
    6.9599388123e+01    4.4614852905e+01
    6.9699447632e+01    4.4674610138e+01
    6.9799484253e+01    4.4734916687e+01
    6.9899360657e+01    4.4795700073e+01
    6.9999504089e+01    4.4857200623e+01
    7.0099334717e+01    4.4919189453e+01
    7.0199325562e+01    4.4981803894e+01
    7.0299339294e+01    4.5045059204e+01
    7.0399330139e+01    4.5108860016e+01
    7.0499435425e+01    4.5173488617e+01
    7.0599441528e+01    4.5238567352e+01
    7.0699386597e+01    4.5304302216e+01
    7.0799461365e+01    4.5370750427e+01
    7.0899307251e+01    4.5437660217e+01
    7.0999343872e+01    4.5505481720e+01
    7.1099433899e+01    4.5573928833e+01
    7.1199310303e+01    4.5642929077e+01
    7.1299446106e+01    4.5712829590e+01
    7.1399353027e+01    4.5783279419e+01
    7.1499382019e+01    4.5854438782e+01
    7.1599472046e+01    4.5926506042e+01
    7.1699440002e+01    4.5999130249e+01
    7.1799453735e+01    4.6072551727e+01
    7.1899391174e+01    4.6146697998e+01
    7.1999305725e+01    4.6221572876e+01
    7.2099365234e+01    4.6297420502e+01
    7.2199279785e+01    4.6373817444e+01
    7.2299362183e+01    4.6451290131e+01
    7.2399421692e+01    4.6529468536e+01
    7.2499343872e+01    4.6608379364e+01
    7.2599281311e+01    4.6688190460e+01
    7.2699371338e+01    4.6768966675e+01
    7.2799430847e+01    4.6850563049e+01
    7.2899330139e+01    4.6932968140e+01
    7.2999328613e+01    4.7016357422e+01
    7.3099281311e+01    4.7100540161e+01
    7.3199447632e+01    4.7185878754e+01
    7.3299385071e+01    4.7272041321e+01
    7.3399375916e+01    4.7359081268e+01
    7.3499298096e+01    4.7447120667e+01
    7.3599441528e+01    4.7536190033e+01
    7.3699272156e+01    4.7626091003e+01
    7.3799293518e+01    4.7717041016e+01
    7.3899391174e+01    4.7809139252e+01
    7.3999343872e+01    4.7902149200e+01
    7.4099380493e+01    4.7996299744e+01
    7.4199317932e+01    4.8091239929e+01
    7.4299346924e+01    4.8187419891e+01
    7.4399353027e+01    4.8284660339e+01
    7.4499252319e+01    4.8382789612e+01
    7.4599349976e+01    4.8482330322e+01
    7.4699424744e+01    4.8582820892e+01
    7.4799247742e+01    4.8684120178e+01
    7.4899391174e+01    4.8786888123e+01
    7.4999412537e+01    4.8890731812e+01
    7.5099334717e+01    4.8995536804e+01
    7.5199378967e+01    4.9101650238e+01
    7.5299324036e+01    4.9208721161e+01
    7.5399322510e+01    4.9317008972e+01
    7.5499290466e+01    4.9426528931e+01
    7.5599227905e+01    4.9537189484e+01
    7.5699249268e+01    4.9649040222e+01
    7.5799346924e+01    4.9762199402e+01
    7.5899307251e+01    4.9876499176e+01
    7.5999336243e+01    4.9992099762e+01
    7.6099281311e+01    5.0108829498e+01
    7.6199226379e+01    5.0226760864e+01
    7.6299293518e+01    5.0346061707e+01
    7.6399330139e+01    5.0466659546e+01
    7.6499252319e+01    5.0588394165e+01
    7.6599395752e+01    5.0711662292e+01
    7.6699302673e+01    5.0835968018e+01
    7.6799316406e+01    5.0961730957e+01
    7.6899299622e+01    5.1088691711e+01
    7.6999275208e+01    5.1217010498e+01
    7.7099327087e+01    5.1346790314e+01
    7.7199363708e+01    5.1477840424e+01
    7.7299240112e+01    5.1610099792e+01
    7.7399230957e+01    5.1743789673e+01
    7.7499382019e+01    5.1879180908e+01
    7.7599212646e+01    5.2015419006e+01
    7.7699317932e+01    5.2153430939e+01
    7.7799308777e+01    5.2292701721e+01
    7.7899299622e+01    5.2433319092e+01
    7.7999259949e+01    5.2575279236e+01
    7.8099372864e+01    5.2719009399e+01
    7.8199226379e+01    5.2863658905e+01
    7.8299278259e+01    5.3010162354e+01
    7.8399345398e+01    5.3157958984e+01
    7.8499374390e+01    5.3307300568e+01
    7.8599197388e+01    5.3457691193e+01
    7.8699287415e+01    5.3609867096e+01
    7.8799240112e+01    5.3763366699e+01
    7.8899223328e+01    5.3918292999e+01
    7.8999237061e+01    5.4074630737e+01
    7.9099281311e+01    5.4232448578e+01
    7.9199264526e+01    5.4391567230e+01
    7.9299247742e+01    5.4552040100e+01
    7.9399192810e+01    5.4713760376e+01
    7.9499221802e+01    5.4877079010e+01
    7.9599281311e+01    5.5041790009e+01
    7.9699272156e+01    5.5207740784e+01
    7.9799339294e+01    5.5375171661e+01
    7.9899269104e+01    5.5543857574e+01
    7.9999191284e+01    5.5713871002e+01
    8.0099250793e+01    5.5885547638e+01
    8.0199195862e+01    5.6058509827e+01
    8.0299194336e+01    5.6233081818e+01
    8.0399238586e+01    5.6409179688e+01
    8.0499176025e+01    5.6586688995e+01
    8.0599311829e+01    5.6765953064e+01
    8.0699165344e+01    5.6946411133e+01
    8.0799263000e+01    5.7128810883e+01
    8.0899192810e+01    5.7312450409e+01
    8.0999336243e+01    5.7498149872e+01
    8.1099151611e+01    5.7684837341e+01
    8.1199150085e+01    5.7873477936e+01
    8.1299186707e+01    5.8063732147e+01
    8.1399322510e+01    5.8255817413e+01
    8.1499267578e+01    5.8449199677e+01
    8.1599235535e+01    5.8644130707e+01
    8.1699295044e+01    5.8840847015e+01
    8.1799293518e+01    5.9039020538e+01
    8.1899299622e+01    5.9238800049e+01
    8.1999244690e+01    5.9440002441e+01
    8.2099273682e+01    5.9643032074e+01
    8.2199211121e+01    5.9847358704e+01
    8.2299263000e+01    6.0053501129e+01
    8.2399169922e+01    6.0261047363e+01
    8.2499214172e+01    6.0470382690e+01
    8.2599212646e+01    6.0681270599e+01
    8.2699279785e+01    6.0893867493e+01
    8.2799293518e+01    6.1108032227e+01
    8.2899238586e+01    6.1323661804e+01
    8.2999275208e+01    6.1541160583e+01
    8.3099128723e+01    6.1759899139e+01
    8.3199157715e+01    6.1980720520e+01
    8.3299125671e+01    6.2203052521e+01
    8.3399238586e+01    6.2427249908e+01
    8.3499153137e+01    6.2652610779e+01
    8.3599197388e+01    6.2879890442e+01
    8.3699272156e+01    6.3108833313e+01
    8.3799102783e+01    6.3338783264e+01
    8.3899124146e+01    6.3570728302e+01
    8.3999214172e+01    6.3804328918e+01
    8.4099159241e+01    6.4039108276e+01
    8.4199150085e+01    6.4275611877e+01
    8.4299255371e+01    6.4513771057e+01
    8.4399101257e+01    6.4752960205e+01
    8.4499107361e+01    6.4993957520e+01
    8.4599250793e+01    6.5236892700e+01
    8.4699256897e+01    6.5481147766e+01
    8.4799224854e+01    6.5726890564e+01
    8.4899223328e+01    6.5974250793e+01
    8.4999206543e+01    6.6223289490e+01
    8.5099128723e+01    6.6473831177e+01
    8.5199150085e+01    6.6726280212e+01
    8.5299095154e+01    6.6980369568e+01
    8.5399192810e+01    6.7236511230e+01
    8.5499191284e+01    6.7494087219e+01
    8.5599205017e+01    6.7753341675e+01
    8.5699157715e+01    6.8014289856e+01
    8.5799095154e+01    6.8276771545e+01
    8.5899246216e+01    6.8541564941e+01
    8.5999191284e+01    6.8807510376e+01
    8.6099220276e+01    6.9075241089e+01
    8.6199089050e+01    6.9344131470e+01
    8.6299217224e+01    6.9615463257e+01
    8.6399238586e+01    6.9887863159e+01
    8.6499160767e+01    7.0161689758e+01
    8.6599182129e+01    7.0437225342e+01
    8.6699188232e+01    7.0714279175e+01
    8.6799110413e+01    7.0992584229e+01
    8.6899101257e+01    7.1272483826e+01
    8.6999191284e+01    7.1554206848e+01
    8.7099159241e+01    7.1836990356e+01
    8.7199157715e+01    7.2121276855e+01
    8.7299110413e+01    7.2406913757e+01
    8.7399154663e+01    7.2694252014e+01
    8.7499229431e+01    7.2983154297e+01
    8.7599128723e+01    7.3272834778e+01
    8.7699188232e+01    7.3564407349e+01
    8.7799064636e+01    7.3856880188e+01
    8.7899070740e+01    7.4151039124e+01
    8.7999122620e+01    7.4446777344e+01
    8.8099159241e+01    7.4743751526e+01
    8.8199165344e+01    7.5041946411e+01
    8.8299118042e+01    7.5341178894e+01
    8.8399032593e+01    7.5641616821e+01
    8.8499122620e+01    7.5943763733e+01
    8.8599128723e+01    7.6246925354e+01
    8.8699188232e+01    7.6551399231e+01
    8.8799118042e+01    7.6856605530e+01
    8.8899032593e+01    7.7162956238e+01
    8.8999153137e+01    7.7471061707e+01
    8.9099052429e+01    7.7779541016e+01
    8.9199134827e+01    7.8089706421e+01
    8.9299079895e+01    7.8400604248e+01
    8.9399177551e+01    7.8712905884e+01
    8.9499145508e+01    7.9025939941e+01
    8.9599090576e+01    7.9339820862e+01
    8.9699157715e+01    7.9655151367e+01
    8.9799018860e+01    7.9970779419e+01
    8.9899078369e+01    8.0288024902e+01
    8.9999183655e+01    8.0606285095e+01
    9.0099098206e+01    8.0924911499e+01
    9.0199127197e+01    8.1244712830e+01
    9.0299102783e+01    8.1565124512e+01
    9.0399101257e+01    8.1886398315e+01
    9.0499069214e+01    8.2208290100e+01
    9.0599182129e+01    8.2531311035e+01
    9.0699073792e+01    8.2854232788e+01
    9.0799018860e+01    8.3177917480e+01
    9.0899108887e+01    8.3502540588e+01
    9.0999076843e+01    8.3827346802e+01
    9.1099143982e+01    8.4152900696e+01
    9.1199012756e+01    8.4478210449e+01
    9.1299118042e+01    8.4804588318e+01
    9.1399162292e+01    8.5131225586e+01
    9.1499046326e+01    8.5457405090e+01
    9.1599029541e+01    8.5784248352e+01
    9.1699043274e+01    8.6111343384e+01
    9.1799110413e+01    8.6438751221e+01
    9.1899040222e+01    8.6765800476e+01
    9.1998985291e+01    8.7093032837e+01
    9.2099159241e+01    8.7420989990e+01
    9.2199096680e+01    8.7748306274e+01
    9.2299087524e+01    8.8075630188e+01
    9.2399154663e+01    8.8403091431e+01
    9.2499130249e+01    8.8730140686e+01
    9.2599159241e+01    8.9057250977e+01
    9.2699089050e+01    8.9383743286e+01
    9.2799064636e+01    8.9710052490e+01
    9.2899101257e+01    9.0036300659e+01
    9.2999107361e+01    9.0361999512e+01
    9.3098968506e+01    9.0686836243e+01
    9.3199089050e+01    9.1012054443e+01
    9.3299011230e+01    9.1336105347e+01
    9.3399131775e+01    9.1660125732e+01
    9.3499130249e+01    9.1983207703e+01
    9.3599021912e+01    9.2304908752e+01
    9.3699073792e+01    9.2627502441e+01
    9.3799064636e+01    9.2947906494e+01
    9.3898979187e+01    9.3268127441e+01
    9.3999092102e+01    9.3587554932e+01
    9.4098960876e+01    9.3905151367e+01
    9.4199020386e+01    9.4222923279e+01
    9.4299057007e+01    9.4539352417e+01
    9.4399078369e+01    9.4854400635e+01
    9.4498985291e+01    9.5168296814e+01
    9.4598953247e+01    9.5481597900e+01
    9.4698951721e+01    9.5793296814e+01
    9.4799095154e+01    9.6104202271e+01
    9.4899047852e+01    9.6413002014e+01
    9.4999023438e+01    9.6720306396e+01
    9.5099113464e+01    9.7025695801e+01
    9.5198982239e+01    9.7330101013e+01
    9.5299026489e+01    9.7632499695e+01
    9.5398956299e+01    9.7933494568e+01
    9.5498924255e+01    9.8232894897e+01
    9.5599044800e+01    9.8530105591e+01
    9.5699043274e+01    9.8826103210e+01
    9.5799049377e+01    9.9119400024e+01
    9.5899040222e+01    9.9411094666e+01
    9.5999092102e+01    9.9701904297e+01
    9.6098960876e+01    9.9988601685e+01
    9.6198951721e+01    1.0027529907e+02
    9.6298980713e+01    1.0055909729e+02
    9.6398971558e+01    1.0084049988e+02
    9.6498916626e+01    1.0112019348e+02
    9.6599067688e+01    1.0139869690e+02
    9.6698989868e+01    1.0167420197e+02
    9.6798934937e+01    1.0194689941e+02
    9.6898979187e+01    1.0221859741e+02
    9.6999046326e+01    1.0248759460e+02
    9.7099044800e+01    1.0275499725e+02
    9.7199020386e+01    1.0301979828e+02
    9.7299049377e+01    1.0328170013e+02
    9.7398963928e+01    1.0354229736e+02
    9.7498992920e+01    1.0379969788e+02
    9.7598976135e+01    1.0405549622e+02
    9.7699035645e+01    1.0430929565e+02
    9.7799026489e+01    1.0456050110e+02
    9.7898933411e+01    1.0480819702e+02
    9.7998893738e+01    1.0505489349e+02
    9.8099014282e+01    1.0529930115e+02
    9.8198966980e+01    1.0554049683e+02
    9.8298995972e+01    1.0577960205e+02
    9.8399063110e+01    1.0601670074e+02
    9.8499008179e+01    1.0625149536e+02
    9.8598922729e+01    1.0648249817e+02
    9.8699012756e+01    1.0671309662e+02
    9.8798919678e+01    1.0693959045e+02
    9.8898887634e+01    1.0716500854e+02
    9.8998947144e+01    1.0738719940e+02
    9.9098922729e+01    1.0760679626e+02
    9.9198905945e+01    1.0782460022e+02
    9.9299026489e+01    1.0804010010e+02
    9.9398887634e+01    1.0825260162e+02
    9.9498886108e+01    1.0846389771e+02
    9.9598937988e+01    1.0867200470e+02
    9.9698875427e+01    1.0887770844e+02
    9.9799011230e+01    1.0908080292e+02
    9.9898880005e+01    1.0928209686e+02
    9.9998916626e+01    1.0948089600e+02
    1.0009898376e+02    1.0967669678e+02
    1.0019901276e+02    1.0987070465e+02
    1.0029888153e+02    1.1006269836e+02
    1.0039897156e+02    1.1025180054e+02
    1.0049886322e+02    1.1043899536e+02
    1.0059887695e+02    1.1062380981e+02
    1.0069898987e+02    1.1080640411e+02
    1.0079895020e+02    1.1098680115e+02
    1.0089888000e+02    1.1116549683e+02
    1.0099902344e+02    1.1134150696e+02
    1.0109890747e+02    1.1151590729e+02
    1.0119895935e+02    1.1168769836e+02
    1.0129898071e+02    1.1185791016e+02
    1.0139884186e+02    1.1202600098e+02
    1.0149897766e+02    1.1219210052e+02
    1.0159896088e+02    1.1235720825e+02
    1.0169901276e+02    1.1251910400e+02
    1.0179888916e+02    1.1268009949e+02
    1.0189885712e+02    1.1283789062e+02
    1.0199887085e+02    1.1299579620e+02
    1.0209892273e+02    1.1315069580e+02
    1.0219895172e+02    1.1330400085e+02
    1.0229886627e+02    1.1345600128e+02
    1.0239884949e+02    1.1360599518e+02
    1.0249887848e+02    1.1375500488e+02
    1.0259882355e+02    1.1390160370e+02
    1.0269882965e+02    1.1404729462e+02
    1.0279894257e+02    1.1419070435e+02
    1.0289895630e+02    1.1433279419e+02
    1.0299897003e+02    1.1447429657e+02
    1.0309899139e+02    1.1461400604e+02
    1.0319895935e+02    1.1475220490e+02
    1.0329891968e+02    1.1488879395e+02
    1.0339891052e+02    1.1502450562e+02
    1.0349896240e+02    1.1515830994e+02
    1.0359893036e+02    1.1529089355e+02
    1.0369883728e+02    1.1542300415e+02
    1.0379885864e+02    1.1555310059e+02
    1.0389882660e+02    1.1568269348e+02
    1.0399883270e+02    1.1581059265e+02
    1.0409889221e+02    1.1593850708e+02
    1.0419880676e+02    1.1606469727e+02
    1.0429889679e+02    1.1618930054e+02
    1.0439891052e+02    1.1631379700e+02
    1.0449891663e+02    1.1643659973e+02
    1.0459883881e+02    1.1655938721e+02
    1.0469879913e+02    1.1668039703e+02
    1.0479891205e+02    1.1680009460e+02
    1.0489888000e+02    1.1691999817e+02
    1.0499891663e+02    1.1703799438e+02
    1.0509883881e+02    1.1715610504e+02
    1.0519883728e+02    1.1727319336e+02
    1.0529891968e+02    1.1738839722e+02
    1.0539893341e+02    1.1750450134e+02
    1.0549877930e+02    1.1761789703e+02
    1.0559877777e+02    1.1773199463e+02
    1.0569882202e+02    1.1784439087e+02
    1.0579882050e+02    1.1795649719e+02
    1.0589894104e+02    1.1806759644e+02
    1.0599880981e+02    1.1817749786e+02
    1.0609880066e+02    1.1828730774e+02
    1.0619885254e+02    1.1839639282e+02
    1.0629882050e+02    1.1850450134e+02
    1.0639891052e+02    1.1861239624e+02
    1.0649893951e+02    1.1871940613e+02
    1.0659883881e+02    1.1882460022e+02
    1.0669889069e+02    1.1893070984e+02
    1.0679881287e+02    1.1903500366e+02
    1.0689884186e+02    1.1913949585e+02
    1.0699884033e+02    1.1924280548e+02
    1.0709880829e+02    1.1934589386e+02
    1.0719886780e+02    1.1944819641e+02
    1.0729879761e+02    1.1955001068e+02
    1.0739878845e+02    1.1965110016e+02
    1.0749883270e+02    1.1975179291e+02
    1.0759886169e+02    1.1985119629e+02
    1.0769876099e+02    1.1995119476e+02
    1.0779891968e+02    1.2005039978e+02
    1.0789875793e+02    1.2014830017e+02
    1.0799877167e+02    1.2024600220e+02
    1.0809886169e+02    1.2034310150e+02
    1.0819877625e+02    1.2044010162e+02
    1.0829888916e+02    1.2053669739e+02
    1.0839885712e+02    1.2063311005e+02
    1.0849880981e+02    1.2072750092e+02
    1.0859886169e+02    1.2082320404e+02
    1.0869876099e+02    1.2091769409e+02
    1.0879885864e+02    1.2101080322e+02
    1.0889885712e+02    1.2110450745e+02
    1.0899883270e+02    1.2119740295e+02
    1.0909889984e+02    1.2129049683e+02
    1.0919877625e+02    1.2138169098e+02
    1.0929888153e+02    1.2147360229e+02
    1.0939888763e+02    1.2156490326e+02
    1.0949877167e+02    1.2165509796e+02
    1.0959887695e+02    1.2174569702e+02
    1.0969872284e+02    1.2183509827e+02
    1.0979878235e+02    1.2192399597e+02
    1.0989871979e+02    1.2201159668e+02
    1.0999873352e+02    1.2209989166e+02
    1.1009877777e+02    1.2218690491e+02
    1.1019876099e+02    1.2227419281e+02
    1.1029882812e+02    1.2236009216e+02
    1.1039881897e+02    1.2244550323e+02
    1.1049880219e+02    1.2253110504e+02
    1.1059879303e+02    1.2261550140e+02
    1.1069875336e+02    1.2269919586e+02
    1.1079875183e+02    1.2278269958e+02
    1.1089877319e+02    1.2286609650e+02
    1.1099881744e+02    1.2294829559e+02
    1.1109886169e+02    1.2302969360e+02
    1.1119877625e+02    1.2310999298e+02
    1.1129875183e+02    1.2319090271e+02
    1.1139875793e+02    1.2327059937e+02
    1.1149874878e+02    1.2334969330e+02
    1.1159883881e+02    1.2342799377e+02
    1.1169882202e+02    1.2350629425e+02
    1.1179873657e+02    1.2358300781e+02
    1.1189868164e+02    1.2365990448e+02
    1.1199877167e+02    1.2373609924e+02
    1.1209867859e+02    1.2381170654e+02
    1.1219869995e+02    1.2388790894e+02
    1.1229878235e+02    1.2396299744e+02
    1.1239877319e+02    1.2403690338e+02
    1.1249881744e+02    1.2411069489e+02
    1.1259880829e+02    1.2418419647e+02
    1.1269880676e+02    1.2425679779e+02
    1.1279876709e+02    1.2432889557e+02
    1.1289871216e+02    1.2440000153e+02
    1.1299874115e+02    1.2447200775e+02
    1.1309873199e+02    1.2454099274e+02
    1.1319876099e+02    1.2461099243e+02
    1.1329876709e+02    1.2468099976e+02
    1.1339871979e+02    1.2474800873e+02
    1.1349874878e+02    1.2481700897e+02
    1.1359870148e+02    1.2488400269e+02
    1.1369877625e+02    1.2495100403e+02
    1.1379875946e+02    1.2501799774e+02
    1.1389868927e+02    1.2508399963e+02
    1.1399864960e+02    1.2515000916e+02
    1.1409873199e+02    1.2521500397e+02
    1.1419864655e+02    1.2528100586e+02
    1.1429869843e+02    1.2534600067e+02
    1.1439881134e+02    1.2541099548e+02
    1.1449880219e+02    1.2547500610e+02
    1.1459864044e+02    1.2553900146e+02
    1.1469867706e+02    1.2560299683e+02
    1.1479863739e+02    1.2566600037e+02
    1.1489878082e+02    1.2573000336e+02
    1.1499873352e+02    1.2579200745e+02
    1.1509877014e+02    1.2585500336e+02
    1.1519870758e+02    1.2591600037e+02
    1.1529865265e+02    1.2597698975e+02
    1.1539878845e+02    1.2603900146e+02
    1.1549873352e+02    1.2609999847e+02
    1.1559879303e+02    1.2616000366e+02
    1.1569866180e+02    1.2622000885e+02
    1.1579869843e+02    1.2627899170e+02
    1.1589862061e+02    1.2633799744e+02
    1.1599880219e+02    1.2639699554e+02
    1.1609874725e+02    1.2645499420e+02
    1.1619866943e+02    1.2651399231e+02
    1.1629875183e+02    1.2657099915e+02
    1.1639865875e+02    1.2662899780e+02
    1.1649861908e+02    1.2668700409e+02
    1.1659867859e+02    1.2674300385e+02
    1.1669873047e+02    1.2680099487e+02
    1.1679862976e+02    1.2685700989e+02
    1.1689875793e+02    1.2691500854e+02
    1.1699868011e+02    1.2697099304e+02
    1.1709873962e+02    1.2702799988e+02
    1.1719870758e+02    1.2708502197e+02
    1.1729875946e+02    1.2714201355e+02
    1.1739871216e+02    1.2719799805e+02
    1.1749874115e+02    1.2725500488e+02
    1.1759867859e+02    1.2731201172e+02
    1.1769863892e+02    1.2736799622e+02
    1.1779875946e+02    1.2742498779e+02
    1.1789865875e+02    1.2748298645e+02
    1.1799871826e+02    1.2753999329e+02
    1.1809874725e+02    1.2759701538e+02
    1.1819860077e+02    1.2765499878e+02
    1.1829866028e+02    1.2771199036e+02
    1.1839859009e+02    1.2777000427e+02
    1.1849867249e+02    1.2782798767e+02
    1.1859863281e+02    1.2788600159e+02
    1.1869863129e+02    1.2794299316e+02
    1.1879866028e+02    1.2800100708e+02
    1.1889869690e+02    1.2805700684e+02
    1.1899873352e+02    1.2811399841e+02
    1.1909863281e+02    1.2816998291e+02
    1.1919863129e+02    1.2822598267e+02
    1.1929865265e+02    1.2828199768e+02
    1.1939871979e+02    1.2833798218e+02
    1.1949868774e+02    1.2839100647e+02
    1.1959867859e+02    1.2844700623e+02
    1.1969863129e+02    1.2850000000e+02
    1.1979872131e+02    1.2855299377e+02
    1.1989859772e+02    1.2860699463e+02
    1.1999855042e+02    1.2865998840e+02
    1.2009873199e+02    1.2871400452e+02
    1.2019869995e+02    1.2876600647e+02
    1.2029872131e+02    1.2881900024e+02
    1.2039862061e+02    1.2887199402e+02
    1.2049871826e+02    1.2892498779e+02
    1.2059861755e+02    1.2897799683e+02
    1.2069856262e+02    1.2902999878e+02
    1.2079857635e+02    1.2908299255e+02
    1.2089865875e+02    1.2913499451e+02
    1.2099859619e+02    1.2918798828e+02
    1.2109870911e+02    1.2923901367e+02
    1.2119856262e+02    1.2929098511e+02
    1.2129866791e+02    1.2934199524e+02
    1.2139862823e+02    1.2939201355e+02
    1.2149861908e+02    1.2944299316e+02
    1.2159868622e+02    1.2949200439e+02
    1.2169869995e+02    1.2954200745e+02
    1.2179859161e+02    1.2959098816e+02
    1.2189866638e+02    1.2963899231e+02
    1.2199871063e+02    1.2968701172e+02
    1.2209858704e+02    1.2973399353e+02
    1.2219856262e+02    1.2977998352e+02
    1.2229868317e+02    1.2982699585e+02
    1.2239865875e+02    1.2987200928e+02
    1.2249854279e+02    1.2991801453e+02
    1.2259858704e+02    1.2996200562e+02
    1.2269857025e+02    1.3000601196e+02
    1.2279859161e+02    1.3005001831e+02
    1.2289852905e+02    1.3009298706e+02
    1.2299855804e+02    1.3013500977e+02
    1.2309851837e+02    1.3017901611e+02
    1.2319864655e+02    1.3021998596e+02
    1.2329865265e+02    1.3026300049e+02
    1.2339865875e+02    1.3030401611e+02
    1.2349861145e+02    1.3034500122e+02
    1.2359854889e+02    1.3038600159e+02
    1.2369851685e+02    1.3042700195e+02
    1.2379850769e+02    1.3046800232e+02
    1.2389852905e+02    1.3050701904e+02
    1.2399849701e+02    1.3054701233e+02
    1.2409861755e+02    1.3058699036e+02
    1.2419853210e+02    1.3062600708e+02
    1.2429857635e+02    1.3066499329e+02
    1.2439859772e+02    1.3070399475e+02
    1.2449849701e+02    1.3074200439e+02
    1.2459858704e+02    1.3077899170e+02
    1.2469857788e+02    1.3081700134e+02
    1.2479859161e+02    1.3085400391e+02
    1.2489859009e+02    1.3089001465e+02
    1.2499858856e+02    1.3092698669e+02
    1.2509864807e+02    1.3096200562e+02
    1.2519863129e+02    1.3099700928e+02
    1.2529850769e+02    1.3103199768e+02
    1.2539852905e+02    1.3106799316e+02
    1.2549848175e+02    1.3110200500e+02
    1.2559854889e+02    1.3113600159e+02
    1.2569860840e+02    1.3116998291e+02
    1.2579856110e+02    1.3120399475e+02
    1.2589846802e+02    1.3123898315e+02
    1.2599851227e+02    1.3127198792e+02
    1.2609861755e+02    1.3130599976e+02
    1.2619863129e+02    1.3133998108e+02
    1.2629857635e+02    1.3137400818e+02
    1.2639861298e+02    1.3140600586e+02
    1.2649851990e+02    1.3144000244e+02
    1.2659850311e+02    1.3147399902e+02
    1.2669863129e+02    1.3150700378e+02
    1.2679847717e+02    1.3153999329e+02
    1.2689852905e+02    1.3157400513e+02
    1.2699857330e+02    1.3160699463e+02
    1.2709855652e+02    1.3163999939e+02
    1.2719846344e+02    1.3167300415e+02
    1.2729859924e+02    1.3170599365e+02
    1.2739846802e+02    1.3173800659e+02
    1.2749849701e+02    1.3177101135e+02
    1.2759854126e+02    1.3180499268e+02
    1.2769860077e+02    1.3183700562e+02
    1.2779853058e+02    1.3186900330e+02
    1.2789853668e+02    1.3190200806e+02
    1.2799851990e+02    1.3193399048e+02
    1.2809844971e+02    1.3196598816e+02
    1.2819856262e+02    1.3199798584e+02
    1.2829849243e+02    1.3202999878e+02
    1.2839846802e+02    1.3206298828e+02
    1.2849848938e+02    1.3209498596e+02
    1.2859855652e+02    1.3212800598e+02
    1.2869860840e+02    1.3215998840e+02
    1.2879864502e+02    1.3219198608e+02
    1.2889857483e+02    1.3222499084e+02
    1.2899861145e+02    1.3225801086e+02
    1.2909854126e+02    1.3229200745e+02
    1.2919859314e+02    1.3232600403e+02
    1.2929867554e+02    1.3236000061e+02
    1.2939851379e+02    1.3239401245e+02
    1.2949861145e+02    1.3242799377e+02
    1.2959860229e+02    1.3246200562e+02
    1.2969868469e+02    1.3249800110e+02
    1.2979858398e+02    1.3253300476e+02
    1.2989866638e+02    1.3256898499e+02
    1.2999865723e+02    1.3260400391e+02
    1.3009860229e+02    1.3263999939e+02
    1.3019865417e+02    1.3267599487e+02
    1.3029856873e+02    1.3271301270e+02
    1.3039872742e+02    1.3275000000e+02
    1.3049862671e+02    1.3278700256e+02
    1.3059864807e+02    1.3282398987e+02
    1.3069868469e+02    1.3286199951e+02
    1.3079873657e+02    1.3289997864e+02
    1.3089874268e+02    1.3293800354e+02
    1.3099870300e+02    1.3297798157e+02
    1.3109878540e+02    1.3301701355e+02
    1.3119871521e+02    1.3305700684e+02
    1.3129878235e+02    1.3309698486e+02
    1.3139874268e+02    1.3313699341e+02
    1.3149880981e+02    1.3317800903e+02
    1.3159866333e+02    1.3322000122e+02
    1.3169879150e+02    1.3326200867e+02
    1.3179879761e+02    1.3330401611e+02
    1.3189874268e+02    1.3334698486e+02
    1.3199877930e+02    1.3339099121e+02
    1.3209869385e+02    1.3343499756e+02
    1.3219873047e+02    1.3348001099e+02
    1.3229872131e+02    1.3352499390e+02
    1.3239874268e+02    1.3357098389e+02
    1.3249876404e+02    1.3361801147e+02
    1.3259887695e+02    1.3366598511e+02
    1.3269888306e+02    1.3371401978e+02
    1.3279882812e+02    1.3376199341e+02
    1.3289874268e+02    1.3381100464e+02
    1.3299876404e+02    1.3385998535e+02
    1.3309890747e+02    1.3391101074e+02
    1.3319885254e+02    1.3396301270e+02
    1.3329887390e+02    1.3401498413e+02
    1.3339889526e+02    1.3406701660e+02
    1.3349893188e+02    1.3412100220e+02
    1.3359878540e+02    1.3417498779e+02
    1.3369886780e+02    1.3423001099e+02
    1.3379879761e+02    1.3428500366e+02
    1.3389880371e+02    1.3434100342e+02
    1.3399896240e+02    1.3439801025e+02
    1.3409890747e+02    1.3445602417e+02
    1.3419880676e+02    1.3451400757e+02
    1.3429890442e+02    1.3457299805e+02
    1.3439884949e+02    1.3463299561e+02
    1.3449890137e+02    1.3469400024e+02
    1.3459884644e+02    1.3475500488e+02
    1.3469883728e+02    1.3481799316e+02
    1.3479890442e+02    1.3488098145e+02
    1.3489892578e+02    1.3494400024e+02
    1.3499899292e+02    1.3500900269e+02
    1.3509895325e+02    1.3507400513e+02
    1.3519894409e+02    1.3514001465e+02
    1.3529896545e+02    1.3520599365e+02
    1.3539895630e+02    1.3527301025e+02
    1.3549902344e+02    1.3534197998e+02
    1.3559902954e+02    1.3540899658e+02
    1.3569906616e+02    1.3547799683e+02
    1.3579893494e+02    1.3554699707e+02
    1.3589901733e+02    1.3561700439e+02
    1.3599891663e+02    1.3568798828e+02
    1.3609898376e+02    1.3575900269e+02
    1.3619902039e+02    1.3582998657e+02
    1.3629899597e+02    1.3590200806e+02
    1.3639898682e+02    1.3597399902e+02
    1.3649911499e+02    1.3604699707e+02
    1.3659907532e+02    1.3611898804e+02
    1.3669900513e+02    1.3619299316e+02
    1.3679896545e+02    1.3626602173e+02
    1.3689915466e+02    1.3634100342e+02
    1.3699911499e+02    1.3641500854e+02
    1.3709915161e+02    1.3648999023e+02
    1.3719905090e+02    1.3656500244e+02
    1.3729902649e+02    1.3664099121e+02
    1.3739912415e+02    1.3671798706e+02
    1.3749906921e+02    1.3679397583e+02
    1.3759913635e+02    1.3686999512e+02
    1.3769905090e+02    1.3694702148e+02
    1.3779916382e+02    1.3702499390e+02
    1.3789912415e+02    1.3710299683e+02
    1.3799920654e+02    1.3718200684e+02
    1.3809921265e+02    1.3725997925e+02
    1.3819918823e+02    1.3733901978e+02
    1.3829913330e+02    1.3741799927e+02
    1.3839910889e+02    1.3749899292e+02
    1.3849919128e+02    1.3758200073e+02
    1.3859915161e+02    1.3766598511e+02
    1.3869921875e+02    1.3775097656e+02
    1.3879910278e+02    1.3783798218e+02
    1.3889909363e+02    1.3792599487e+02
    1.3899926758e+02    1.3801599121e+02
    1.3909924316e+02    1.3810702515e+02
    1.3919912720e+02    1.3819799805e+02
    1.3929913330e+02    1.3829098511e+02
    1.3939921570e+02    1.3838500977e+02
    1.3949923706e+02    1.3847900391e+02
    1.3959927368e+02    1.3857299805e+02
    1.3969929504e+02    1.3866699219e+02
    1.3979919434e+02    1.3876000977e+02
    1.3989929199e+02    1.3885400391e+02
    1.3999923706e+02    1.3894799805e+02
    1.4009921265e+02    1.3904098511e+02
    1.4019926453e+02    1.3913497925e+02
    1.4029925537e+02    1.3922799683e+02
    1.4039918518e+02    1.3932098389e+02
    1.4049920654e+02    1.3941400146e+02
    1.4059919739e+02    1.3950598145e+02
    1.4069920349e+02    1.3959899902e+02
    1.4079930115e+02    1.3969100952e+02
    1.4089927673e+02    1.3978201294e+02
    1.4099934387e+02    1.3987301636e+02
    1.4109936523e+02    1.3996401978e+02
    1.4119931030e+02    1.4005499268e+02
    1.4129937744e+02    1.4014401245e+02
    1.4139929199e+02    1.4023400879e+02
    1.4149937439e+02    1.4032299805e+02
    1.4159939575e+02    1.4041198730e+02
    1.4169929504e+02    1.4049899292e+02
    1.4179928589e+02    1.4058599854e+02
    1.4189930725e+02    1.4067300415e+02
    1.4199937439e+02    1.4075799561e+02
    1.4209942627e+02    1.4084399414e+02
    1.4219935608e+02    1.4092901611e+02
    1.4229945374e+02    1.4101199341e+02
    1.4239935303e+02    1.4109600830e+02
    1.4249937439e+02    1.4117800903e+02
    1.4259934998e+02    1.4125900269e+02
    1.4269938660e+02    1.4133999634e+02
    1.4279934692e+02    1.4142001343e+02
    1.4289939880e+02    1.4149801636e+02
    1.4299940491e+02    1.4157601929e+02
    1.4309942627e+02    1.4165402222e+02
    1.4319938660e+02    1.4173004150e+02
    1.4329940796e+02    1.4180599976e+02
    1.4339949036e+02    1.4188101196e+02
    1.4349948120e+02    1.4195501709e+02
    1.4359948730e+02    1.4202902222e+02
    1.4369947815e+02    1.4210101318e+02
    1.4379948425e+02    1.4217202759e+02
    1.4389950562e+02    1.4224197388e+02
    1.4399954224e+02    1.4231100464e+02
    1.4409950256e+02    1.4238000488e+02
    1.4419955444e+02    1.4244598389e+02
    1.4429945374e+02    1.4251196289e+02
    1.4439955139e+02    1.4257699585e+02
    1.4449952698e+02    1.4264102173e+02
    1.4459945679e+02    1.4270401001e+02
    1.4469944763e+02    1.4276599121e+02
    1.4479949951e+02    1.4282699585e+02
    1.4489955139e+02    1.4288601685e+02
    1.4499960327e+02    1.4294500732e+02
    1.4509957886e+02    1.4300204468e+02
    1.4519953918e+02    1.4305700684e+02
    1.4529949951e+02    1.4311199951e+02
    1.4539959717e+02    1.4316598511e+02
    1.4549958801e+02    1.4321896362e+02
    1.4559962463e+02    1.4327099609e+02
    1.4569963074e+02    1.4332098389e+02
    1.4579963684e+02    1.4336999512e+02
    1.4589958191e+02    1.4341796875e+02
    1.4599969482e+02    1.4346597290e+02
    1.4609957886e+02    1.4351202393e+02
    1.4619969177e+02    1.4355700684e+02
    1.4629960632e+02    1.4360000610e+02
    1.4639959717e+02    1.4364199829e+02
    1.4649960327e+02    1.4368301392e+02
    1.4659971619e+02    1.4372302246e+02
    1.4669964600e+02    1.4376196289e+02
    1.4679969788e+02    1.4380099487e+02
    1.4689959717e+02    1.4383700562e+02
    1.4699971008e+02    1.4387200928e+02
    1.4709968567e+02    1.4390603638e+02
    1.4719966125e+02    1.4393798828e+02
    1.4729969788e+02    1.4397000122e+02
    1.4739978027e+02    1.4400000000e+02
    1.4749969482e+02    1.4402899170e+02
    1.4759970093e+02    1.4405697632e+02
    1.4769973755e+02    1.4408401489e+02
    1.4779968262e+02    1.4410900879e+02
    1.4789973450e+02    1.4413201904e+02
    1.4799978638e+02    1.4415600586e+02
    1.4809982300e+02    1.4417700195e+02
    1.4819981384e+02    1.4419799805e+02
    1.4829981995e+02    1.4421597290e+02
    1.4839984131e+02    1.4423498535e+02
    1.4849972534e+02    1.4425100708e+02
    1.4859974670e+02    1.4426696777e+02
    1.4869972229e+02    1.4428100586e+02
    1.4879983521e+02    1.4429501343e+02
    1.4889976501e+02    1.4430697632e+02
    1.4899984741e+02    1.4431796265e+02
    1.4909974670e+02    1.4432797241e+02
    1.4919984436e+02    1.4433599854e+02
    1.4929980469e+02    1.4434402466e+02
    1.4939984131e+02    1.4434997559e+02
    1.4949984741e+02    1.4435501099e+02
    1.4959983826e+02    1.4435803223e+02
    1.4969978333e+02    1.4436099243e+02
    1.4979981995e+02    1.4436300659e+02
    1.4989990234e+02    1.4436196899e+02
    1.4999987793e+02    1.4436099243e+02
    1.5009991455e+02    1.4435900879e+02
    1.5019990540e+02    1.4435498047e+02
    1.5029992676e+02    1.4434997559e+02
    1.5039982605e+02    1.4434500122e+02
    1.5049995422e+02    1.4433798218e+02
    1.5059988403e+02    1.4432901001e+02
    1.5069985962e+02    1.4432101440e+02
    1.5079992676e+02    1.4431002808e+02
    1.5089991760e+02    1.4429800415e+02
    1.5099998474e+02    1.4428497314e+02
    1.5109988403e+02    1.4427200317e+02
    1.5120001221e+02    1.4425601196e+02
    1.5129994202e+02    1.4424102783e+02
    1.5139990234e+02    1.4422296143e+02
    1.5150000000e+02    1.4420501709e+02
    1.5159997559e+02    1.4418600464e+02
    1.5169998169e+02    1.4416598511e+02
    1.5179991150e+02    1.4414501953e+02
    1.5189990234e+02    1.4412298584e+02
    1.5199996948e+02    1.4409899902e+02
    1.5210006714e+02    1.4407498169e+02
    1.5220002747e+02    1.4404901123e+02
    1.5229995728e+02    1.4402297974e+02
    1.5239991760e+02    1.4399499512e+02
    1.5250000000e+02    1.4396697998e+02
    1.5260000610e+02    1.4393701172e+02
    1.5269993591e+02    1.4390600586e+02
    1.5280007935e+02    1.4387503052e+02
    1.5290011597e+02    1.4384201050e+02
    1.5300001526e+02    1.4380902100e+02
    1.5310000610e+02    1.4377401733e+02
    1.5320005798e+02    1.4373800659e+02
    1.5330012512e+02    1.4370101929e+02
    1.5340014648e+02    1.4366403198e+02
    1.5350003052e+02    1.4362600708e+02
    1.5360008240e+02    1.4358697510e+02
    1.5370004272e+02    1.4354598999e+02
    1.5380000305e+02    1.4350601196e+02
    1.5390008545e+02    1.4346301270e+02
    1.5400009155e+02    1.4342102051e+02
    1.5410014343e+02    1.4337802124e+02
    1.5420018005e+02    1.4333300781e+02
    1.5430009460e+02    1.4328698730e+02
    1.5440008545e+02    1.4324102783e+02
    1.5450007629e+02    1.4319500732e+02
    1.5460012817e+02    1.4314599609e+02
    1.5470005798e+02    1.4309802246e+02
    1.5480009460e+02    1.4304895020e+02
    1.5490017700e+02    1.4299902344e+02
    1.5500015259e+02    1.4294799805e+02
    1.5510023499e+02    1.4289599609e+02
    1.5520016479e+02    1.4284399414e+02
    1.5530018616e+02    1.4279101562e+02
    1.5540023804e+02    1.4273797607e+02
    1.5550015259e+02    1.4268298340e+02
    1.5560020447e+02    1.4262799072e+02
    1.5570022583e+02    1.4257299805e+02
    1.5580018616e+02    1.4251599121e+02
    1.5590019226e+02    1.4245898438e+02
    1.5600030518e+02    1.4240197754e+02
    1.5610026550e+02    1.4234301758e+02
    1.5620016479e+02    1.4228399658e+02
    1.5630024719e+02    1.4222399902e+02
    1.5640031433e+02    1.4216296387e+02
    1.5650021362e+02    1.4210296631e+02
    1.5660031128e+02    1.4204199219e+02
    1.5670033264e+02    1.4197998047e+02
    1.5680030823e+02    1.4191699219e+02
    1.5690031433e+02    1.4185400391e+02
    1.5700025940e+02    1.4179003906e+02
    1.5710032654e+02    1.4172698975e+02
    1.5720031738e+02    1.4166198730e+02
    1.5730029297e+02    1.4159698486e+02
    1.5740037537e+02    1.4153100586e+02
    1.5750039673e+02    1.4146600342e+02
    1.5760031128e+02    1.4139996338e+02
    1.5770025635e+02    1.4133300781e+02
    1.5780033875e+02    1.4126599121e+02
    1.5790039062e+02    1.4119897461e+02
    1.5800028992e+02    1.4113104248e+02
    1.5810040283e+02    1.4106201172e+02
    1.5820033264e+02    1.4099499512e+02
    1.5830030823e+02    1.4092498779e+02
    1.5840046692e+02    1.4085601807e+02
    1.5850033569e+02    1.4078601074e+02
    1.5860031128e+02    1.4071600342e+02
    1.5870048523e+02    1.4064599609e+02
    1.5880035400e+02    1.4057501221e+02
    1.5890046692e+02    1.4050396729e+02
    1.5900035095e+02    1.4043298340e+02
    1.5910038757e+02    1.4036199951e+02
    1.5920034790e+02    1.4029003906e+02
    1.5930052185e+02    1.4021697998e+02
    1.5940046692e+02    1.4014501953e+02
    1.5950039673e+02    1.4007202148e+02
    1.5960047913e+02    1.3999902344e+02
    1.5970042419e+02    1.3992498779e+02
    1.5980047607e+02    1.3985198975e+02
    1.5990049744e+02    1.3977801514e+02
    1.6000041199e+02    1.3970397949e+02
    1.6010046387e+02    1.3963000488e+02
    1.6020045471e+02    1.3955499268e+02
    1.6030050659e+02    1.3948101807e+02
    1.6040042114e+02    1.3940704346e+02
    1.6050050354e+02    1.3933099365e+02
    1.6060049438e+02    1.3925598145e+02
    1.6070054626e+02    1.3917999268e+02
    1.6080053711e+02    1.3910498047e+02
    1.6090051270e+02    1.3902801514e+02
    1.6100044250e+02    1.3895300293e+02
    1.6110058594e+02    1.3887500000e+02
    1.6120051575e+02    1.3879901123e+02
    1.6130052185e+02    1.3872204590e+02
    1.6140051270e+02    1.3864501953e+02
    1.6150059509e+02    1.3856695557e+02
    1.6160064697e+02    1.3848999023e+02
    1.6170054626e+02    1.3841296387e+02
    1.6180056763e+02    1.3833502197e+02
    1.6190057373e+02    1.3825701904e+02
    1.6200054932e+02    1.3817797852e+02
    1.6210057068e+02    1.3809997559e+02
    1.6220053101e+02    1.3802203369e+02
    1.6230056763e+02    1.3794201660e+02
    1.6240058899e+02    1.3786297607e+02
    1.6250059509e+02    1.3778503418e+02
    1.6260061646e+02    1.3770599365e+02
    1.6270057678e+02    1.3762603760e+02
    1.6280073547e+02    1.3754595947e+02
    1.6290071106e+02    1.3746600342e+02
    1.6300056458e+02    1.3738598633e+02
    1.6310067749e+02    1.3730596924e+02
    1.6320060730e+02    1.3722497559e+02
    1.6330064392e+02    1.3714599609e+02
    1.6340069580e+02    1.3706402588e+02
    1.6350068665e+02    1.3698297119e+02
    1.6360060120e+02    1.3690197754e+02
    1.6370077515e+02    1.3682098389e+02
    1.6380067444e+02    1.3673901367e+02
    1.6390071106e+02    1.3665795898e+02
    1.6400076294e+02    1.3657598877e+02
    1.6410066223e+02    1.3649395752e+02
    1.6420065308e+02    1.3641198730e+02
    1.6430070496e+02    1.3632897949e+02
    1.6440071106e+02    1.3624603271e+02
    1.6450076294e+02    1.3616302490e+02
    1.6460081482e+02    1.3608001709e+02
    1.6470083618e+02    1.3599603271e+02
    1.6480079651e+02    1.3591296387e+02
    1.6490083313e+02    1.3582995605e+02
    1.6500083923e+02    1.3574505615e+02
    1.6510076904e+02    1.3566198730e+02
    1.6520071411e+02    1.3557800293e+02
    1.6530087280e+02    1.3549298096e+02
    1.6540075684e+02    1.3540802002e+02
    1.6550085449e+02    1.3532299805e+02
    1.6560083008e+02    1.3523901367e+02
    1.6570088196e+02    1.3515301514e+02
    1.6580082703e+02    1.3506799316e+02
    1.6590086365e+02    1.3498297119e+02
    1.6600088501e+02    1.3489703369e+02
    1.6610087585e+02    1.3480999756e+02
    1.6620089722e+02    1.3472399902e+02
    1.6630084229e+02    1.3463800049e+02
    1.6640086365e+02    1.3455200195e+02
    1.6650083923e+02    1.3446496582e+02
    1.6660090637e+02    1.3437701416e+02
    1.6670091248e+02    1.3429101562e+02
    1.6680081177e+02    1.3420300293e+02
    1.6690086365e+02    1.3411596680e+02
    1.6700096130e+02    1.3402801514e+02
    1.6710096741e+02    1.3394000244e+02
    1.6720095825e+02    1.3385198975e+02
    1.6730099487e+02    1.3376300049e+02
    1.6740098572e+02    1.3367498779e+02
    1.6750093079e+02    1.3358599854e+02
    1.6760084534e+02    1.3349700928e+02
    1.6770094299e+02    1.3340802002e+02
    1.6780097961e+02    1.3331799316e+02
    1.6790086365e+02    1.3322802734e+02
    1.6800096130e+02    1.3313897705e+02
    1.6810093689e+02    1.3304901123e+02
    1.6820098877e+02    1.3295697021e+02
    1.6830093384e+02    1.3286700439e+02
    1.6840097046e+02    1.3277600098e+02
    1.6850099182e+02    1.3268499756e+02
    1.6860093689e+02    1.3259295654e+02
    1.6870104980e+02    1.3250201416e+02
    1.6880091858e+02    1.3240899658e+02
    1.6890107727e+02    1.3231805420e+02
    1.6900094604e+02    1.3222503662e+02
    1.6910096741e+02    1.3213299561e+02
    1.6920103455e+02    1.3203900146e+02
    1.6930093384e+02    1.3194598389e+02
    1.6940095520e+02    1.3185198975e+02
    1.6950099182e+02    1.3175799561e+02
    1.6960102844e+02    1.3166503906e+02
    1.6970104980e+02    1.3157098389e+02
    1.6980101013e+02    1.3147601318e+02
    1.6990110779e+02    1.3138098145e+02
    1.7000111389e+02    1.3128601074e+02
    1.7010102844e+02    1.3119097900e+02
    1.7020117188e+02    1.3109503174e+02
    1.7030108643e+02    1.3099902344e+02
    1.7040118408e+02    1.3090301514e+02
    1.7050106812e+02    1.3080603027e+02
    1.7060107422e+02    1.3071002197e+02
    1.7070114136e+02    1.3061303711e+02
    1.7080104065e+02    1.3051599121e+02
    1.7090115356e+02    1.3041802979e+02
    1.7100122070e+02    1.3032098389e+02
    1.7110113525e+02    1.3022302246e+02
    1.7120117188e+02    1.3012500000e+02
    1.7130110168e+02    1.3002697754e+02
    1.7140113831e+02    1.2992797852e+02
    1.7150115967e+02    1.2982995605e+02
    1.7160110474e+02    1.2973095703e+02
    1.7170111084e+02    1.2963104248e+02
    1.7180116272e+02    1.2953198242e+02
    1.7190112305e+02    1.2943103027e+02
    1.7200122070e+02    1.2933203125e+02
    1.7210119629e+02    1.2923095703e+02
    1.7220126343e+02    1.2913000488e+02
    1.7230128479e+02    1.2902899170e+02
    1.7240130615e+02    1.2892700195e+02
    1.7250123596e+02    1.2882598877e+02
    1.7260127258e+02    1.2872399902e+02
    1.7270115662e+02    1.2862200928e+02
    1.7280125427e+02    1.2851898193e+02
    1.7290127563e+02    1.2841601562e+02
    1.7300125122e+02    1.2831402588e+02
    1.7310122681e+02    1.2821099854e+02
    1.7320126343e+02    1.2810601807e+02
    1.7330128479e+02    1.2800299072e+02
    1.7340126038e+02    1.2789794922e+02
    1.7350120544e+02    1.2779400635e+02
    1.7360127258e+02    1.2768896484e+02
    1.7370123291e+02    1.2758398438e+02
    1.7380134583e+02    1.2747796631e+02
    1.7390141296e+02    1.2737298584e+02
    1.7400128174e+02    1.2726702881e+02
    1.7410128784e+02    1.2716101074e+02
    1.7420129395e+02    1.2705401611e+02
    1.7430140686e+02    1.2694702148e+02
    1.7440133667e+02    1.2684002686e+02
    1.7450135803e+02    1.2673101807e+02
    1.7460131836e+02    1.2662402344e+02
    1.7470144653e+02    1.2651599121e+02
    1.7480140686e+02    1.2640698242e+02
    1.7490130615e+02    1.2629797363e+02
    1.7500137329e+02    1.2619000244e+02
    1.7510130310e+02    1.2607995605e+02
    1.7520138550e+02    1.2596899414e+02
    1.7530133057e+02    1.2585998535e+02
    1.7540142822e+02    1.2574798584e+02
    1.7550146484e+02    1.2563702393e+02
    1.7560147095e+02    1.2552600098e+02
    1.7570144653e+02    1.2541400146e+02
    1.7580136108e+02    1.2530200195e+02
    1.7590138245e+02    1.2518896484e+02
    1.7600146484e+02    1.2507702637e+02
    1.7610151672e+02    1.2496398926e+02
    1.7620150757e+02    1.2485101318e+02
    1.7630152893e+02    1.2473699951e+02
    1.7640150452e+02    1.2462298584e+02
    1.7650149536e+02    1.2450799561e+02
    1.7660151672e+02    1.2439398193e+02
    1.7670141602e+02    1.2427398682e+02
    1.7680158997e+02    1.2416595459e+02
    1.7690144348e+02    1.2404296875e+02
    1.7700157166e+02    1.2393402100e+02
    1.7710159302e+02    1.2381701660e+02
    1.7720152283e+02    1.2370001221e+02
    1.7730151367e+02    1.2358099365e+02
    1.7740151978e+02    1.2346099854e+02
    1.7750149536e+02    1.2334100342e+02
    1.7760159302e+02    1.2321801758e+02
    1.7770153809e+02    1.2310699463e+02
    1.7780160522e+02    1.2298199463e+02
    1.7790151978e+02    1.2285998535e+02
    1.7800161743e+02    1.2274395752e+02
    1.7810151672e+02    1.2261993408e+02
    1.7820161438e+02    1.2250097656e+02
    1.7830166626e+02    1.2238299561e+02
    1.7840153503e+02    1.2225701904e+02
    1.7850155640e+02    1.2213793945e+02
    1.7860156250e+02    1.2200799561e+02
    1.7870158386e+02    1.2188598633e+02
    1.7880160522e+02    1.2176501465e+02
    1.7890159607e+02    1.2164196777e+02
    1.7900161743e+02    1.2151898193e+02
    1.7910159302e+02    1.2138500977e+02
    1.7920159912e+02    1.2126007080e+02
    1.7930168152e+02    1.2113293457e+02
    1.7940158081e+02    1.2100799561e+02
    1.7950157166e+02    1.2088104248e+02
    1.7960165405e+02    1.2076092529e+02
    1.7970161438e+02    1.2063299561e+02
    1.7980169678e+02    1.2050103760e+02
    1.7990162659e+02    1.2037207031e+02
    1.8000170898e+02    1.2024896240e+02
    1.8010168457e+02    1.2011700439e+02
    1.8020169067e+02    1.1998406982e+02
    1.8030177307e+02    1.1985797119e+02
    1.8040173340e+02    1.1972399902e+02
    1.8050166321e+02    1.1959002686e+02
    1.8060168457e+02    1.1946295166e+02
    1.8070181274e+02    1.1933300781e+02
    1.8080168152e+02    1.1919702148e+02
    1.8090170288e+02    1.1906793213e+02
    1.8100178528e+02    1.1893597412e+02
    1.8110174561e+02    1.1879602051e+02
    1.8120173645e+02    1.1866497803e+02
    1.8130172729e+02    1.1853302002e+02
    1.8140185547e+02    1.1839703369e+02
    1.8150184631e+02    1.1826293945e+02
    1.8160183716e+02    1.1812799072e+02
    1.8170176697e+02    1.1799304199e+02
    1.8180171204e+02    1.1785797119e+02
    1.8190174866e+02    1.1772003174e+02
    1.8200178528e+02    1.1758093262e+02
    1.8210185242e+02    1.1744000244e+02
    1.8220188904e+02    1.1730902100e+02
    1.8230175781e+02    1.1717095947e+02
    1.8240185547e+02    1.1702697754e+02
    1.8250192261e+02    1.1689306641e+02
    1.8260179138e+02    1.1675195312e+02
    1.8270181274e+02    1.1660699463e+02
    1.8280180359e+02    1.1647198486e+02
    1.8290196228e+02    1.1632299805e+02
    1.8300192261e+02    1.1618603516e+02
    1.8310191345e+02    1.1604901123e+02
    1.8320196533e+02    1.1589904785e+02
    1.8330184937e+02    1.1576098633e+02
    1.8340190125e+02    1.1561901855e+02
    1.8350192261e+02    1.1546704102e+02
    1.8360194397e+02    1.1532000732e+02
    1.8370187378e+02    1.1518005371e+02
    1.8380184937e+02    1.1503997803e+02
    1.8390187073e+02    1.1489001465e+02
    1.8400195312e+02    1.1474993896e+02
    1.8410197449e+02    1.1460003662e+02
    1.8420190430e+02    1.1444995117e+02
    1.8430189514e+02    1.1429998779e+02
    1.8440199280e+02    1.1415991211e+02
    1.8450196838e+02    1.1401000977e+02
    1.8460194397e+02    1.1386004639e+02
    1.8470196533e+02    1.1371997070e+02
    1.8480206299e+02    1.1356005859e+02
    1.8490200806e+02    1.1342004395e+02
    1.8500198364e+02    1.1326000977e+02
    1.8510203552e+02    1.1311999512e+02
    1.8520199585e+02    1.1296008301e+02
    1.8530203247e+02    1.1280993652e+02
    1.8540205383e+02    1.1266003418e+02
    1.8550195312e+02    1.1251000977e+02
    1.8560206604e+02    1.1235998535e+02
    1.8570207214e+02    1.1219995117e+02
    1.8580209351e+02    1.1204003906e+02
    1.8590208435e+02    1.1189001465e+02
    1.8600199890e+02    1.1173010254e+02
    1.8610209656e+02    1.1158996582e+02
    1.8620207214e+02    1.1143005371e+02
    1.8630210876e+02    1.1127001953e+02
    1.8640211487e+02    1.1110998535e+02
    1.8650210571e+02    1.1094995117e+02
    1.8660209656e+02    1.1079992676e+02
    1.8670213318e+02    1.1064001465e+02
    1.8680215454e+02    1.1047998047e+02
    1.8690219116e+02    1.1032006836e+02
    1.8700202942e+02    1.1015002441e+02
    1.8710206604e+02    1.1000000000e+02
    1.8720211792e+02    1.0983996582e+02
    1.8730212402e+02    1.0966992188e+02
    1.8740216064e+02    1.0951000977e+02
    1.8750218201e+02    1.0934997559e+02
    1.8760212708e+02    1.0919006348e+02
    1.8770219421e+02    1.0902001953e+02
    1.8780209351e+02    1.0885998535e+02
    1.8790208435e+02    1.0870007324e+02
    1.8800213623e+02    1.0852990723e+02
    1.8810224915e+02    1.0835998535e+02
    1.8820228577e+02    1.0818994141e+02
    1.8830221558e+02    1.0801989746e+02
    1.8840223694e+02    1.0785998535e+02
    1.8850227356e+02    1.0768994141e+02
    1.8860227966e+02    1.0751000977e+02
    1.8870228577e+02    1.0734997559e+02
    1.8880215454e+02    1.0717993164e+02
    1.8890231323e+02    1.0701000977e+02
    1.8900230408e+02    1.0682995605e+02
    1.8910227966e+02    1.0665991211e+02
    1.8920216370e+02    1.0648999023e+02
    1.8930230713e+02    1.0630993652e+02
    1.8940220642e+02    1.0613989258e+02
    1.8950221252e+02    1.0597009277e+02
    1.8960235596e+02    1.0579003906e+02
    1.8970231628e+02    1.0561999512e+02
    1.8980236816e+02    1.0544006348e+02
    1.8990231323e+02    1.0526000977e+02
    1.9000227356e+02    1.0507995605e+02
    1.9010226440e+02    1.0490002441e+02
    1.9020236206e+02    1.0471997070e+02
    1.9030235291e+02    1.0453991699e+02
    1.9040237427e+02    1.0436010742e+02
    1.9050227356e+02    1.0418005371e+02
    1.9060237122e+02    1.0398999023e+02
    1.9070239258e+02    1.0380993652e+02
    1.9080239868e+02    1.0361999512e+02
    1.9090240479e+02    1.0344006348e+02
    1.9100238037e+02    1.0325000000e+02
    1.9110240173e+02    1.0307006836e+02
    1.9120245361e+02    1.0288000488e+02
    1.9130244446e+02    1.0269995117e+02
    1.9140242004e+02    1.0250000000e+02
    1.9150239563e+02    1.0231005859e+02
    1.9160232544e+02    1.0211999512e+02
    1.9170237732e+02    1.0193005371e+02
    1.9180235291e+02    1.0173999023e+02
    1.9190240479e+02    1.0155004883e+02
    1.9200236511e+02    1.0134997559e+02
    1.9210232544e+02    1.0116003418e+02
    1.9220237732e+02    1.0095996094e+02
    1.9230252075e+02    1.0076989746e+02
    1.9240248108e+02    1.0057006836e+02
    1.9250244141e+02    1.0036999512e+02
    1.9260252380e+02    1.0018005371e+02
    1.9270239258e+02    9.9979980469e+01
    1.9280249023e+02    9.9779907227e+01
    1.9290255737e+02    9.9570068359e+01
    1.9300250244e+02    9.9380004883e+01
    1.9310238647e+02    9.9170043945e+01
    1.9320249939e+02    9.8969970703e+01
    1.9330249023e+02    9.8769897461e+01
    1.9340240479e+02    9.8550048828e+01
    1.9350247192e+02    9.8349975586e+01
    1.9360243225e+02    9.8140014648e+01
    1.9370251465e+02    9.7939941406e+01
    1.9380259705e+02    9.7729980469e+01
    1.9390249634e+02    9.7510009766e+01
    1.9400244141e+02    9.7300048828e+01
    1.9410253906e+02    9.7090087891e+01
    1.9420262146e+02    9.6880004883e+01
    1.9430261230e+02    9.6660034180e+01
    1.9440263367e+02    9.6449951172e+01
    1.9450263977e+02    9.6229980469e+01
    1.9460249329e+02    9.6010009766e+01
    1.9470254517e+02    9.5800048828e+01
    1.9480255127e+02    9.5580078125e+01
    1.9490258789e+02    9.5349975586e+01
    1.9500265503e+02    9.5140014648e+01
    1.9510261536e+02    9.4910034180e+01
    1.9520260620e+02    9.4699951172e+01
    1.9530267334e+02    9.4469970703e+01
    1.9540255737e+02    9.4250000000e+01
    1.9550271606e+02    9.4020019531e+01
    1.9560270691e+02    9.3790039062e+01
    1.9570262146e+02    9.3570068359e+01
    1.9580271912e+02    9.3339965820e+01
    1.9590260315e+02    9.3119995117e+01
    1.9600259399e+02    9.2880004883e+01
    1.9610258484e+02    9.2650024414e+01
    1.9620271301e+02    9.2409912109e+01
    1.9630276489e+02    9.2179931641e+01
    1.9640269470e+02    9.1949951172e+01
    1.9650262451e+02    9.1710083008e+01
    1.9660264587e+02    9.1480102539e+01
    1.9670278931e+02    9.1250000000e+01
    1.9680261230e+02    9.1010009766e+01
    1.9690280151e+02    9.0770019531e+01
    1.9700273132e+02    9.0530029297e+01
    1.9710267639e+02    9.0300048828e+01
    1.9720281982e+02    9.0050048828e+01
    1.9730278015e+02    8.9800048828e+01
    1.9740272522e+02    8.9569946289e+01
    1.9750271606e+02    8.9319946289e+01
    1.9760278320e+02    8.9079956055e+01
    1.9770268250e+02    8.8829956055e+01
    1.9780270386e+02    8.8589965820e+01
    1.9790281677e+02    8.8339965820e+01
    1.9800274658e+02    8.8089965820e+01
    1.9810284424e+02    8.7839965820e+01
    1.9820283508e+02    8.7589965820e+01
    1.9830270386e+02    8.7329956055e+01
    1.9840272522e+02    8.7079956055e+01
    1.9850277710e+02    8.6829956055e+01
    1.9860281372e+02    8.6569946289e+01
    1.9870275879e+02    8.6319946289e+01
    1.9880281067e+02    8.6059936523e+01
    1.9890281677e+02    8.5809936523e+01
    1.9900288391e+02    8.5549926758e+01
    1.9910276794e+02    8.5289916992e+01
    1.9920286560e+02    8.5039916992e+01
    1.9930287170e+02    8.4770019531e+01
    1.9940295410e+02    8.4510009766e+01
    1.9950289917e+02    8.4239990234e+01
    1.9960296631e+02    8.3989990234e+01
    1.9970283508e+02    8.3719970703e+01
    1.9980290222e+02    8.3449951172e+01
    1.9990296936e+02    8.3189941406e+01
endcurve
