Curveplot
LS-DYNA keyword deck by LS-PrePost
Time
Y-rot-displacement
Node Ids
310000  #pts=2000
* Minval=    -2.8336600622e-08 at time=         9.1999282837
* Maxval=     1.8505200148e+00 at time=       146.0995788574
    0.0000000000e+00    0.0000000000e+00
    9.9978484213e-02    0.0000000000e+00
    1.9995696843e-01    0.0000000000e+00
    2.9993546009e-01    0.0000000000e+00
    3.9991393685e-01    1.8767300456e-25
    4.9989241362e-01    5.0498899293e-23
    5.9987092018e-01    1.6127900477e-21
    6.9989228249e-01    2.4307400234e-20
    7.9987078905e-01    4.3444301253e-19
    8.9984923601e-01    3.5904601668e-18
    9.9982774258e-01    1.3161499855e-17
    1.0999879837e+00    3.9873199181e-17
    1.1999665499e+00    1.1981400153e-16
    1.2999449968e+00    3.7558200564e-16
    1.3999276161e+00    1.1692299867e-15
    1.4998989105e+00    3.4691199972e-15
    1.5999723673e+00    9.6390197934e-15
    1.6999509335e+00    2.4900500295e-14
    1.7999293804e+00    5.9891300903e-14
    1.8999079466e+00    1.3447500492e-13
    1.9998862743e+00    2.8274900325e-13
    2.0998647213e+00    5.5836899774e-13
    2.1998434067e+00    1.0383899686e-12
    2.2998218536e+00    1.8233298985e-12
    2.3999822140e+00    3.0338299147e-12
    2.4999604225e+00    4.7857299720e-12
    2.5999391079e+00    7.1719401251e-12
    2.6999175549e+00    1.0192000022e-11
    2.7999644279e+00    1.3611499948e-11
    2.8999450207e+00    1.6631900718e-11
    2.9999256134e+00    1.7468599484e-11
    3.0999062061e+00    1.3230599775e-11
    3.1998867989e+00    1.4754099635e-12
    3.2998673916e+00   -1.6405699715e-11
    3.3998479843e+00   -3.4949300398e-11
    3.4999725819e+00   -5.2295900249e-11
    3.5999510288e+00   -7.8070501452e-11
    3.6999294758e+00   -1.2275599981e-10
    3.7999079227e+00   -1.8761399379e-10
    3.8998863697e+00   -2.7242899603e-10
    3.9998648167e+00   -3.8071198971e-10
    4.0998435020e+00   -5.1547599522e-10
    4.1999077797e+00   -6.7923999758e-10
    4.2999424934e+00   -8.7424500972e-10
    4.3999209404e+00   -1.1038999714e-09
    4.4998140335e+00   -1.3706900059e-09
    4.5999875069e+00   -1.6769999833e-09
    4.6999678612e+00   -2.0233799081e-09
    4.7999486923e+00   -2.4163000489e-09
    4.8999295235e+00   -2.8609499214e-09
    4.9999098778e+00   -3.3597100657e-09
    5.0998907089e+00   -3.9100100935e-09
    5.1998715401e+00   -4.5107397817e-09
    5.2998518944e+00   -5.1612101259e-09
    5.3998327255e+00   -5.8593698782e-09
    5.4998135567e+00   -6.6021601519e-09
    5.5999875069e+00   -7.3861401440e-09
    5.6999678612e+00   -8.2052595829e-09
    5.7999486923e+00   -9.0526199870e-09
    5.8999295235e+00   -9.9181303170e-09
    5.9999098778e+00   -1.0792500227e-08
    6.0998907089e+00   -1.1671899891e-08
    6.1998720169e+00   -1.2552099804e-08
    6.2998533249e+00   -1.3429300338e-08
    6.3998341560e+00   -1.4295999939e-08
    6.4998154640e+00   -1.5150199317e-08
    6.5999894142e+00   -1.5993100178e-08
    6.6999702454e+00   -1.6818500370e-08
    6.7999505997e+00   -1.7625900739e-08
    6.8999319077e+00   -1.8411599356e-08
    6.9999132156e+00   -1.9175500299e-08
    7.0998940468e+00   -1.9915500360e-08
    7.1998748779e+00   -2.0633500242e-08
    7.2998557091e+00   -2.1325799793e-08
    7.3998365402e+00   -2.1992899946e-08
    7.4998173714e+00   -2.2633299679e-08
    7.5999917984e+00   -2.3246599312e-08
    7.6999726295e+00   -2.3830699192e-08
    7.7999534607e+00   -2.4384300801e-08
    7.8999342918e+00   -2.4906499974e-08
    7.9999155998e+00   -2.5395799241e-08
    8.0998964310e+00   -2.5851399243e-08
    8.1998767853e+00   -2.6269999509e-08
    8.2998580933e+00   -2.6653900420e-08
    8.3998880386e+00   -2.7001199498e-08
    8.4998693466e+00   -2.7309200235e-08
    8.5998497009e+00   -2.7576499306e-08
    8.6998310089e+00   -2.7804800240e-08
    8.7998123169e+00   -2.7992300033e-08
    8.8999862671e+00   -2.8138600783e-08
    8.9999666214e+00   -2.8245999317e-08
    9.0999479294e+00   -2.8312600264e-08
    9.1999282837e+00   -2.8336600622e-08
    9.2999095917e+00   -2.8318099865e-08
    9.3999519348e+00   -2.8258600793e-08
    9.4999074936e+00   -2.8155699994e-08
    9.5998830795e+00   -2.8010500586e-08
    9.6999139786e+00   -2.7822499860e-08
    9.7998952866e+00   -2.7592300000e-08
    9.8999872208e+00   -2.7319300600e-08
    9.9999685287e+00   -2.7003899561e-08
    1.0099983215e+01   -2.6648100615e-08
    1.0199975014e+01   -2.6251100849e-08
    1.0299956322e+01   -2.5811699444e-08
    1.0399936676e+01   -2.5330999520e-08
    1.0499917984e+01   -2.4807899734e-08
    1.0599899292e+01   -2.4242799768e-08
    1.0699864388e+01   -2.3635999824e-08
    1.0799910545e+01   -2.2984599113e-08
    1.0899917603e+01   -2.2289000867e-08
    1.0999970436e+01   -2.1547499784e-08
    1.1099864006e+01   -2.0760600350e-08
    1.1199980736e+01   -1.9924199179e-08
    1.1299835205e+01   -1.9041200616e-08
    1.1399992943e+01   -1.8106199207e-08
    1.1499871254e+01   -1.7122099294e-08
    1.1599942207e+01   -1.6083399501e-08
    1.1699864388e+01   -1.4991700326e-08
    1.1799834251e+01   -1.3846199742e-08
    1.1899873734e+01   -1.2642700220e-08
    1.1999855042e+01   -1.1384299725e-08
    1.2099854469e+01   -1.0068299972e-08
    1.2199934959e+01   -8.6928597653e-09
    1.2299835205e+01   -7.2602799328e-09
    1.2400009155e+01   -5.7620601623e-09
    1.2499894142e+01   -4.2065200212e-09
    1.2599875450e+01   -2.5862099129e-09
    1.2699855804e+01   -9.0126300867e-10
    1.2799965858e+01    8.5476098421e-10
    1.2899947166e+01    2.6750599513e-09
    1.2999929428e+01    4.5656198822e-09
    1.3099960327e+01    6.5273297878e-09
    1.3199871063e+01    8.5606002287e-09
    1.3299901962e+01    1.0670800243e-08
    1.3399874687e+01    1.2857800158e-08
    1.3500013351e+01    1.5127300301e-08
    1.3599948883e+01    1.7474299341e-08
    1.3699834824e+01    1.9903600545e-08
    1.3799953461e+01    2.2424799795e-08
    1.3899933815e+01    2.5030999495e-08
    1.3999915123e+01    2.7727500296e-08
    1.4099896431e+01    3.0520201477e-08
    1.4199888229e+01    3.3408699807e-08
    1.4299868584e+01    3.6396901493e-08
    1.4399849892e+01    3.9486401704e-08
    1.4500000000e+01    4.2687499757e-08
    1.4599981308e+01    4.5992198494e-08
    1.4699961662e+01    4.9411898573e-08
    1.4799942970e+01    5.2947399354e-08
    1.4899949074e+01    5.6604399390e-08
    1.4999968529e+01    6.0385403344e-08
    1.5099892616e+01    6.4290901491e-08
    1.5199966431e+01    6.8333896763e-08
    1.5299855232e+01    7.2502999160e-08
    1.5399835587e+01    7.6816498051e-08
    1.5499872208e+01    8.1274698971e-08
    1.5599851608e+01    8.5877999823e-08
    1.5699954987e+01    9.0638202721e-08
    1.5799936295e+01    9.5550802826e-08
    1.5899939537e+01    1.0062399980e-07
    1.5999930382e+01    1.0586099819e-07
    1.6099920273e+01    1.1126500254e-07
    1.6199848175e+01    1.1683899714e-07
    1.6299987793e+01    1.2259900473e-07
    1.6400001526e+01    1.2853000442e-07
    1.6499929428e+01    1.3464199355e-07
    1.6599838257e+01    1.4093899381e-07
    1.6700016022e+01    1.4744499310e-07
    1.6799911499e+01    1.5412699383e-07
    1.6899932861e+01    1.6101699885e-07
    1.6999912262e+01    1.6810699321e-07
    1.7100021362e+01    1.7541400155e-07
    1.7199914932e+01    1.8291399329e-07
    1.7299938202e+01    1.9063800494e-07
    1.7399885178e+01    1.9857399991e-07
    1.7499942780e+01    2.0673999757e-07
    1.7599973679e+01    2.1513200466e-07
    1.7699937820e+01    2.2374899800e-07
    1.7799867630e+01    2.3259700299e-07
    1.7899997711e+01    2.4170000756e-07
    1.7999948502e+01    2.5102900736e-07
    1.8099880219e+01    2.6060101277e-07
    1.8200000763e+01    2.7043898854e-07
    1.8299980164e+01    2.8051400136e-07
    1.8399932861e+01    2.9083901154e-07
    1.8499965668e+01    3.0142999208e-07
    1.8599903107e+01    3.1227099839e-07
    1.8699882507e+01    3.2337999301e-07
    1.8799877167e+01    3.3475899386e-07
    1.8899856567e+01    3.4640800095e-07
    1.9000017166e+01    3.5835398648e-07
    1.9099855423e+01    3.7053899860e-07
    1.9199947357e+01    3.8304000327e-07
    1.9299928665e+01    3.9581800593e-07
    1.9399908066e+01    4.0888900799e-07
    1.9500028610e+01    4.2227699737e-07
    1.9599920273e+01    4.3593598775e-07
    1.9700027466e+01    4.4993100801e-07
    1.9800006866e+01    4.6421899924e-07
    1.9899984360e+01    4.7882099352e-07
    1.9999956131e+01    4.9374102673e-07
    2.0100036621e+01    5.0900200677e-07
    2.0199945450e+01    5.2456499589e-07
    2.0299924850e+01    5.4047302456e-07
    2.0399900436e+01    5.5671898735e-07
    2.0499975204e+01    5.7332397319e-07
    2.0600008011e+01    5.9027399857e-07
    2.0699981689e+01    6.0756997300e-07
    2.0799993515e+01    6.2523298539e-07
    2.0899972916e+01    6.4325502080e-07
    2.0999952316e+01    6.6164699319e-07
    2.1099929810e+01    6.8041401846e-07
    2.1199909210e+01    6.9956399784e-07
    2.1299888611e+01    7.1910102406e-07
    2.1399866104e+01    7.3902998565e-07
    2.1500028610e+01    7.5939698263e-07
    2.1600006104e+01    7.8013101756e-07
    2.1699985504e+01    8.0127597357e-07
    2.1799964905e+01    8.2283798974e-07
    2.1899942398e+01    8.4482502416e-07
    2.1999921799e+01    8.6724202220e-07
    2.2099901199e+01    8.9009500925e-07
    2.2199878693e+01    9.1338802122e-07
    2.2300039291e+01    9.3717397931e-07
    2.2400018692e+01    9.6137205219e-07
    2.2499998093e+01    9.8603004517e-07
    2.2599977493e+01    1.0111599522e-06
    2.2699956894e+01    1.0367499499e-06
    2.2799934387e+01    1.0628300515e-06
    2.2899913788e+01    1.0894000297e-06
    2.2999891281e+01    1.1164599982e-06
    2.3099870682e+01    1.1440199614e-06
    2.3200031281e+01    1.1721399460e-06
    2.3300033569e+01    1.2007300256e-06
    2.3399997711e+01    1.2298199863e-06
    2.3499977112e+01    1.2594499594e-06
    2.3599956512e+01    1.2896100543e-06
    2.3699935913e+01    1.3203200524e-06
    2.3799913406e+01    1.3515699493e-06
    2.3899892807e+01    1.3833699768e-06
    2.4000053406e+01    1.4158000567e-06
    2.4100032806e+01    1.4487400222e-06
    2.4200010300e+01    1.4822600178e-06
    2.4299989700e+01    1.5163600438e-06
    2.4399969101e+01    1.5510599951e-06
    2.4499948502e+01    1.5863499812e-06
    2.4599925995e+01    1.6222500108e-06
    2.4699905396e+01    1.6587599703e-06
    2.4799894333e+01    1.6958899778e-06
    2.4900014877e+01    1.7337099507e-06
    2.4999992371e+01    1.7720999494e-06
    2.5099971771e+01    1.8111400095e-06
    2.5199951172e+01    1.8508300172e-06
    2.5300046921e+01    1.8912299993e-06
    2.5400009155e+01    1.9322399112e-06
    2.5499988556e+01    1.9739200070e-06
    2.5599939346e+01    2.0162799501e-06
    2.5699916840e+01    2.0593399768e-06
    2.5799896240e+01    2.1030900825e-06
    2.5900056839e+01    2.1476300844e-06
    2.5999889374e+01    2.1927301077e-06
    2.6100048065e+01    2.2387000627e-06
    2.6200027466e+01    2.2853100745e-06
    2.6299972534e+01    2.3326399514e-06
    2.6399951935e+01    2.3807299385e-06
    2.6499929428e+01    2.4295600269e-06
    2.6599908829e+01    2.4791499982e-06
    2.6700002670e+01    2.5295601063e-06
    2.6799957275e+01    2.5806800750e-06
    2.6899894714e+01    2.6325699309e-06
    2.7000055313e+01    2.6853599593e-06
    2.7100034714e+01    2.7388500712e-06
    2.7200012207e+01    2.7931500881e-06
    2.7299900055e+01    2.8482099879e-06
    2.7400028229e+01    2.9042200822e-06
    2.7500005722e+01    2.9609700505e-06
    2.7599899292e+01    3.0185099149e-06
    2.7700059891e+01    3.0770600006e-06
    2.7799909592e+01    3.1362699247e-06
    2.7899888992e+01    3.1964100344e-06
    2.7999937057e+01    3.2574700981e-06
    2.8099987030e+01    3.3194000935e-06
    2.8200065613e+01    3.3822500427e-06
    2.8300045013e+01    3.4459098970e-06
    2.8400022507e+01    3.5104899325e-06
    2.8499893188e+01    3.5759001094e-06
    2.8600055695e+01    3.6424200971e-06
    2.8700033188e+01    3.7097499899e-06
    2.8799894333e+01    3.7779300328e-06
    2.8900005341e+01    3.8472398955e-06
    2.8999940872e+01    3.9173701225e-06
    2.9099918365e+01    3.9885098886e-06
    2.9199945450e+01    4.0606400944e-06
    2.9300001144e+01    4.1337798393e-06
    2.9399980545e+01    4.2078499973e-06
    2.9499975204e+01    4.2829301492e-06
    2.9600055695e+01    4.3590898713e-06
    2.9699905396e+01    4.4360899665e-06
    2.9800067902e+01    4.5143601710e-06
    2.9899921417e+01    4.5934298214e-06
    2.9999914169e+01    4.6736599870e-06
    3.0100076675e+01    4.7550802265e-06
    3.0199974060e+01    4.8373499340e-06
    3.0299974442e+01    4.9207801567e-06
    3.0399929047e+01    5.0052599363e-06
    3.0499931335e+01    5.0908802223e-06
    3.0600036621e+01    5.1777001318e-06
    3.0699972153e+01    5.2654800129e-06
    3.0800075531e+01    5.3545400078e-06
    3.0900054932e+01    5.4446300055e-06
    3.0999954224e+01    5.5357900237e-06
    3.1100013733e+01    5.6282601690e-06
    3.1200025558e+01    5.7218499023e-06
    3.1299922943e+01    5.8165101109e-06
    3.1400070190e+01    5.9125900407e-06
    3.1500078201e+01    6.0097399910e-06
    3.1600004196e+01    6.1080099840e-06
    3.1699998856e+01    6.2075700953e-06
    3.1800037384e+01    6.3083898567e-06
    3.1899921417e+01    6.4103001023e-06
    3.1999902725e+01    6.5135600380e-06
    3.2099964142e+01    6.6181501097e-06
    3.2200077057e+01    6.7240698627e-06
    3.2299949646e+01    6.8310100687e-06
    3.2399917603e+01    6.9393399826e-06
    3.2500072479e+01    7.0491701081e-06
    3.2599998474e+01    7.1600597948e-06
    3.2699977875e+01    7.2723300946e-06
    3.2799968719e+01    7.3859300755e-06
    3.2900005341e+01    7.5009202192e-06
    3.2999874115e+01    7.6170499597e-06
    3.3100028992e+01    7.7348795458e-06
    3.3200046539e+01    7.8538996604e-06
    3.3300052643e+01    7.9742803791e-06
    3.3399971008e+01    8.0959398474e-06
    3.3499958038e+01    8.2190599642e-06
    3.3599884033e+01    8.3434997578e-06
    3.3700042725e+01    8.4696403064e-06
    3.3800022125e+01    8.5969695647e-06
    3.3899982452e+01    8.7256903498e-06
    3.3999961853e+01    8.8558699645e-06
    3.4099906921e+01    8.9874502009e-06
    3.4199863434e+01    9.1204901764e-06
    3.4299995422e+01    9.2552199931e-06
    3.4399978638e+01    9.3912103694e-06
    3.4499958038e+01    9.5286695796e-06
    3.4599891663e+01    9.6675503301e-06
    3.4699867249e+01    9.8079699455e-06
    3.4799888611e+01    9.9499602584e-06
    3.4899871826e+01    1.0093400306e-05
    3.5000011444e+01    1.0238600225e-05
    3.5100013733e+01    1.0385099813e-05
    3.5199993134e+01    1.0533200111e-05
    3.5299972534e+01    1.0682700122e-05
    3.5399955750e+01    1.0833899978e-05
    3.5499889374e+01    1.0986499547e-05
    3.5599948883e+01    1.1140899915e-05
    3.5699882507e+01    1.1296699995e-05
    3.5799861908e+01    1.1454199921e-05
    3.5900005341e+01    1.1614100003e-05
    3.5999912262e+01    1.1774600353e-05
    3.6099929810e+01    1.1937599993e-05
    3.6199874878e+01    1.2099800188e-05
    3.6299968719e+01    1.2265500118e-05
    3.6399852753e+01    1.2433200027e-05
    3.6499935150e+01    1.2603400137e-05
    3.6599956512e+01    1.2777900338e-05
    3.6699970245e+01    1.2956200408e-05
    3.6799850464e+01    1.3138899703e-05
    3.6899940491e+01    1.3326999579e-05
    3.6999992371e+01    1.3521100300e-05
    3.7100002289e+01    1.3720299648e-05
    3.7199901581e+01    1.3927199689e-05
    3.7299877167e+01    1.4142699911e-05
    3.7399986267e+01    1.4368800294e-05
    3.7499965668e+01    1.4602999727e-05
    3.7599887848e+01    1.4848899809e-05
    3.7699951172e+01    1.5105500097e-05
    3.7799861908e+01    1.5373199858e-05
    3.7899845123e+01    1.5650399291e-05
    3.7999931335e+01    1.5937999706e-05
    3.8099819183e+01    1.6235599105e-05
    3.8199821472e+01    1.6541800505e-05
    3.8299938202e+01    1.6857000446e-05
    3.8399887085e+01    1.7181300791e-05
    3.8499931335e+01    1.7518399545e-05
    3.8599960327e+01    1.7867099814e-05
    3.8699878693e+01    1.8231299691e-05
    3.8799839020e+01    1.8607399397e-05
    3.8899787903e+01    1.8999899112e-05
    3.8999862671e+01    1.9404700652e-05
    3.9099895477e+01    1.9827000870e-05
    3.9199871063e+01    2.0263600163e-05
    3.9299812317e+01    2.0717499865e-05
    3.9399883270e+01    2.1189800464e-05
    3.9499889374e+01    2.1679399651e-05
    3.9599948883e+01    2.2188300136e-05
    3.9699947357e+01    2.2713300496e-05
    3.9799804688e+01    2.3258400688e-05
    3.9899841309e+01    2.3821599825e-05
    3.9999847412e+01    2.4405599106e-05
    4.0099864960e+01    2.5003599148e-05
    4.0199844360e+01    2.5623799957e-05
    4.0299919128e+01    2.6259800507e-05
    4.0399860382e+01    2.6914000046e-05
    4.0499847412e+01    2.7587899240e-05
    4.0599826813e+01    2.8282100175e-05
    4.0699848175e+01    2.9001399525e-05
    4.0799789429e+01    2.9740100217e-05
    4.0899753571e+01    3.0504599636e-05
    4.0999816895e+01    3.1292998756e-05
    4.1099906921e+01    3.2110601751e-05
    4.1199794769e+01    3.2947900763e-05
    4.1299789429e+01    3.3815998904e-05
    4.1399856567e+01    3.4706899896e-05
    4.1499874115e+01    3.5631099308e-05
    4.1599918365e+01    3.6580499000e-05
    4.1699871063e+01    3.7557500036e-05
    4.1799789429e+01    3.8562298869e-05
    4.1899768829e+01    3.9596601709e-05
    4.1999748230e+01    4.0663799155e-05
    4.2099876404e+01    4.1761199100e-05
    4.2199825287e+01    4.2890798795e-05
    4.2299831390e+01    4.4044700189e-05
    4.2399902344e+01    4.5238299208e-05
    4.2499835968e+01    4.6456498239e-05
    4.2599895477e+01    4.7713998356e-05
    4.2699897766e+01    4.9002501328e-05
    4.2799755096e+01    5.0325299526e-05
    4.2899871826e+01    5.1687999076e-05
    4.2999797821e+01    5.3087700508e-05
    4.3099773407e+01    5.4526499298e-05
    4.3199787140e+01    5.6000400946e-05
    4.3299762726e+01    5.7518100220e-05
    4.3399868011e+01    5.9074900491e-05
    4.3499851227e+01    6.0678201407e-05
    4.3599819183e+01    6.2320097641e-05
    4.3699810028e+01    6.4007203036e-05
    4.3799842834e+01    6.5733998781e-05
    4.3899837494e+01    6.7508903157e-05
    4.3999881744e+01    6.9328198151e-05
    4.4099723816e+01    7.1192102041e-05
    4.4199779510e+01    7.3107199569e-05
    4.4299884796e+01    7.5069503509e-05
    4.4399761200e+01    7.7075601439e-05
    4.4499713898e+01    7.9129400547e-05
    4.4599727631e+01    8.1238897110e-05
    4.4699817657e+01    8.3397200797e-05
    4.4799774170e+01    8.5610401584e-05
    4.4899879456e+01    8.7875996542e-05
    4.4999774933e+01    9.0195702796e-05
    4.5099830627e+01    9.2569302069e-05
    4.5199764252e+01    9.4997696579e-05
    4.5299785614e+01    9.7486998129e-05
    4.5399765015e+01    1.0003399802e-04
    4.5499809265e+01    1.0264499724e-04
    4.5599861145e+01    1.0531199950e-04
    4.5699783325e+01    1.0804000340e-04
    4.5799854279e+01    1.1082900164e-04
    4.5899833679e+01    1.1368100240e-04
    4.5999687195e+01    1.1658899894e-04
    4.6099723816e+01    1.1957099923e-04
    4.6199859619e+01    1.2261599477e-04
    4.6299827576e+01    1.2572600099e-04
    4.6399806976e+01    1.2890200014e-04
    4.6499839783e+01    1.3214499631e-04
    4.6599693298e+01    1.3545100228e-04
    4.6699810028e+01    1.3883700012e-04
    4.6799777985e+01    1.4229099907e-04
    4.6899837494e+01    1.4581700088e-04
    4.6999725342e+01    1.4941500558e-04
    4.7099784851e+01    1.5309099399e-04
    4.7199775696e+01    1.5684199752e-04
    4.7299766541e+01    1.6066599346e-04
    4.7399726868e+01    1.6456900630e-04
    4.7499774933e+01    1.6855100694e-04
    4.7599731445e+01    1.7261100584e-04
    4.7699722290e+01    1.7675200070e-04
    4.7799648285e+01    1.8097499560e-04
    4.7899707794e+01    1.8528499641e-04
    4.7999797821e+01    1.8967599317e-04
    4.8099727631e+01    1.9414999406e-04
    4.8199733734e+01    1.9870900724e-04
    4.8299663544e+01    2.0335499721e-04
    4.8399677277e+01    2.0808899717e-04
    4.8499725342e+01    2.1291700250e-04
    4.8599727631e+01    2.1782799740e-04
    4.8699775696e+01    2.2283500584e-04
    4.8799686432e+01    2.2792800155e-04
    4.8899677277e+01    2.3311800032e-04
    4.8999771118e+01    2.3841300572e-04
    4.9099792480e+01    2.4380200193e-04
    4.9199817657e+01    2.4929401116e-04
    4.9299808502e+01    2.5487798848e-04
    4.9399662018e+01    2.6055698982e-04
    4.9499790192e+01    2.6635100949e-04
    4.9599681854e+01    2.7223600773e-04
    4.9699657440e+01    2.7822999982e-04
    4.9799659729e+01    2.8433499392e-04
    4.9899795532e+01    2.9055800405e-04
    4.9999782562e+01    2.9687499045e-04
    5.0099796295e+01    3.0330600566e-04
    5.0199726105e+01    3.0984400655e-04
    5.0299797058e+01    3.1651000609e-04
    5.0399623871e+01    3.2326899236e-04
    5.0499649048e+01    3.3015999361e-04
    5.0599761963e+01    3.3717398765e-04
    5.0699638367e+01    3.4428801155e-04
    5.0799739838e+01    3.5153998761e-04
    5.0899772644e+01    3.5890800063e-04
    5.0999698639e+01    3.6639699829e-04
    5.1099632263e+01    3.7400799920e-04
    5.1199668884e+01    3.8176300586e-04
    5.1299633026e+01    3.8963800762e-04
    5.1399646759e+01    3.9764799294e-04
    5.1499671936e+01    4.0578600601e-04
    5.1599651337e+01    4.1406101082e-04
    5.1699649811e+01    4.2247099918e-04
    5.1799671173e+01    4.3101800838e-04
    5.1899639130e+01    4.3970000115e-04
    5.1999626160e+01    4.4852000428e-04
    5.2099639893e+01    4.5748701086e-04
    5.2199745178e+01    4.6660599764e-04
    5.2299678802e+01    4.7586200526e-04
    5.2399589539e+01    4.8525800230e-04
    5.2499759674e+01    4.9483100884e-04
    5.2599597931e+01    5.0452398136e-04
    5.2699668884e+01    5.1439297386e-04
    5.2799655914e+01    5.2440498257e-04
    5.2899662018e+01    5.3457898321e-04
    5.2999603271e+01    5.4490799084e-04
    5.3099624634e+01    5.5540498579e-04
    5.3199623108e+01    5.6606298313e-04
    5.3299636841e+01    5.7688500965e-04
    5.3399600983e+01    5.8787502348e-04
    5.3499710083e+01    5.9904798400e-04
    5.3599742889e+01    6.1038800050e-04
    5.3699676514e+01    6.2188599259e-04
    5.3799709320e+01    6.3357001636e-04
    5.3899555206e+01    6.4540997846e-04
    5.3999679565e+01    6.5746402834e-04
    5.4099689484e+01    6.6968199098e-04
    5.4199588776e+01    6.8207102595e-04
    5.4299640656e+01    6.9466599962e-04
    5.4399639130e+01    7.0744199911e-04
    5.4499584198e+01    7.2040199302e-04
    5.4599617004e+01    7.3356297798e-04
    5.4699565887e+01    7.4691401096e-04
    5.4799556732e+01    7.6046201866e-04
    5.4899669647e+01    7.7423301991e-04
    5.4999721527e+01    7.8819401097e-04
    5.5099643707e+01    8.0234202323e-04
    5.5199588776e+01    8.1669597421e-04
    5.5299591064e+01    8.3127297694e-04
    5.5399711609e+01    8.4607797908e-04
    5.5499553680e+01    8.6105597438e-04
    5.5599632263e+01    8.7628897745e-04
    5.5699630737e+01    8.9172698790e-04
    5.5799583435e+01    9.0738001745e-04
    5.5899547577e+01    9.2325598234e-04
    5.5999694824e+01    9.3939702492e-04
    5.6099651337e+01    9.5573102590e-04
    5.6199661255e+01    9.7230699612e-04
    5.6299644470e+01    9.8910904489e-04
    5.6399620056e+01    1.0061500361e-03
    5.6499561310e+01    1.0234300280e-03
    5.6599605560e+01    1.0409599636e-03
    5.6699676514e+01    1.0587599827e-03
    5.6799694061e+01    1.0767900385e-03
    5.6899581909e+01    1.0950600263e-03
    5.6999664307e+01    1.1136099929e-03
    5.7099521637e+01    1.1323799845e-03
    5.7199573517e+01    1.1514599901e-03
    5.7299652100e+01    1.1707999511e-03
    5.7399566650e+01    1.1903799605e-03
    5.7499534607e+01    1.2102499604e-03
    5.7599613190e+01    1.2304099509e-03
    5.7699516296e+01    1.2508099899e-03
    5.7799560547e+01    1.2715200428e-03
    5.7899559021e+01    1.2925099581e-03
    5.7999599457e+01    1.3138100039e-03
    5.8099552155e+01    1.3353700051e-03
    5.8199630737e+01    1.3572600437e-03
    5.8299621582e+01    1.3794200495e-03
    5.8399654388e+01    1.4018999645e-03
    5.8499538422e+01    1.4246499632e-03
    5.8599605560e+01    1.4477500226e-03
    5.8699657440e+01    1.4711599797e-03
    5.8799510956e+01    1.4948400203e-03
    5.8899635315e+01    1.5189199476e-03
    5.8999519348e+01    1.5432500513e-03
    5.9099487305e+01    1.5679399949e-03
    5.9199577332e+01    1.5929900110e-03
    5.9299533844e+01    1.6183500411e-03
    5.9399608612e+01    1.6440800391e-03
    5.9499652863e+01    1.6701499699e-03
    5.9599491119e+01    1.6965200193e-03
    5.9699481964e+01    1.7232700484e-03
    5.9799549103e+01    1.7504099524e-03
    5.9899513245e+01    1.7778900219e-03
    5.9999534607e+01    1.8057499547e-03
    6.0099594116e+01    1.8339899834e-03
    6.0199577332e+01    1.8625899684e-03
    6.0299568176e+01    1.8915700493e-03
    6.0399543762e+01    1.9209400052e-03
    6.0499511719e+01    1.9506900571e-03
    6.0599643707e+01    1.9809000660e-03
    6.0699474335e+01    2.0114099607e-03
    6.0799583435e+01    2.0424099639e-03
    6.0899547577e+01    2.0737799350e-03
    6.0999534607e+01    2.1055699326e-03
    6.1099555969e+01    2.1377999801e-03
    6.1199542999e+01    2.1704400424e-03
    6.1299617767e+01    2.2035399452e-03
    6.1399463654e+01    2.2370000370e-03
    6.1499565125e+01    2.2710000630e-03
    6.1599567413e+01    2.3054101039e-03
    6.1699474335e+01    2.3402299266e-03
    6.1799495697e+01    2.3755601142e-03
    6.1899528503e+01    2.4113499094e-03
    6.1999446869e+01    2.4475699756e-03
    6.2099456787e+01    2.4842899293e-03
    6.2199558258e+01    2.5215300266e-03
    6.2299568176e+01    2.5592299644e-03
    6.2399612427e+01    2.5974200107e-03
    6.2499542236e+01    2.6360698976e-03
    6.2599494934e+01    2.6752299163e-03
    6.2699443817e+01    2.7148900554e-03
    6.2799594879e+01    2.7551499661e-03
    6.2899475098e+01    2.7958299033e-03
    6.2999519348e+01    2.8370900545e-03
    6.3099605560e+01    2.8789099306e-03
    6.3199459076e+01    2.9211700894e-03
    6.3299411774e+01    2.9640099965e-03
    6.3399559021e+01    3.0074899551e-03
    6.3499523163e+01    3.0514500104e-03
    6.3599521637e+01    3.0959800351e-03
    6.3699451447e+01    3.1410700176e-03
    6.3799533844e+01    3.1867800280e-03
    6.3899539948e+01    3.2330600079e-03
    6.3999584198e+01    3.2799399924e-03
    6.4099525452e+01    3.3273699228e-03
    6.4199478149e+01    3.3754101023e-03
    6.4299552917e+01    3.4241199028e-03
    6.4399475098e+01    3.4733801149e-03
    6.4499519348e+01    3.5233099479e-03
    6.4599403381e+01    3.5737899598e-03
    6.4699531555e+01    3.6250399426e-03
    6.4799514771e+01    3.6768598948e-03
    6.4899421692e+01    3.7292900961e-03
    6.4999511719e+01    3.7824800238e-03
    6.5099388123e+01    3.8362198975e-03
    6.5199470520e+01    3.8907399867e-03
    6.5299415588e+01    3.9458698593e-03
    6.5399490356e+01    4.0017701685e-03
    6.5499557495e+01    4.0583498776e-03
    6.5599426270e+01    4.1155200452e-03
    6.5699501038e+01    4.1735298000e-03
    6.5799392700e+01    4.2321397923e-03
    6.5899444580e+01    4.2915698141e-03
    6.5999542236e+01    4.3517700396e-03
    6.6099433899e+01    4.4125900604e-03
    6.6199401855e+01    4.4741998427e-03
    6.6299415588e+01    4.5365998521e-03
    6.6399406433e+01    4.5997397974e-03
    6.6499473572e+01    4.6637197956e-03
    6.6599479675e+01    4.7284201719e-03
    6.6699409485e+01    4.7938800417e-03
    6.6799362183e+01    4.8601399176e-03
    6.6899520874e+01    4.9273399636e-03
    6.6999542236e+01    4.9952701665e-03
    6.7099487305e+01    5.0639701076e-03
    6.7199432373e+01    5.1335101016e-03
    6.7299407959e+01    5.2038999274e-03
    6.7399467468e+01    5.2752099000e-03
    6.7499427795e+01    5.3472998552e-03
    6.7599449158e+01    5.4203001782e-03
    6.7699348450e+01    5.4940897971e-03
    6.7799346924e+01    5.5688400753e-03
    6.7899383545e+01    5.6445100345e-03
    6.7999496460e+01    5.7211499661e-03
    6.8099494934e+01    5.7986099273e-03
    6.8199501038e+01    5.8769900352e-03
    6.8299461365e+01    5.9562800452e-03
    6.8399467468e+01    6.0365297832e-03
    6.8499366760e+01    6.1176600866e-03
    6.8599411011e+01    6.1998600140e-03
    6.8699485779e+01    6.2830601819e-03
    6.8799461365e+01    6.3671399839e-03
    6.8899467468e+01    6.4522498287e-03
    6.8999481201e+01    6.5383501351e-03
    6.9099441528e+01    6.6254101694e-03
    6.9199386597e+01    6.7134802230e-03
    6.9299339294e+01    6.8025798537e-03
    6.9399459839e+01    6.8928799592e-03
    6.9499504089e+01    6.9841500372e-03
    6.9599388123e+01    7.0763500407e-03
    6.9699447632e+01    7.1697598323e-03
    6.9799484253e+01    7.2642401792e-03
    6.9899360657e+01    7.3596602306e-03
    6.9999504089e+01    7.4564297684e-03
    7.0099334717e+01    7.5540100224e-03
    7.0199325562e+01    7.6528601348e-03
    7.0299339294e+01    7.7528897673e-03
    7.0399330139e+01    7.8540202230e-03
    7.0499435425e+01    7.9564396292e-03
    7.0599441528e+01    8.0599198118e-03
    7.0699386597e+01    8.1645101309e-03
    7.0799461365e+01    8.2704396918e-03
    7.0899307251e+01    8.3773201331e-03
    7.0999343872e+01    8.4856199101e-03
    7.1099433899e+01    8.5952095687e-03
    7.1199310303e+01    8.7058003992e-03
    7.1299446106e+01    8.8179400191e-03
    7.1399353027e+01    8.9310798794e-03
    7.1499382019e+01    9.0456400067e-03
    7.1599472046e+01    9.1615803540e-03
    7.1699440002e+01    9.2786597088e-03
    7.1799453735e+01    9.3971304595e-03
    7.1899391174e+01    9.5168203115e-03
    7.1999305725e+01    9.6378400922e-03
    7.2099365234e+01    9.7603797913e-03
    7.2199279785e+01    9.8841199651e-03
    7.2299362183e+01    1.0009399615e-02
    7.2399421692e+01    1.0136100464e-02
    7.2499343872e+01    1.0264099576e-02
    7.2599281311e+01    1.0393399745e-02
    7.2699371338e+01    1.0524500161e-02
    7.2799430847e+01    1.0656899773e-02
    7.2899330139e+01    1.0790600441e-02
    7.2999328613e+01    1.0925900191e-02
    7.3099281311e+01    1.1062599719e-02
    7.3199447632e+01    1.1201200075e-02
    7.3299385071e+01    1.1340999976e-02
    7.3399375916e+01    1.1482300237e-02
    7.3499298096e+01    1.1625199579e-02
    7.3599441528e+01    1.1769900098e-02
    7.3699272156e+01    1.1915800162e-02
    7.3799293518e+01    1.2063600123e-02
    7.3899391174e+01    1.2213099748e-02
    7.3999343872e+01    1.2364000082e-02
    7.4099380493e+01    1.2516800314e-02
    7.4199317932e+01    1.2671000324e-02
    7.4299346924e+01    1.2827100232e-02
    7.4399353027e+01    1.2984800152e-02
    7.4499252319e+01    1.3144100085e-02
    7.4599349976e+01    1.3305500150e-02
    7.4699424744e+01    1.3468599878e-02
    7.4799247742e+01    1.3633100316e-02
    7.4899391174e+01    1.3799900189e-02
    7.4999412537e+01    1.3968300074e-02
    7.5099334717e+01    1.4138399623e-02
    7.5199378967e+01    1.4310499653e-02
    7.5299324036e+01    1.4484399930e-02
    7.5399322510e+01    1.4660200104e-02
    7.5499290466e+01    1.4837900177e-02
    7.5599227905e+01    1.5017500147e-02
    7.5699249268e+01    1.5199200250e-02
    7.5799346924e+01    1.5383100137e-02
    7.5899307251e+01    1.5568699688e-02
    7.5999336243e+01    1.5756400302e-02
    7.6099281311e+01    1.5946000814e-02
    7.6199226379e+01    1.6137700528e-02
    7.6299293518e+01    1.6331700608e-02
    7.6399330139e+01    1.6527799889e-02
    7.6499252319e+01    1.6725799069e-02
    7.6599395752e+01    1.6926299781e-02
    7.6699302673e+01    1.7128599808e-02
    7.6799316406e+01    1.7333300784e-02
    7.6899299622e+01    1.7540199682e-02
    7.6999275208e+01    1.7749300227e-02
    7.7099327087e+01    1.7960799858e-02
    7.7199363708e+01    1.8174599856e-02
    7.7299240112e+01    1.8390400335e-02
    7.7399230957e+01    1.8608799204e-02
    7.7499382019e+01    1.8829900771e-02
    7.7599212646e+01    1.9052699208e-02
    7.7699317932e+01    1.9278600812e-02
    7.7799308777e+01    1.9506700337e-02
    7.7899299622e+01    1.9737200812e-02
    7.7999259949e+01    1.9970199093e-02
    7.8099372864e+01    2.0206099376e-02
    7.8199226379e+01    2.0444000140e-02
    7.8299278259e+01    2.0685000345e-02
    7.8399345398e+01    2.0928600803e-02
    7.8499374390e+01    2.1174799651e-02
    7.8599197388e+01    2.1423600614e-02
    7.8699287415e+01    2.1676199511e-02
    7.8799240112e+01    2.1932000294e-02
    7.8899223328e+01    2.2191900760e-02
    7.8999237061e+01    2.2456200793e-02
    7.9099281311e+01    2.2725600749e-02
    7.9199264526e+01    2.3000100628e-02
    7.9299247742e+01    2.3280300200e-02
    7.9399192810e+01    2.3566400632e-02
    7.9499221802e+01    2.3858899251e-02
    7.9599281311e+01    2.4157799780e-02
    7.9699272156e+01    2.4462800473e-02
    7.9799339294e+01    2.4774199352e-02
    7.9899269104e+01    2.5091199204e-02
    7.9999191284e+01    2.5413800031e-02
    8.0099250793e+01    2.5742400438e-02
    8.0199195862e+01    2.6076000184e-02
    8.0299194336e+01    2.6414699852e-02
    8.0399238586e+01    2.6758499444e-02
    8.0499176025e+01    2.7106499299e-02
    8.0599311829e+01    2.7459900826e-02
    8.0699165344e+01    2.7816800401e-02
    8.0799263000e+01    2.8179200366e-02
    8.0899192810e+01    2.8545599431e-02
    8.0999336243e+01    2.8917500749e-02
    8.1099151611e+01    2.9293300584e-02
    8.1199150085e+01    2.9675099999e-02
    8.1299186707e+01    3.0062599108e-02
    8.1399322510e+01    3.0456500128e-02
    8.1499267578e+01    3.0856100842e-02
    8.1599235535e+01    3.1262498349e-02
    8.1699295044e+01    3.1676601619e-02
    8.1799293518e+01    3.2097999007e-02
    8.1899299622e+01    3.2527398318e-02
    8.1999244690e+01    3.2964698970e-02
    8.2099273682e+01    3.3410698175e-02
    8.2199211121e+01    3.3865001053e-02
    8.2299263000e+01    3.4328300506e-02
    8.2399169922e+01    3.4799698740e-02
    8.2499214172e+01    3.5280101001e-02
    8.2599212646e+01    3.5769000649e-02
    8.2699279785e+01    3.6266598850e-02
    8.2799293518e+01    3.6772299558e-02
    8.2899238586e+01    3.7285998464e-02
    8.2999275208e+01    3.7808500230e-02
    8.3099128723e+01    3.8338601589e-02
    8.3199157715e+01    3.8878299296e-02
    8.3299125671e+01    3.9426598698e-02
    8.3399238586e+01    3.9985101670e-02
    8.3499153137e+01    4.0552299470e-02
    8.3599197388e+01    4.1130401194e-02
    8.3699272156e+01    4.1719399393e-02
    8.3799102783e+01    4.2318299413e-02
    8.3899124146e+01    4.2930100113e-02
    8.3999214172e+01    4.3554600328e-02
    8.4099159241e+01    4.4190898538e-02
    8.4199150085e+01    4.4840600342e-02
    8.4299255371e+01    4.5504301786e-02
    8.4399101257e+01    4.6179801226e-02
    8.4499107361e+01    4.6870000660e-02
    8.4599250793e+01    4.7574598342e-02
    8.4699256897e+01    4.8291701823e-02
    8.4799224854e+01    4.9021601677e-02
    8.4899223328e+01    4.9764599651e-02
    8.4999206543e+01    5.0519999117e-02
    8.5099128723e+01    5.1287300885e-02
    8.5199150085e+01    5.2067298442e-02
    8.5299095154e+01    5.2858598530e-02
    8.5399192810e+01    5.3663000464e-02
    8.5499191284e+01    5.4478399456e-02
    8.5599205017e+01    5.5305700749e-02
    8.5699157715e+01    5.6144800037e-02
    8.5799095154e+01    5.6996300817e-02
    8.5899246216e+01    5.7862598449e-02
    8.5999191284e+01    5.8740600944e-02
    8.6099220276e+01    5.9633299708e-02
    8.6199089050e+01    6.0538999736e-02
    8.6299217224e+01    6.1462201178e-02
    8.6399238586e+01    6.2399700284e-02
    8.6499160767e+01    6.3352398574e-02
    8.6599182129e+01    6.4322203398e-02
    8.6699188232e+01    6.5308302641e-02
    8.6799110413e+01    6.6310197115e-02
    8.6899101257e+01    6.7329600453e-02
    8.6999191284e+01    6.8367101252e-02
    8.7099159241e+01    6.9420300424e-02
    8.7199157715e+01    7.0490896702e-02
    8.7299110413e+01    7.1577802300e-02
    8.7399154663e+01    7.2682797909e-02
    8.7499229431e+01    7.3804996908e-02
    8.7599128723e+01    7.4942097068e-02
    8.7699188232e+01    7.6098099351e-02
    8.7799064636e+01    7.7268898487e-02
    8.7899070740e+01    7.8458599746e-02
    8.7999122620e+01    7.9666197300e-02
    8.8099159241e+01    8.0891497433e-02
    8.8199165344e+01    8.2134403288e-02
    8.8299118042e+01    8.3394996822e-02
    8.8399032593e+01    8.4673799574e-02
    8.8499122620e+01    8.5973903537e-02
    8.8599128723e+01    8.7292097509e-02
    8.8699188232e+01    8.8630802929e-02
    8.8799118042e+01    8.9987501502e-02
    8.8899032593e+01    9.1363199055e-02
    8.8999153137e+01    9.2761799693e-02
    8.9099052429e+01    9.4177000225e-02
    8.9199134827e+01    9.5614701509e-02
    8.9299079895e+01    9.7070403397e-02
    8.9399177551e+01    9.8548099399e-02
    8.9499145508e+01    1.0004399717e-01
    8.9599090576e+01    1.0155799985e-01
    8.9699157715e+01    1.0309500247e-01
    8.9799018860e+01    1.0464700311e-01
    8.9899078369e+01    1.0622200370e-01
    8.9999183655e+01    1.0781800002e-01
    9.0099098206e+01    1.0943000019e-01
    9.0199127197e+01    1.1106300354e-01
    9.0299102783e+01    1.1271599680e-01
    9.0399101257e+01    1.1439000070e-01
    9.0499069214e+01    1.1608300358e-01
    9.0599182129e+01    1.1779999733e-01
    9.0699073792e+01    1.1953499913e-01
    9.0799018860e+01    1.2129200250e-01
    9.0899108887e+01    1.2307400256e-01
    9.0999076843e+01    1.2487500161e-01
    9.1099143982e+01    1.2670099735e-01
    9.1199012756e+01    1.2854500115e-01
    9.1299118042e+01    1.3041700423e-01
    9.1399162292e+01    1.3231100142e-01
    9.1499046326e+01    1.3422399759e-01
    9.1599029541e+01    1.3616299629e-01
    9.1699043274e+01    1.3812500238e-01
    9.1799110413e+01    1.4011099935e-01
    9.1899040222e+01    1.4211800694e-01
    9.1998985291e+01    1.4414800704e-01
    9.2099159241e+01    1.4620499313e-01
    9.2199096680e+01    1.4827999473e-01
    9.2299087524e+01    1.5037800372e-01
    9.2399154663e+01    1.5250100195e-01
    9.2499130249e+01    1.5464399755e-01
    9.2599159241e+01    1.5681099892e-01
    9.2699089050e+01    1.5899799764e-01
    9.2799064636e+01    1.6120900214e-01
    9.2899101257e+01    1.6344399750e-01
    9.2999107361e+01    1.6570200026e-01
    9.3098968506e+01    1.6798000038e-01
    9.3199089050e+01    1.7028699815e-01
    9.3299011230e+01    1.7261299491e-01
    9.3399131775e+01    1.7496700585e-01
    9.3499130249e+01    1.7734199762e-01
    9.3599021912e+01    1.7973800004e-01
    9.3699073792e+01    1.8216200173e-01
    9.3799064636e+01    1.8460699916e-01
    9.3898979187e+01    1.8707300723e-01
    9.3999092102e+01    1.8956799805e-01
    9.4098960876e+01    1.9207899272e-01
    9.4199020386e+01    1.9461800158e-01
    9.4299057007e+01    1.9717900455e-01
    9.4399078369e+01    1.9976300001e-01
    9.4498985291e+01    2.0236599445e-01
    9.4598953247e+01    2.0499399304e-01
    9.4698951721e+01    2.0764499903e-01
    9.4799095154e+01    2.1032400429e-01
    9.4899047852e+01    2.1301999688e-01
    9.4999023438e+01    2.1574099362e-01
    9.5099113464e+01    2.1848799288e-01
    9.5198982239e+01    2.2125299275e-01
    9.5299026489e+01    2.2404600680e-01
    9.5398956299e+01    2.2686000168e-01
    9.5498924255e+01    2.2969900072e-01
    9.5599044800e+01    2.3256500065e-01
    9.5699043274e+01    2.3545199633e-01
    9.5799049377e+01    2.3836299777e-01
    9.5899040222e+01    2.4129700661e-01
    9.5999092102e+01    2.4425600469e-01
    9.6098960876e+01    2.4723200500e-01
    9.6198951721e+01    2.5023400784e-01
    9.6298980713e+01    2.5325998664e-01
    9.6398971558e+01    2.5630798936e-01
    9.6498916626e+01    2.5937598944e-01
    9.6599067688e+01    2.6247200370e-01
    9.6698989868e+01    2.6558300853e-01
    9.6798934937e+01    2.6871600747e-01
    9.6898979187e+01    2.7187401056e-01
    9.6999046326e+01    2.7505400777e-01
    9.7099044800e+01    2.7825298905e-01
    9.7199020386e+01    2.8147301078e-01
    9.7299049377e+01    2.8471499681e-01
    9.7398963928e+01    2.8797501326e-01
    9.7498992920e+01    2.9126000404e-01
    9.7598976135e+01    2.9456499219e-01
    9.7699035645e+01    2.9789298773e-01
    9.7799026489e+01    3.0124101043e-01
    9.7898933411e+01    3.0460599065e-01
    9.7998893738e+01    3.0799299479e-01
    9.8099014282e+01    3.1140699983e-01
    9.8198966980e+01    3.1483501196e-01
    9.8298995972e+01    3.1828698516e-01
    9.8399063110e+01    3.2175898552e-01
    9.8499008179e+01    3.2524800301e-01
    9.8598922729e+01    3.2875400782e-01
    9.8699012756e+01    3.3228701353e-01
    9.8798919678e+01    3.3583199978e-01
    9.8898887634e+01    3.3939900994e-01
    9.8998947144e+01    3.4298801422e-01
    9.9098922729e+01    3.4659200907e-01
    9.9198905945e+01    3.5021600127e-01
    9.9299026489e+01    3.5386300087e-01
    9.9398887634e+01    3.5751900077e-01
    9.9498886108e+01    3.6119800806e-01
    9.9598937988e+01    3.6489701271e-01
    9.9698875427e+01    3.6861100793e-01
    9.9799011230e+01    3.7234899402e-01
    9.9898880005e+01    3.7609499693e-01
    9.9998916626e+01    3.7986499071e-01
    1.0009898376e+02    3.8365399837e-01
    1.0019901276e+02    3.8745799661e-01
    1.0029888153e+02    3.9127400517e-01
    1.0039897156e+02    3.9511400461e-01
    1.0049886322e+02    3.9896300435e-01
    1.0059887695e+02    4.0283399820e-01
    1.0069898987e+02    4.0672400594e-01
    1.0079895020e+02    4.1062399745e-01
    1.0089888000e+02    4.1453799605e-01
    1.0099902344e+02    4.1847500205e-01
    1.0109890747e+02    4.2241701484e-01
    1.0119895935e+02    4.2638099194e-01
    1.0129898071e+02    4.3035700917e-01
    1.0139884186e+02    4.3434000015e-01
    1.0149897766e+02    4.3834900856e-01
    1.0159896088e+02    4.4236499071e-01
    1.0169901276e+02    4.4639700651e-01
    1.0179888916e+02    4.5043599606e-01
    1.0189885712e+02    4.5449098945e-01
    1.0199887085e+02    4.5856100321e-01
    1.0209892273e+02    4.6264600754e-01
    1.0219895172e+02    4.6674299240e-01
    1.0229886627e+02    4.7084799409e-01
    1.0239884949e+02    4.7496798635e-01
    1.0249887848e+02    4.7910299897e-01
    1.0259882355e+02    4.8324599862e-01
    1.0269882965e+02    4.8740398884e-01
    1.0279894257e+02    4.9157899618e-01
    1.0289895630e+02    4.9576199055e-01
    1.0299897003e+02    4.9995601177e-01
    1.0309899139e+02    5.0416201353e-01
    1.0319895935e+02    5.0837701559e-01
    1.0329891968e+02    5.1260197163e-01
    1.0339891052e+02    5.1683998108e-01
    1.0349896240e+02    5.2109098434e-01
    1.0359893036e+02    5.2534800768e-01
    1.0369883728e+02    5.2961397171e-01
    1.0379885864e+02    5.3389400244e-01
    1.0389882660e+02    5.3818202019e-01
    1.0399883270e+02    5.4247999191e-01
    1.0409889221e+02    5.4679101706e-01
    1.0419880676e+02    5.5110502243e-01
    1.0429889679e+02    5.5543702841e-01
    1.0439891052e+02    5.5977302790e-01
    1.0449891663e+02    5.6411999464e-01
    1.0459883881e+02    5.6847202778e-01
    1.0469879913e+02    5.7283502817e-01
    1.0479891205e+02    5.7721298933e-01
    1.0489888000e+02    5.8159500360e-01
    1.0499891663e+02    5.8598899841e-01
    1.0509883881e+02    5.9038698673e-01
    1.0519883728e+02    5.9479802847e-01
    1.0529891968e+02    5.9922200441e-01
    1.0539893341e+02    6.0365200043e-01
    1.0549877930e+02    6.0808402300e-01
    1.0559877777e+02    6.1253201962e-01
    1.0569882202e+02    6.1698997021e-01
    1.0579882050e+02    6.2145698071e-01
    1.0589894104e+02    6.2593698502e-01
    1.0599880981e+02    6.3041597605e-01
    1.0609880066e+02    6.3490897417e-01
    1.0619885254e+02    6.3941401243e-01
    1.0629882050e+02    6.4392501116e-01
    1.0639891052e+02    6.4845001698e-01
    1.0649893951e+02    6.5298098326e-01
    1.0659883881e+02    6.5751498938e-01
    1.0669889069e+02    6.6206502914e-01
    1.0679881287e+02    6.6661900282e-01
    1.0689884186e+02    6.7118597031e-01
    1.0699884033e+02    6.7575997114e-01
    1.0709880829e+02    6.8034201860e-01
    1.0719886780e+02    6.8493700027e-01
    1.0729879761e+02    6.8953502178e-01
    1.0739878845e+02    6.9414502382e-01
    1.0749883270e+02    6.9876497984e-01
    1.0759886169e+02    7.0339399576e-01
    1.0769876099e+02    7.0802599192e-01
    1.0779891968e+02    7.1267801523e-01
    1.0789875793e+02    7.1732497215e-01
    1.0799877167e+02    7.2198802233e-01
    1.0809886169e+02    7.2666400671e-01
    1.0819877625e+02    7.3133999109e-01
    1.0829888916e+02    7.3603397608e-01
    1.0839885712e+02    7.4072998762e-01
    1.0849880981e+02    7.4543297291e-01
    1.0859886169e+02    7.5015002489e-01
    1.0869876099e+02    7.5486898422e-01
    1.0879885864e+02    7.5960600376e-01
    1.0889885712e+02    7.6434701681e-01
    1.0899883270e+02    7.6909500360e-01
    1.0909889984e+02    7.7385598421e-01
    1.0919877625e+02    7.7861702442e-01
    1.0929888153e+02    7.8339701891e-01
    1.0939888763e+02    7.8818202019e-01
    1.0949877167e+02    7.9296898842e-01
    1.0959887695e+02    7.9777598381e-01
    1.0969872284e+02    8.0257898569e-01
    1.0979878235e+02    8.0740100145e-01
    1.0989871979e+02    8.1222701073e-01
    1.0999873352e+02    8.1706398726e-01
    1.1009877777e+02    8.2191199064e-01
    1.1019876099e+02    8.2676500082e-01
    1.1029882812e+02    8.3163201809e-01
    1.1039881897e+02    8.3650302887e-01
    1.1049880219e+02    8.4138202667e-01
    1.1059879303e+02    8.4627097845e-01
    1.1069875336e+02    8.5116702318e-01
    1.1079875183e+02    8.5607397556e-01
    1.1089877319e+02    8.6098998785e-01
    1.1099881744e+02    8.6591702700e-01
    1.1109886169e+02    8.7085199356e-01
    1.1119877625e+02    8.7578898668e-01
    1.1129875183e+02    8.8073801994e-01
    1.1139875793e+02    8.8569802046e-01
    1.1149874878e+02    8.9066499472e-01
    1.1159883881e+02    8.9564597607e-01
    1.1169882202e+02    9.0062999725e-01
    1.1179873657e+02    9.0561997890e-01
    1.1189868164e+02    9.1061401367e-01
    1.1199877167e+02    9.1562002897e-01
    1.1209867859e+02    9.2062199116e-01
    1.1219869995e+02    9.2563301325e-01
    1.1229878235e+02    9.3065297604e-01
    1.1239877319e+02    9.3567299843e-01
    1.1249881744e+02    9.4070100784e-01
    1.1259880829e+02    9.4573199749e-01
    1.1269880676e+02    9.5076799393e-01
    1.1279876709e+02    9.5581001043e-01
    1.1289871216e+02    9.6085500717e-01
    1.1299874115e+02    9.6591198444e-01
    1.1309873199e+02    9.7097200155e-01
    1.1319876099e+02    9.7603899240e-01
    1.1329876709e+02    9.8111301661e-01
    1.1339871979e+02    9.8619002104e-01
    1.1349874878e+02    9.9127697945e-01
    1.1359870148e+02    9.9636101723e-01
    1.1369877625e+02    1.0014499426e+00
    1.1379875946e+02    1.0065399408e+00
    1.1389868927e+02    1.0116200447e+00
    1.1399864960e+02    1.0166900158e+00
    1.1409873199e+02    1.0217599869e+00
    1.1419864655e+02    1.0268199444e+00
    1.1429869843e+02    1.0318800211e+00
    1.1439881134e+02    1.0369299650e+00
    1.1449880219e+02    1.0419700146e+00
    1.1459864044e+02    1.0470000505e+00
    1.1469867706e+02    1.0520399809e+00
    1.1479863739e+02    1.0570700169e+00
    1.1489878082e+02    1.0621099472e+00
    1.1499873352e+02    1.0671399832e+00
    1.1509877014e+02    1.0721700191e+00
    1.1519870758e+02    1.0772000551e+00
    1.1529865265e+02    1.0822299719e+00
    1.1539878845e+02    1.0872700214e+00
    1.1549873352e+02    1.0923000574e+00
    1.1559879303e+02    1.0973299742e+00
    1.1569866180e+02    1.1023499966e+00
    1.1579869843e+02    1.1073700190e+00
    1.1589862061e+02    1.1123800278e+00
    1.1599880219e+02    1.1173900366e+00
    1.1609874725e+02    1.1223800182e+00
    1.1619866943e+02    1.1273599863e+00
    1.1629875183e+02    1.1323399544e+00
    1.1639865875e+02    1.1372900009e+00
    1.1649861908e+02    1.1422200203e+00
    1.1659867859e+02    1.1471400261e+00
    1.1669873047e+02    1.1520400047e+00
    1.1679862976e+02    1.1569099426e+00
    1.1689875793e+02    1.1617799997e+00
    1.1699868011e+02    1.1666200161e+00
    1.1709873962e+02    1.1714400053e+00
    1.1719870758e+02    1.1762499809e+00
    1.1729875946e+02    1.1810400486e+00
    1.1739871216e+02    1.1858099699e+00
    1.1749874115e+02    1.1905800104e+00
    1.1759867859e+02    1.1953200102e+00
    1.1769863892e+02    1.2000600100e+00
    1.1779875946e+02    1.2047899961e+00
    1.1789865875e+02    1.2094899416e+00
    1.1799871826e+02    1.2141799927e+00
    1.1809874725e+02    1.2188600302e+00
    1.1819860077e+02    1.2235100269e+00
    1.1829866028e+02    1.2281500101e+00
    1.1839859009e+02    1.2327699661e+00
    1.1849867249e+02    1.2373700142e+00
    1.1859863281e+02    1.2419500351e+00
    1.1869863129e+02    1.2465100288e+00
    1.1879866028e+02    1.2510499954e+00
    1.1889869690e+02    1.2555700541e+00
    1.1899873352e+02    1.2600699663e+00
    1.1909863281e+02    1.2645399570e+00
    1.1919863129e+02    1.2689900398e+00
    1.1929865265e+02    1.2734299898e+00
    1.1939871979e+02    1.2778500319e+00
    1.1949868774e+02    1.2822400331e+00
    1.1959867859e+02    1.2866300344e+00
    1.1969863129e+02    1.2909899950e+00
    1.1979872131e+02    1.2953499556e+00
    1.1989859772e+02    1.2996699810e+00
    1.1999855042e+02    1.3039900064e+00
    1.2009873199e+02    1.3083000183e+00
    1.2019869995e+02    1.3125799894e+00
    1.2029872131e+02    1.3168499470e+00
    1.2039862061e+02    1.3210999966e+00
    1.2049871826e+02    1.3253400326e+00
    1.2059861755e+02    1.3295600414e+00
    1.2069856262e+02    1.3337600231e+00
    1.2079857635e+02    1.3379399776e+00
    1.2089865875e+02    1.3421100378e+00
    1.2099859619e+02    1.3462599516e+00
    1.2109870911e+02    1.3503899574e+00
    1.2119856262e+02    1.3544900417e+00
    1.2129866791e+02    1.3585799932e+00
    1.2139862823e+02    1.3626400232e+00
    1.2149861908e+02    1.3666800261e+00
    1.2159868622e+02    1.3707100153e+00
    1.2169869995e+02    1.3747099638e+00
    1.2179859161e+02    1.3786799908e+00
    1.2189866638e+02    1.3826400042e+00
    1.2199871063e+02    1.3865699768e+00
    1.2209858704e+02    1.3904800415e+00
    1.2219856262e+02    1.3943799734e+00
    1.2229868317e+02    1.3982599974e+00
    1.2239865875e+02    1.4021199942e+00
    1.2249854279e+02    1.4059599638e+00
    1.2259858704e+02    1.4098000526e+00
    1.2269857025e+02    1.4136099815e+00
    1.2279859161e+02    1.4174100161e+00
    1.2289852905e+02    1.4211900234e+00
    1.2299855804e+02    1.4249500036e+00
    1.2309851837e+02    1.4286999702e+00
    1.2319864655e+02    1.4324300289e+00
    1.2329865265e+02    1.4361300468e+00
    1.2339865875e+02    1.4398100376e+00
    1.2349861145e+02    1.4434599876e+00
    1.2359854889e+02    1.4470900297e+00
    1.2369851685e+02    1.4507000446e+00
    1.2379850769e+02    1.4542800188e+00
    1.2389852905e+02    1.4578399658e+00
    1.2399849701e+02    1.4613599777e+00
    1.2409861755e+02    1.4648699760e+00
    1.2419853210e+02    1.4683500528e+00
    1.2429857635e+02    1.4718099833e+00
    1.2439859772e+02    1.4752500057e+00
    1.2449849701e+02    1.4786599874e+00
    1.2459858704e+02    1.4820599556e+00
    1.2469857788e+02    1.4854400158e+00
    1.2479859161e+02    1.4888000488e+00
    1.2489859009e+02    1.4921400547e+00
    1.2499858856e+02    1.4954500198e+00
    1.2509864807e+02    1.4987599850e+00
    1.2519863129e+02    1.5020400286e+00
    1.2529850769e+02    1.5052900314e+00
    1.2539852905e+02    1.5085300207e+00
    1.2549848175e+02    1.5117399693e+00
    1.2559854889e+02    1.5149300098e+00
    1.2569860840e+02    1.5181000233e+00
    1.2579856110e+02    1.5212399960e+00
    1.2589846802e+02    1.5243500471e+00
    1.2599851227e+02    1.5274399519e+00
    1.2609861755e+02    1.5305099487e+00
    1.2619863129e+02    1.5335500240e+00
    1.2629857635e+02    1.5365600586e+00
    1.2639861298e+02    1.5395499468e+00
    1.2649851990e+02    1.5425200462e+00
    1.2659850311e+02    1.5454599857e+00
    1.2669863129e+02    1.5483800173e+00
    1.2679847717e+02    1.5512599945e+00
    1.2689852905e+02    1.5541299582e+00
    1.2699857330e+02    1.5569800138e+00
    1.2709855652e+02    1.5598100424e+00
    1.2719846344e+02    1.5626100302e+00
    1.2729859924e+02    1.5653899908e+00
    1.2739846802e+02    1.5681400299e+00
    1.2749849701e+02    1.5708800554e+00
    1.2759854126e+02    1.5736000538e+00
    1.2769860077e+02    1.5762900114e+00
    1.2779853058e+02    1.5789599419e+00
    1.2789853668e+02    1.5816099644e+00
    1.2799851990e+02    1.5842399597e+00
    1.2809844971e+02    1.5868400335e+00
    1.2819856262e+02    1.5894299746e+00
    1.2829849243e+02    1.5919799805e+00
    1.2839846802e+02    1.5945199728e+00
    1.2849848938e+02    1.5970300436e+00
    1.2859855652e+02    1.5995199680e+00
    1.2869860840e+02    1.6019799709e+00
    1.2879864502e+02    1.6044199467e+00
    1.2889857483e+02    1.6068400145e+00
    1.2899861145e+02    1.6092300415e+00
    1.2909854126e+02    1.6115900278e+00
    1.2919859314e+02    1.6139400005e+00
    1.2929867554e+02    1.6162600517e+00
    1.2939851379e+02    1.6185599566e+00
    1.2949861145e+02    1.6208399534e+00
    1.2959860229e+02    1.6231000423e+00
    1.2969868469e+02    1.6253399849e+00
    1.2979858398e+02    1.6275600195e+00
    1.2989866638e+02    1.6297600269e+00
    1.2999865723e+02    1.6319500208e+00
    1.3009860229e+02    1.6341099739e+00
    1.3019865417e+02    1.6362600327e+00
    1.3029856873e+02    1.6383800507e+00
    1.3039872742e+02    1.6404900551e+00
    1.3049862671e+02    1.6425800323e+00
    1.3059864807e+02    1.6446499825e+00
    1.3069868469e+02    1.6467000246e+00
    1.3079873657e+02    1.6487400532e+00
    1.3089874268e+02    1.6507500410e+00
    1.3099870300e+02    1.6527400017e+00
    1.3109878540e+02    1.6547100544e+00
    1.3119871521e+02    1.6566599607e+00
    1.3129878235e+02    1.6585999727e+00
    1.3139874268e+02    1.6605199575e+00
    1.3149880981e+02    1.6624300480e+00
    1.3159866333e+02    1.6643199921e+00
    1.3169879150e+02    1.6662000418e+00
    1.3179879761e+02    1.6680599451e+00
    1.3189874268e+02    1.6699099541e+00
    1.3199877930e+02    1.6717499495e+00
    1.3209869385e+02    1.6735700369e+00
    1.3219873047e+02    1.6753799915e+00
    1.3229872131e+02    1.6771800518e+00
    1.3239874268e+02    1.6789599657e+00
    1.3249876404e+02    1.6807299852e+00
    1.3259887695e+02    1.6824899912e+00
    1.3269888306e+02    1.6842399836e+00
    1.3279882812e+02    1.6859699488e+00
    1.3289874268e+02    1.6876900196e+00
    1.3299876404e+02    1.6893899441e+00
    1.3309890747e+02    1.6910799742e+00
    1.3319885254e+02    1.6927599907e+00
    1.3329887390e+02    1.6944299936e+00
    1.3339889526e+02    1.6960799694e+00
    1.3349893188e+02    1.6977200508e+00
    1.3359878540e+02    1.6993399858e+00
    1.3369886780e+02    1.7009500265e+00
    1.3379879761e+02    1.7025500536e+00
    1.3389880371e+02    1.7041399479e+00
    1.3399896240e+02    1.7057199478e+00
    1.3409890747e+02    1.7072900534e+00
    1.3419880676e+02    1.7088400126e+00
    1.3429890442e+02    1.7103899717e+00
    1.3439884949e+02    1.7119300365e+00
    1.3449890137e+02    1.7134599686e+00
    1.3459884644e+02    1.7149800062e+00
    1.3469883728e+02    1.7164900303e+00
    1.3479890442e+02    1.7180000544e+00
    1.3489892578e+02    1.7194999456e+00
    1.3499899292e+02    1.7209999561e+00
    1.3509895325e+02    1.7224800587e+00
    1.3519894409e+02    1.7239600420e+00
    1.3529896545e+02    1.7254400253e+00
    1.3539895630e+02    1.7268999815e+00
    1.3549902344e+02    1.7283600569e+00
    1.3559902954e+02    1.7298200130e+00
    1.3569906616e+02    1.7312699556e+00
    1.3579893494e+02    1.7327100039e+00
    1.3589901733e+02    1.7341400385e+00
    1.3599891663e+02    1.7355699539e+00
    1.3609898376e+02    1.7369899750e+00
    1.3619902039e+02    1.7384099960e+00
    1.3629899597e+02    1.7398099899e+00
    1.3639898682e+02    1.7412199974e+00
    1.3649911499e+02    1.7426199913e+00
    1.3659907532e+02    1.7440199852e+00
    1.3669900513e+02    1.7454199791e+00
    1.3679896545e+02    1.7468099594e+00
    1.3689915466e+02    1.7482099533e+00
    1.3699911499e+02    1.7496000528e+00
    1.3709915161e+02    1.7509900331e+00
    1.3719905090e+02    1.7523699999e+00
    1.3729902649e+02    1.7537599802e+00
    1.3739912415e+02    1.7551399469e+00
    1.3749906921e+02    1.7565100193e+00
    1.3759913635e+02    1.7578799725e+00
    1.3769905090e+02    1.7592500448e+00
    1.3779916382e+02    1.7606099844e+00
    1.3789912415e+02    1.7619700432e+00
    1.3799920654e+02    1.7633299828e+00
    1.3809921265e+02    1.7646800280e+00
    1.3819918823e+02    1.7660399675e+00
    1.3829913330e+02    1.7674200535e+00
    1.3839910889e+02    1.7688299417e+00
    1.3849919128e+02    1.7703000307e+00
    1.3859915161e+02    1.7718199492e+00
    1.3869921875e+02    1.7734099627e+00
    1.3879910278e+02    1.7750699520e+00
    1.3889909363e+02    1.7768000364e+00
    1.3899926758e+02    1.7785700560e+00
    1.3909924316e+02    1.7803499699e+00
    1.3919912720e+02    1.7821099758e+00
    1.3929913330e+02    1.7838599682e+00
    1.3939921570e+02    1.7855999470e+00
    1.3949923706e+02    1.7873200178e+00
    1.3959927368e+02    1.7890299559e+00
    1.3969929504e+02    1.7907299995e+00
    1.3979919434e+02    1.7924100161e+00
    1.3989929199e+02    1.7940800190e+00
    1.3999923706e+02    1.7957400084e+00
    1.4009921265e+02    1.7973899841e+00
    1.4019926453e+02    1.7990200520e+00
    1.4029925537e+02    1.8006299734e+00
    1.4039918518e+02    1.8022300005e+00
    1.4049920654e+02    1.8038100004e+00
    1.4059919739e+02    1.8053699732e+00
    1.4069920349e+02    1.8069200516e+00
    1.4079930115e+02    1.8084399700e+00
    1.4089927673e+02    1.8099399805e+00
    1.4099934387e+02    1.8114099503e+00
    1.4109936523e+02    1.8128600121e+00
    1.4119931030e+02    1.8142900467e+00
    1.4129937744e+02    1.8156900406e+00
    1.4139929199e+02    1.8170599937e+00
    1.4149937439e+02    1.8184100389e+00
    1.4159939575e+02    1.8197400570e+00
    1.4169929504e+02    1.8210400343e+00
    1.4179928589e+02    1.8223199844e+00
    1.4189930725e+02    1.8235800266e+00
    1.4199937439e+02    1.8248100281e+00
    1.4209942627e+02    1.8260200024e+00
    1.4219935608e+02    1.8272000551e+00
    1.4229945374e+02    1.8283599615e+00
    1.4239935303e+02    1.8294800520e+00
    1.4249937439e+02    1.8305799961e+00
    1.4259934998e+02    1.8316400051e+00
    1.4269938660e+02    1.8326799870e+00
    1.4279934692e+02    1.8336900473e+00
    1.4289939880e+02    1.8346699476e+00
    1.4299940491e+02    1.8356300592e+00
    1.4309942627e+02    1.8365499973e+00
    1.4319938660e+02    1.8374500275e+00
    1.4329940796e+02    1.8383200169e+00
    1.4339949036e+02    1.8391699791e+00
    1.4349948120e+02    1.8399900198e+00
    1.4359948730e+02    1.8407800198e+00
    1.4369947815e+02    1.8415399790e+00
    1.4379948425e+02    1.8422800303e+00
    1.4389950562e+02    1.8429800272e+00
    1.4399954224e+02    1.8436499834e+00
    1.4409950256e+02    1.8442900181e+00
    1.4419955444e+02    1.8449000120e+00
    1.4429945374e+02    1.8454799652e+00
    1.4439955139e+02    1.8460199833e+00
    1.4449952698e+02    1.8465299606e+00
    1.4459945679e+02    1.8470100164e+00
    1.4469944763e+02    1.8474600315e+00
    1.4479949951e+02    1.8478699923e+00
    1.4489955139e+02    1.8482600451e+00
    1.4499960327e+02    1.8486100435e+00
    1.4509957886e+02    1.8489400148e+00
    1.4519953918e+02    1.8492399454e+00
    1.4529949951e+02    1.8495099545e+00
    1.4539959717e+02    1.8497500420e+00
    1.4549958801e+02    1.8499599695e+00
    1.4559962463e+02    1.8501399755e+00
    1.4569963074e+02    1.8502800465e+00
    1.4579963684e+02    1.8503899574e+00
    1.4589958191e+02    1.8504699469e+00
    1.4599969482e+02    1.8505100012e+00
    1.4609957886e+02    1.8505200148e+00
    1.4619969177e+02    1.8504999876e+00
    1.4629960632e+02    1.8504400253e+00
    1.4639959717e+02    1.8503500223e+00
    1.4649960327e+02    1.8502299786e+00
    1.4659971619e+02    1.8500800133e+00
    1.4669964600e+02    1.8498899937e+00
    1.4679969788e+02    1.8496799469e+00
    1.4689959717e+02    1.8494299650e+00
    1.4699971008e+02    1.8491599560e+00
    1.4709968567e+02    1.8488500118e+00
    1.4719966125e+02    1.8485200405e+00
    1.4729969788e+02    1.8481500149e+00
    1.4739978027e+02    1.8477499485e+00
    1.4749969482e+02    1.8473199606e+00
    1.4759970093e+02    1.8468600512e+00
    1.4769973755e+02    1.8463699818e+00
    1.4779968262e+02    1.8458399773e+00
    1.4789973450e+02    1.8452899456e+00
    1.4799978638e+02    1.8446999788e+00
    1.4809982300e+02    1.8440799713e+00
    1.4819981384e+02    1.8434300423e+00
    1.4829981995e+02    1.8427499533e+00
    1.4839984131e+02    1.8420399427e+00
    1.4849972534e+02    1.8413100243e+00
    1.4859974670e+02    1.8405400515e+00
    1.4869972229e+02    1.8397500515e+00
    1.4879983521e+02    1.8389300108e+00
    1.4889976501e+02    1.8380800486e+00
    1.4899984741e+02    1.8372100592e+00
    1.4909974670e+02    1.8363100290e+00
    1.4919984436e+02    1.8353699446e+00
    1.4929980469e+02    1.8344099522e+00
    1.4939984131e+02    1.8334200382e+00
    1.4949984741e+02    1.8324099779e+00
    1.4959983826e+02    1.8313599825e+00
    1.4969978333e+02    1.8302899599e+00
    1.4979981995e+02    1.8292000294e+00
    1.4989990234e+02    1.8280800581e+00
    1.4999987793e+02    1.8269399405e+00
    1.5009991455e+02    1.8257700205e+00
    1.5019990540e+02    1.8245799541e+00
    1.5029992676e+02    1.8233599663e+00
    1.5039982605e+02    1.8221299648e+00
    1.5049995422e+02    1.8208700418e+00
    1.5059988403e+02    1.8195899725e+00
    1.5069985962e+02    1.8182899952e+00
    1.5079992676e+02    1.8169599771e+00
    1.5089991760e+02    1.8156100512e+00
    1.5099998474e+02    1.8142399788e+00
    1.5109988403e+02    1.8128499985e+00
    1.5120001221e+02    1.8114299774e+00
    1.5129994202e+02    1.8099999428e+00
    1.5139990234e+02    1.8085500002e+00
    1.5150000000e+02    1.8070800304e+00
    1.5159997559e+02    1.8056000471e+00
    1.5169998169e+02    1.8041000366e+00
    1.5179991150e+02    1.8025799990e+00
    1.5189990234e+02    1.8010499477e+00
    1.5199996948e+02    1.7995100021e+00
    1.5210006714e+02    1.7979500294e+00
    1.5220002747e+02    1.7963900566e+00
    1.5229995728e+02    1.7948100567e+00
    1.5239991760e+02    1.7932200432e+00
    1.5250000000e+02    1.7916200161e+00
    1.5260000610e+02    1.7900099754e+00
    1.5269993591e+02    1.7884000540e+00
    1.5280007935e+02    1.7867599726e+00
    1.5290011597e+02    1.7851300240e+00
    1.5300001526e+02    1.7834800482e+00
    1.5310000610e+02    1.7818299532e+00
    1.5320005798e+02    1.7801699638e+00
    1.5330012512e+02    1.7784999609e+00
    1.5340014648e+02    1.7768399715e+00
    1.5350003052e+02    1.7751599550e+00
    1.5360008240e+02    1.7734899521e+00
    1.5370004272e+02    1.7718100548e+00
    1.5380000305e+02    1.7701400518e+00
    1.5390008545e+02    1.7684600353e+00
    1.5400009155e+02    1.7667800188e+00
    1.5410014343e+02    1.7651000023e+00
    1.5420018005e+02    1.7634199858e+00
    1.5430009460e+02    1.7617499828e+00
    1.5440008545e+02    1.7600799799e+00
    1.5450007629e+02    1.7584099770e+00
    1.5460012817e+02    1.7567299604e+00
    1.5470005798e+02    1.7550699711e+00
    1.5480009460e+02    1.7533999681e+00
    1.5490017700e+02    1.7517299652e+00
    1.5500015259e+02    1.7500699759e+00
    1.5510023499e+02    1.7484099865e+00
    1.5520016479e+02    1.7467600107e+00
    1.5530018616e+02    1.7451100349e+00
    1.5540023804e+02    1.7434600592e+00
    1.5550015259e+02    1.7418199778e+00
    1.5560020447e+02    1.7401900291e+00
    1.5570022583e+02    1.7385699749e+00
    1.5580018616e+02    1.7369699478e+00
    1.5590019226e+02    1.7353800535e+00
    1.5600030518e+02    1.7338099480e+00
    1.5610026550e+02    1.7322599888e+00
    1.5620016479e+02    1.7307200432e+00
    1.5630024719e+02    1.7291799784e+00
    1.5640031433e+02    1.7276500463e+00
    1.5650021362e+02    1.7261199951e+00
    1.5660031128e+02    1.7245899439e+00
    1.5670033264e+02    1.7230700254e+00
    1.5680030823e+02    1.7215499878e+00
    1.5690031433e+02    1.7200299501e+00
    1.5700025940e+02    1.7185200453e+00
    1.5710032654e+02    1.7170100212e+00
    1.5720031738e+02    1.7154999971e+00
    1.5730029297e+02    1.7139999866e+00
    1.5740037537e+02    1.7124999762e+00
    1.5750039673e+02    1.7109999657e+00
    1.5760031128e+02    1.7095099688e+00
    1.5770025635e+02    1.7080299854e+00
    1.5780033875e+02    1.7065399885e+00
    1.5790039062e+02    1.7050499916e+00
    1.5800028992e+02    1.7035700083e+00
    1.5810040283e+02    1.7020900249e+00
    1.5820033264e+02    1.7006100416e+00
    1.5830030823e+02    1.6991300583e+00
    1.5840046692e+02    1.6976399422e+00
    1.5850033569e+02    1.6961599588e+00
    1.5860031128e+02    1.6946799755e+00
    1.5870048523e+02    1.6931999922e+00
    1.5880035400e+02    1.6917099953e+00
    1.5890046692e+02    1.6902300119e+00
    1.5900035095e+02    1.6887400150e+00
    1.5910038757e+02    1.6872600317e+00
    1.5920034790e+02    1.6857700348e+00
    1.5930052185e+02    1.6842800379e+00
    1.5940046692e+02    1.6827900410e+00
    1.5950039673e+02    1.6813000441e+00
    1.5960047913e+02    1.6798000336e+00
    1.5970042419e+02    1.6783000231e+00
    1.5980047607e+02    1.6768000126e+00
    1.5990049744e+02    1.6753000021e+00
    1.6000041199e+02    1.6737899780e+00
    1.6010046387e+02    1.6722799540e+00
    1.6020045471e+02    1.6707600355e+00
    1.6030050659e+02    1.6692399979e+00
    1.6040042114e+02    1.6677199602e+00
    1.6050050354e+02    1.6661800146e+00
    1.6060049438e+02    1.6646499634e+00
    1.6070054626e+02    1.6631000042e+00
    1.6080053711e+02    1.6615600586e+00
    1.6090051270e+02    1.6599999666e+00
    1.6100044250e+02    1.6584399939e+00
    1.6110058594e+02    1.6568700075e+00
    1.6120051575e+02    1.6553000212e+00
    1.6130052185e+02    1.6537200212e+00
    1.6140051270e+02    1.6521300077e+00
    1.6150059509e+02    1.6505299807e+00
    1.6160064697e+02    1.6489299536e+00
    1.6170054626e+02    1.6473200321e+00
    1.6180056763e+02    1.6456999779e+00
    1.6190057373e+02    1.6440700293e+00
    1.6200054932e+02    1.6424299479e+00
    1.6210057068e+02    1.6407799721e+00
    1.6220053101e+02    1.6391199827e+00
    1.6230056763e+02    1.6374499798e+00
    1.6240058899e+02    1.6357799768e+00
    1.6250059509e+02    1.6340899467e+00
    1.6260061646e+02    1.6323900223e+00
    1.6270057678e+02    1.6306899786e+00
    1.6280073547e+02    1.6289700270e+00
    1.6290071106e+02    1.6272499561e+00
    1.6300056458e+02    1.6255199909e+00
    1.6310067749e+02    1.6237699986e+00
    1.6320060730e+02    1.6220200062e+00
    1.6330064392e+02    1.6202499866e+00
    1.6340069580e+02    1.6184699535e+00
    1.6350068665e+02    1.6166900396e+00
    1.6360060120e+02    1.6148899794e+00
    1.6370077515e+02    1.6130800247e+00
    1.6380067444e+02    1.6112600565e+00
    1.6390071106e+02    1.6094299555e+00
    1.6400076294e+02    1.6075899601e+00
    1.6410066223e+02    1.6057399511e+00
    1.6420065308e+02    1.6038700342e+00
    1.6430070496e+02    1.6019899845e+00
    1.6440071106e+02    1.6001000404e+00
    1.6450076294e+02    1.5981999636e+00
    1.6460081482e+02    1.5962899923e+00
    1.6470083618e+02    1.5943700075e+00
    1.6480079651e+02    1.5924299955e+00
    1.6490083313e+02    1.5904899836e+00
    1.6500083923e+02    1.5885299444e+00
    1.6510076904e+02    1.5865600109e+00
    1.6520071411e+02    1.5845799446e+00
    1.6530087280e+02    1.5825799704e+00
    1.6540075684e+02    1.5805699825e+00
    1.6550085449e+02    1.5785499811e+00
    1.6560083008e+02    1.5765099525e+00
    1.6570088196e+02    1.5744700432e+00
    1.6580082703e+02    1.5724099874e+00
    1.6590086365e+02    1.5703300238e+00
    1.6600088501e+02    1.5682499409e+00
    1.6610087585e+02    1.5661499500e+00
    1.6620089722e+02    1.5640399456e+00
    1.6630084229e+02    1.5619200468e+00
    1.6640086365e+02    1.5597800016e+00
    1.6650083923e+02    1.5576399565e+00
    1.6660090637e+02    1.5554699898e+00
    1.6670091248e+02    1.5533000231e+00
    1.6680081177e+02    1.5511200428e+00
    1.6690086365e+02    1.5489300489e+00
    1.6700096130e+02    1.5467200279e+00
    1.6710096741e+02    1.5444899797e+00
    1.6720095825e+02    1.5422600508e+00
    1.6730099487e+02    1.5400099754e+00
    1.6740098572e+02    1.5377500057e+00
    1.6750093079e+02    1.5354800224e+00
    1.6760084534e+02    1.5332000256e+00
    1.6770094299e+02    1.5309000015e+00
    1.6780097961e+02    1.5285899639e+00
    1.6790086365e+02    1.5262700319e+00
    1.6800096130e+02    1.5239399672e+00
    1.6810093689e+02    1.5216000080e+00
    1.6820098877e+02    1.5192400217e+00
    1.6830093384e+02    1.5168700218e+00
    1.6840097046e+02    1.5145000219e+00
    1.6850099182e+02    1.5121099949e+00
    1.6860093689e+02    1.5097099543e+00
    1.6870104980e+02    1.5072900057e+00
    1.6880091858e+02    1.5048700571e+00
    1.6890107727e+02    1.5024299622e+00
    1.6900094604e+02    1.4999799728e+00
    1.6910096741e+02    1.4975199699e+00
    1.6920103455e+02    1.4950499535e+00
    1.6930093384e+02    1.4925600290e+00
    1.6940095520e+02    1.4900599718e+00
    1.6950099182e+02    1.4875600338e+00
    1.6960102844e+02    1.4850300550e+00
    1.6970104980e+02    1.4824999571e+00
    1.6980101013e+02    1.4799599648e+00
    1.6990110779e+02    1.4773999453e+00
    1.7000111389e+02    1.4748300314e+00
    1.7010102844e+02    1.4722599983e+00
    1.7020117188e+02    1.4696600437e+00
    1.7030108643e+02    1.4670599699e+00
    1.7040118408e+02    1.4644500017e+00
    1.7050106812e+02    1.4618300200e+00
    1.7060107422e+02    1.4591900110e+00
    1.7070114136e+02    1.4565399885e+00
    1.7080104065e+02    1.4538799524e+00
    1.7090115356e+02    1.4512000084e+00
    1.7100122070e+02    1.4485100508e+00
    1.7110113525e+02    1.4458199739e+00
    1.7120117188e+02    1.4431099892e+00
    1.7130110168e+02    1.4403899908e+00
    1.7140113831e+02    1.4376599789e+00
    1.7150115967e+02    1.4349100590e+00
    1.7160110474e+02    1.4321600199e+00
    1.7170111084e+02    1.4293899536e+00
    1.7180116272e+02    1.4266099930e+00
    1.7190112305e+02    1.4238200188e+00
    1.7200122070e+02    1.4210200310e+00
    1.7210119629e+02    1.4182100296e+00
    1.7220126343e+02    1.4153900146e+00
    1.7230128479e+02    1.4125499725e+00
    1.7240130615e+02    1.4097000360e+00
    1.7250123596e+02    1.4068399668e+00
    1.7260127258e+02    1.4039700031e+00
    1.7270115662e+02    1.4010900259e+00
    1.7280125427e+02    1.3982000351e+00
    1.7290127563e+02    1.3952900171e+00
    1.7300125122e+02    1.3923699856e+00
    1.7310122681e+02    1.3894499540e+00
    1.7320126343e+02    1.3865100145e+00
    1.7330128479e+02    1.3835599422e+00
    1.7340126038e+02    1.3805999756e+00
    1.7350120544e+02    1.3776299953e+00
    1.7360127258e+02    1.3746399879e+00
    1.7370123291e+02    1.3716499805e+00
    1.7380134583e+02    1.3686399460e+00
    1.7390141296e+02    1.3656200171e+00
    1.7400128174e+02    1.3625999689e+00
    1.7410128784e+02    1.3595600128e+00
    1.7420129395e+02    1.3565100431e+00
    1.7430140686e+02    1.3534400463e+00
    1.7440133667e+02    1.3503700495e+00
    1.7450135803e+02    1.3472900391e+00
    1.7460131836e+02    1.3442000151e+00
    1.7470144653e+02    1.3410899639e+00
    1.7480140686e+02    1.3379700184e+00
    1.7490130615e+02    1.3348499537e+00
    1.7500137329e+02    1.3317099810e+00
    1.7510130310e+02    1.3285599947e+00
    1.7520138550e+02    1.3253999949e+00
    1.7530133057e+02    1.3222299814e+00
    1.7540142822e+02    1.3190499544e+00
    1.7550146484e+02    1.3158600330e+00
    1.7560147095e+02    1.3126599789e+00
    1.7570144653e+02    1.3094500303e+00
    1.7580136108e+02    1.3062399626e+00
    1.7590138245e+02    1.3029999733e+00
    1.7600146484e+02    1.2997599840e+00
    1.7610151672e+02    1.2965099812e+00
    1.7620150757e+02    1.2932499647e+00
    1.7630152893e+02    1.2899700403e+00
    1.7640150452e+02    1.2866899967e+00
    1.7650149536e+02    1.2834000587e+00
    1.7660151672e+02    1.2800899744e+00
    1.7670141602e+02    1.2767800093e+00
    1.7680158997e+02    1.2734600306e+00
    1.7690144348e+02    1.2701300383e+00
    1.7700157166e+02    1.2667800188e+00
    1.7710159302e+02    1.2634299994e+00
    1.7720152283e+02    1.2600699663e+00
    1.7730151367e+02    1.2567000389e+00
    1.7740151978e+02    1.2533199787e+00
    1.7750149536e+02    1.2499300241e+00
    1.7760159302e+02    1.2465300560e+00
    1.7770153809e+02    1.2431199551e+00
    1.7780160522e+02    1.2396999598e+00
    1.7790151978e+02    1.2362799644e+00
    1.7800161743e+02    1.2328399420e+00
    1.7810151672e+02    1.2294000387e+00
    1.7820161438e+02    1.2259399891e+00
    1.7830166626e+02    1.2224700451e+00
    1.7840153503e+02    1.2189999819e+00
    1.7850155640e+02    1.2155200243e+00
    1.7860156250e+02    1.2120300531e+00
    1.7870158386e+02    1.2085299492e+00
    1.7880160522e+02    1.2050199509e+00
    1.7890159607e+02    1.2015000582e+00
    1.7900161743e+02    1.1979800463e+00
    1.7910159302e+02    1.1944400072e+00
    1.7920159912e+02    1.1908999681e+00
    1.7930168152e+02    1.1873500347e+00
    1.7940158081e+02    1.1837899685e+00
    1.7950157166e+02    1.1802200079e+00
    1.7960165405e+02    1.1766500473e+00
    1.7970161438e+02    1.1730600595e+00
    1.7980169678e+02    1.1694699526e+00
    1.7990162659e+02    1.1658699512e+00
    1.8000170898e+02    1.1622600555e+00
    1.8010168457e+02    1.1586400270e+00
    1.8020169067e+02    1.1550199986e+00
    1.8030177307e+02    1.1513799429e+00
    1.8040173340e+02    1.1477400064e+00
    1.8050166321e+02    1.1440900564e+00
    1.8060168457e+02    1.1404399872e+00
    1.8070181274e+02    1.1367700100e+00
    1.8080168152e+02    1.1331100464e+00
    1.8090170288e+02    1.1294300556e+00
    1.8100178528e+02    1.1257400513e+00
    1.8110174561e+02    1.1220500469e+00
    1.8120173645e+02    1.1183500290e+00
    1.8130172729e+02    1.1146399975e+00
    1.8140185547e+02    1.1109299660e+00
    1.8150184631e+02    1.1072100401e+00
    1.8160183716e+02    1.1034799814e+00
    1.8170176697e+02    1.0997500420e+00
    1.8180171204e+02    1.0960099697e+00
    1.8190174866e+02    1.0922600031e+00
    1.8200178528e+02    1.0885000229e+00
    1.8210185242e+02    1.0847400427e+00
    1.8220188904e+02    1.0809700489e+00
    1.8230175781e+02    1.0772000551e+00
    1.8240185547e+02    1.0734100342e+00
    1.8250192261e+02    1.0696200132e+00
    1.8260179138e+02    1.0658299923e+00
    1.8270181274e+02    1.0620299578e+00
    1.8280180359e+02    1.0582200289e+00
    1.8290196228e+02    1.0544099808e+00
    1.8300192261e+02    1.0505900383e+00
    1.8310191345e+02    1.0467699766e+00
    1.8320196533e+02    1.0429300070e+00
    1.8330184937e+02    1.0391000509e+00
    1.8340190125e+02    1.0352599621e+00
    1.8350192261e+02    1.0314099789e+00
    1.8360194397e+02    1.0275599957e+00
    1.8370187378e+02    1.0236999989e+00
    1.8380184937e+02    1.0198400021e+00
    1.8390187073e+02    1.0159699917e+00
    1.8400195312e+02    1.0120999813e+00
    1.8410197449e+02    1.0082199574e+00
    1.8420190430e+02    1.0043300390e+00
    1.8430189514e+02    1.0004400015e+00
    1.8440199280e+02    9.9654698372e-01
    1.8450196838e+02    9.9264699221e-01
    1.8460194397e+02    9.8874402046e-01
    1.8470196533e+02    9.8483300209e-01
    1.8480206299e+02    9.8091500998e-01
    1.8490200806e+02    9.7699797153e-01
    1.8500198364e+02    9.7307497263e-01
    1.8510203552e+02    9.6914499998e-01
    1.8520199585e+02    9.6521401405e-01
    1.8530203247e+02    9.6127599478e-01
    1.8540205383e+02    9.5733398199e-01
    1.8550195312e+02    9.5339298248e-01
    1.8560206604e+02    9.4943898916e-01
    1.8570207214e+02    9.4548499584e-01
    1.8580209351e+02    9.4152599573e-01
    1.8590208435e+02    9.3756502867e-01
    1.8600199890e+02    9.3360197544e-01
    1.8610209656e+02    9.2962801456e-01
    1.8620207214e+02    9.2565602064e-01
    1.8630210876e+02    9.2167699337e-01
    1.8640211487e+02    9.1769599915e-01
    1.8650210571e+02    9.1371297836e-01
    1.8660209656e+02    9.0972501040e-01
    1.8670213318e+02    9.0573197603e-01
    1.8680215454e+02    9.0173500776e-01
    1.8690219116e+02    8.9773601294e-01
    1.8700202942e+02    8.9374101162e-01
    1.8710206604e+02    8.8973402977e-01
    1.8720211792e+02    8.8572400808e-01
    1.8730212402e+02    8.8171297312e-01
    1.8740216064e+02    8.7769800425e-01
    1.8750218201e+02    8.7367999554e-01
    1.8760212708e+02    8.6966300011e-01
    1.8770219421e+02    8.6563700438e-01
    1.8780209351e+02    8.6161601543e-01
    1.8790208435e+02    8.5758900642e-01
    1.8800213623e+02    8.5355699062e-01
    1.8810224915e+02    8.4951901436e-01
    1.8820228577e+02    8.4548300505e-01
    1.8830221558e+02    8.4144800901e-01
    1.8840223694e+02    8.3740699291e-01
    1.8850227356e+02    8.3336299658e-01
    1.8860227966e+02    8.2931900024e-01
    1.8870228577e+02    8.2527202368e-01
    1.8880215454e+02    8.2122898102e-01
    1.8890231323e+02    8.1717097759e-01
    1.8900230408e+02    8.1312000751e-01
    1.8910227966e+02    8.0906599760e-01
    1.8920216370e+02    8.0501502752e-01
    1.8930230713e+02    8.0095100403e-01
    1.8940220642e+02    7.9689502716e-01
    1.8950221252e+02    7.9283398390e-01
    1.8960235596e+02    7.8876602650e-01
    1.8970231628e+02    7.8470402956e-01
    1.8980236816e+02    7.8063601255e-01
    1.8990231323e+02    7.7657300234e-01
    1.9000227356e+02    7.7250599861e-01
    1.9010226440e+02    7.6843899488e-01
    1.9020236206e+02    7.6436597109e-01
    1.9030235291e+02    7.6029497385e-01
    1.9040237427e+02    7.5622302294e-01
    1.9050227356e+02    7.5215500593e-01
    1.9060237122e+02    7.4807900190e-01
    1.9070239258e+02    7.4400401115e-01
    1.9080239868e+02    7.3992997408e-01
    1.9090240479e+02    7.3585498333e-01
    1.9100238037e+02    7.3178100586e-01
    1.9110240173e+02    7.2770500183e-01
    1.9120245361e+02    7.2362697124e-01
    1.9130244446e+02    7.1955198050e-01
    1.9140242004e+02    7.1547698975e-01
    1.9150239563e+02    7.1140199900e-01
    1.9160232544e+02    7.0732897520e-01
    1.9170237732e+02    7.0325100422e-01
    1.9180235291e+02    6.9917702675e-01
    1.9190240479e+02    6.9510000944e-01
    1.9200236511e+02    6.9102698565e-01
    1.9210232544e+02    6.8695402145e-01
    1.9220237732e+02    6.8287897110e-01
    1.9230252075e+02    6.7879998684e-01
    1.9240248108e+02    6.7472898960e-01
    1.9250244141e+02    6.7065900564e-01
    1.9260252380e+02    6.6658502817e-01
    1.9270239258e+02    6.6251999140e-01
    1.9280249023e+02    6.5844702721e-01
    1.9290255737e+02    6.5437597036e-01
    1.9300250244e+02    6.5031099319e-01
    1.9310238647e+02    6.4625000954e-01
    1.9320249939e+02    6.4218002558e-01
    1.9330249023e+02    6.3811701536e-01
    1.9340240479e+02    6.3405901194e-01
    1.9350247192e+02    6.2999498844e-01
    1.9360243225e+02    6.2593799829e-01
    1.9370251465e+02    6.2187600136e-01
    1.9380259705e+02    6.1781698465e-01
    1.9390249634e+02    6.1376702785e-01
    1.9400244141e+02    6.0971599817e-01
    1.9410253906e+02    6.0566097498e-01
    1.9420262146e+02    6.0160899162e-01
    1.9430261230e+02    5.9756201506e-01
    1.9440263367e+02    5.9351497889e-01
    1.9450263977e+02    5.8947098255e-01
    1.9460249329e+02    5.8543497324e-01
    1.9470254517e+02    5.8139300346e-01
    1.9480255127e+02    5.7735401392e-01
    1.9490258789e+02    5.7331597805e-01
    1.9500265503e+02    5.6927901506e-01
    1.9510261536e+02    5.6524699926e-01
    1.9520260620e+02    5.6121701002e-01
    1.9530267334e+02    5.5718398094e-01
    1.9540255737e+02    5.5316102505e-01
    1.9550271606e+02    5.4912900925e-01
    1.9560270691e+02    5.4510402679e-01
    1.9570262146e+02    5.4108399153e-01
    1.9580271912e+02    5.3705900908e-01
    1.9590260315e+02    5.3304302692e-01
    1.9600259399e+02    5.2902501822e-01
    1.9610258484e+02    5.2500802279e-01
    1.9620271301e+02    5.2098697424e-01
    1.9630276489e+02    5.1697099209e-01
    1.9640269470e+02    5.1296001673e-01
    1.9650262451e+02    5.0895100832e-01
    1.9660264587e+02    5.0493997335e-01
    1.9670278931e+02    5.0092601776e-01
    1.9680261230e+02    4.9692499638e-01
    1.9690280151e+02    4.9291101098e-01
    1.9700273132e+02    4.8890900612e-01
    1.9710267639e+02    4.8490700126e-01
    1.9720281982e+02    4.8089900613e-01
    1.9730278015e+02    4.7689899802e-01
    1.9740272522e+02    4.7290098667e-01
    1.9750271606e+02    4.6890300512e-01
    1.9760278320e+02    4.6490201354e-01
    1.9770268250e+02    4.6091100574e-01
    1.9780270386e+02    4.5691499114e-01
    1.9790281677e+02    4.5291700959e-01
    1.9800274658e+02    4.4892698526e-01
    1.9810284424e+02    4.4493201375e-01
    1.9820283508e+02    4.4094300270e-01
    1.9830270386e+02    4.3696001172e-01
    1.9840272522e+02    4.3297201395e-01
    1.9850277710e+02    4.2898398638e-01
    1.9860281372e+02    4.2499798536e-01
    1.9870275879e+02    4.2101699114e-01
    1.9880281067e+02    4.1703298688e-01
    1.9890281677e+02    4.1305199265e-01
    1.9900288391e+02    4.0906998515e-01
    1.9910276794e+02    4.0509700775e-01
    1.9920286560e+02    4.0111601353e-01
    1.9930287170e+02    3.9714100957e-01
    1.9940295410e+02    3.9316400886e-01
    1.9950289917e+02    3.8919401169e-01
    1.9960296631e+02    3.8521999121e-01
    1.9970283508e+02    3.8125699759e-01
    1.9980290222e+02    3.7728598714e-01
    1.9990296936e+02    3.7331598997e-01
endcurve
