Curveplot
LS-DYNA keyword deck by LS-PrePost
Abscissa
Ordinate
XY data
NBDLOCDispX.-1 #pts=2000
* Minval=     0.0000000000e+00 at time=         0.0000000000
* Maxval=     8.5082000732e+01 at time=       148.4997253418
    0.0000000000e+00    0.0000000000e+00
    9.9978484213e-02    4.9686001091e-08
    1.9995696843e-01    3.9748800873e-07
    2.9993546009e-01    1.3415200328e-06
    3.9991393685e-01    3.1798999771e-06
    4.9989241362e-01    6.2107501435e-06
    5.9987092018e-01    1.0732200280e-05
    6.9989228249e-01    1.7045400455e-05
    7.9987078905e-01    2.5443299819e-05
    8.9984923601e-01    3.6226301745e-05
    9.9982774258e-01    4.9692400353e-05
    1.0999879837e+00    6.6125103331e-05
    1.1999665499e+00    8.5525796749e-05
    1.2999449968e+00    1.0793499678e-04
    1.3999276161e+00    1.3336600387e-04
    1.4998989105e+00    1.6182899708e-04
    1.5999723673e+00    1.9337399863e-04
    1.6999509335e+00    2.2795099358e-04
    1.7999293804e+00    2.6560301194e-04
    1.8999079466e+00    3.0634200084e-04
    1.9998862743e+00    3.5018299241e-04
    2.0998647213e+00    3.9713800652e-04
    2.1998434067e+00    4.4722302118e-04
    2.2998218536e+00    5.0045404350e-04
    2.3999822140e+00    5.5695109768e-04
    2.4999604225e+00    6.1652716249e-04
    2.5999391079e+00    6.7929533543e-04
    2.6999175549e+00    7.4527261313e-04
    2.7999644279e+00    8.1452424638e-04
    2.8999450207e+00    8.8697113097e-04
    2.9999256134e+00    9.6267485060e-04
    3.0999062061e+00    1.0416567093e-03
    3.1998867989e+00    1.1239211308e-03
    3.2998673916e+00    1.2094868580e-03
    3.3998479843e+00    1.2983829947e-03
    3.4999725819e+00    1.3907495886e-03
    3.5999510288e+00    1.4863283141e-03
    3.6999294758e+00    1.5852812212e-03
    3.7999079227e+00    1.6876189038e-03
    3.8998863697e+00    1.7933717463e-03
    3.9998648167e+00    1.9025304355e-03
    4.0998435020e+00    2.0151354838e-03
    4.1999077797e+00    2.1312877070e-03
    4.2999424934e+00    2.2508772090e-03
    4.3999209404e+00    2.3738949094e-03
    4.4998140335e+00    2.5002909824e-03
    4.5999875069e+00    2.6305757929e-03
    4.6999678612e+00    2.7641498018e-03
    4.7999486923e+00    2.9012733139e-03
    4.8999295235e+00    3.0419575050e-03
    4.9999098778e+00    3.1862228643e-03
    5.0998907089e+00    3.3340987284e-03
    5.1998715401e+00    3.4855753183e-03
    5.2998518944e+00    3.6406917498e-03
    5.3998327255e+00    3.7994484883e-03
    5.4998135567e+00    3.9618643932e-03
    5.5999875069e+00    4.1282796301e-03
    5.6999678612e+00    4.2980629951e-03
    5.7999486923e+00    4.4715632685e-03
    5.8999295235e+00    4.6487795189e-03
    5.9999098778e+00    4.8297196627e-03
    6.0998907089e+00    5.0144242123e-03
    6.1998720169e+00    5.2028810605e-03
    6.2998533249e+00    5.3951302543e-03
    6.3998341560e+00    5.5911610834e-03
    6.4998154640e+00    5.7910121977e-03
    6.5999894142e+00    5.9950747527e-03
    6.6999702454e+00    6.2025869265e-03
    6.7999505997e+00    6.4139589667e-03
    6.8999319077e+00    6.6292099655e-03
    6.9999132156e+00    6.8483399227e-03
    7.0998940468e+00    7.0713688619e-03
    7.1998748779e+00    7.2983172722e-03
    7.2998557091e+00    7.5292037800e-03
    7.3998365402e+00    7.7640395612e-03
    7.4998173714e+00    8.0028334633e-03
    7.5999917984e+00    8.2460865378e-03
    7.6999726295e+00    8.4928665310e-03
    7.7999534607e+00    8.7436549366e-03
    7.8999342918e+00    8.9984815568e-03
    7.9999155998e+00    9.2573454604e-03
    8.0998964310e+00    9.5202689990e-03
    8.1998767853e+00    9.7872586921e-03
    8.2998580933e+00    1.0058315471e-02
    8.3998880386e+00    1.0333701037e-02
    8.4998693466e+00    1.0612984188e-02
    8.5998497009e+00    1.0896463878e-02
    8.6998310089e+00    1.1184040457e-02
    8.7998123169e+00    1.1475813575e-02
    8.8999862671e+00    1.1772384867e-02
    8.9999666214e+00    1.2072553858e-02
    9.0999479294e+00    1.2376918457e-02
    9.1999282837e+00    1.2685480528e-02
    9.2999095917e+00    1.2998338789e-02
    9.3999519348e+00    1.3315694407e-02
    9.4999074936e+00    1.3637047261e-02
    9.5998830795e+00    1.3962696306e-02
    9.6999139786e+00    1.4292841777e-02
    9.7998952866e+00    1.4627183788e-02
    9.8999872208e+00    1.4966323040e-02
    9.9999685287e+00    1.5309358947e-02
    1.0099983215e+01    1.5656890348e-02
    1.0199975014e+01    1.6008719802e-02
    1.0299956322e+01    1.6364945099e-02
    1.0399936676e+01    1.6725568101e-02
    1.0499917984e+01    1.7090586945e-02
    1.0599899292e+01    1.7460102215e-02
    1.0699864388e+01    1.7834015191e-02
    1.0799910545e+01    1.8212722614e-02
    1.0899917603e+01    1.8595825881e-02
    1.0999970436e+01    1.8983624876e-02
    1.1099864006e+01    1.9375322387e-02
    1.1199980736e+01    1.9772414118e-02
    1.1299835205e+01    2.0173000172e-02
    1.1399992943e+01    2.0579380915e-02
    1.1499871254e+01    2.0989257842e-02
    1.1599942207e+01    2.1404629573e-02
    1.1699864388e+01    2.1823896095e-02
    1.1799834251e+01    2.2247957066e-02
    1.1899873734e+01    2.2677011788e-02
    1.1999855042e+01    2.3110559210e-02
    1.2099854469e+01    2.3548802361e-02
    1.2199934959e+01    2.3992039263e-02
    1.2299835205e+01    2.4439269677e-02
    1.2400009155e+01    2.4892494082e-02
    1.2499894142e+01    2.5349110365e-02
    1.2599875450e+01    2.5810921565e-02
    1.2699855804e+01    2.6277625933e-02
    1.2799965858e+01    2.6749622077e-02
    1.2899947166e+01    2.7225809172e-02
    1.2999929428e+01    2.7706889436e-02
    1.3099960327e+01    2.8193062171e-02
    1.3199871063e+01    2.8683425859e-02
    1.3299901962e+01    2.9179284349e-02
    1.3399874687e+01    2.9679730535e-02
    1.3500013351e+01    3.0185967684e-02
    1.3599948883e+01    3.0696095899e-02
    1.3699834824e+01    3.1210916117e-02
    1.3799953461e+01    3.1731821597e-02
    1.3899933815e+01    3.2257020473e-02
    1.3999915123e+01    3.2787211239e-02
    1.4099896431e+01    3.3322382718e-02
    1.4199888229e+01    3.3862650394e-02
    1.4299868584e+01    3.4407801926e-02
    1.4399849892e+01    3.4958038479e-02
    1.4500000000e+01    3.5514369607e-02
    1.4599981308e+01    3.6074683070e-02
    1.4699961662e+01    3.6640182137e-02
    1.4799942970e+01    3.7210766226e-02
    1.4899949074e+01    3.7786632776e-02
    1.4999968529e+01    3.8367688656e-02
    1.5099892616e+01    3.8953326643e-02
    1.5199966431e+01    3.9545048028e-02
    1.5299855232e+01    4.0140852332e-02
    1.5399835587e+01    4.0742438287e-02
    1.5499872208e+01    4.1349504143e-02
    1.5599851608e+01    4.1961453855e-02
    1.5699954987e+01    4.2579382658e-02
    1.5799936295e+01    4.3201893568e-02
    1.5899939537e+01    4.3829679489e-02
    1.5999930382e+01    4.4462841004e-02
    1.6099920273e+01    4.5101188123e-02
    1.6199848175e+01    4.5744508505e-02
    1.6299987793e+01    4.6394504607e-02
    1.6400001526e+01    4.7049075365e-02
    1.6499929428e+01    4.7708325088e-02
    1.6599838257e+01    4.8372950405e-02
    1.6700016022e+01    4.9044743180e-02
    1.6799911499e+01    4.9720019102e-02
    1.6899932861e+01    5.0401557237e-02
    1.6999912262e+01    5.1088277251e-02
    1.7100021362e+01    5.1781360060e-02
    1.7199914932e+01    5.2478320897e-02
    1.7299938202e+01    5.3181748837e-02
    1.7399885178e+01    5.3890146315e-02
    1.7499942780e+01    5.4604917765e-02
    1.7599973679e+01    5.5324852467e-02
    1.7699937820e+01    5.6049957871e-02
    1.7799867630e+01    5.6780431420e-02
    1.7899997711e+01    5.7517871261e-02
    1.7999948502e+01    5.8259576559e-02
    1.8099880219e+01    5.9006746858e-02
    1.8200000763e+01    5.9760980308e-02
    1.8299980164e+01    6.0519780964e-02
    1.8399932861e+01    6.1284050345e-02
    1.8499965668e+01    6.2054578215e-02
    1.8599903107e+01    6.2829971313e-02
    1.8699882507e+01    6.3611529768e-02
    1.8799877167e+01    6.4398847520e-02
    1.8899856567e+01    6.5191723406e-02
    1.9000017166e+01    6.5991863608e-02
    1.9099855423e+01    6.6795162857e-02
    1.9199947357e+01    6.7606225610e-02
    1.9299928665e+01    6.8422242999e-02
    1.9399908066e+01    6.9244027138e-02
    1.9500028610e+01    7.0072852075e-02
    1.9599920273e+01    7.0905551314e-02
    1.9700027466e+01    7.1745894849e-02
    1.9800006866e+01    7.2591096163e-02
    1.9899984360e+01    7.3442153633e-02
    1.9999956131e+01    7.4298962951e-02
    2.0100036621e+01    7.5162731111e-02
    2.0199945450e+01    7.6030857861e-02
    2.0299924850e+01    7.6905623078e-02
    2.0399900436e+01    7.7786244452e-02
    2.0499975204e+01    7.8673720360e-02
    2.0600008011e+01    7.9566739500e-02
    2.0699981689e+01    8.0465309322e-02
    2.0799993515e+01    8.1370227039e-02
    2.0899972916e+01    8.2280889153e-02
    2.0999952316e+01    8.3197601140e-02
    2.1099929810e+01    8.4120258689e-02
    2.1199909210e+01    8.5049062967e-02
    2.1299888611e+01    8.5984006524e-02
    2.1399866104e+01    8.6924992502e-02
    2.1500028610e+01    8.7873823941e-02
    2.1600006104e+01    8.8827095926e-02
    2.1699985504e+01    8.9786507189e-02
    2.1799964905e+01    9.0752065182e-02
    2.1899942398e+01    9.1723844409e-02
    2.1999921799e+01    9.2701777816e-02
    2.2099901199e+01    9.3685939908e-02
    2.2199878693e+01    9.4676241279e-02
    2.2300039291e+01    9.5674671233e-02
    2.2400018692e+01    9.6677541733e-02
    2.2499998093e+01    9.7686640918e-02
    2.2599977493e+01    9.8702073097e-02
    2.2699956894e+01    9.9723845720e-02
    2.2799934387e+01    1.0075213760e-01
    2.2899913788e+01    1.0178565979e-01
    2.2999891281e+01    1.0282710940e-01
    2.3099870682e+01    1.0387349129e-01
    2.3200031281e+01    1.0492879152e-01
    2.3300033569e+01    1.0598901659e-01
    2.3399997711e+01    1.0705517232e-01
    2.3499977112e+01    1.0812825710e-01
    2.3599956512e+01    1.0920725018e-01
    2.3699935913e+01    1.1029218137e-01
    2.3799913406e+01    1.1138401926e-01
    2.3899892807e+01    1.1248277873e-01
    2.4000053406e+01    1.1358945072e-01
    2.4100032806e+01    1.1470104754e-01
    2.4200010300e+01    1.1581856757e-01
    2.4299989700e+01    1.1694298685e-01
    2.4399969101e+01    1.1807433516e-01
    2.4499948502e+01    1.1921158433e-01
    2.4599925995e+01    1.2035574764e-01
    2.4699905396e+01    1.2150683254e-01
    2.4799894333e+01    1.2266481668e-01
    2.4900014877e+01    1.2382970750e-01
    2.4999992371e+01    1.2500050664e-01
    2.5099971771e+01    1.2617821991e-01
    2.5199951172e+01    1.2736183405e-01
    2.5300046921e+01    1.2855336070e-01
    2.5400009155e+01    1.2975078821e-01
    2.5499988556e+01    1.3095510006e-01
    2.5599939346e+01    1.3216534257e-01
    2.5699916840e+01    1.3338246942e-01
    2.5799896240e+01    1.3460649550e-01
    2.5900056839e+01    1.3584041595e-01
    2.5999889374e+01    1.3707624376e-01
    2.6100048065e+01    1.3832294941e-01
    2.6200027466e+01    1.3957455754e-01
    2.6299972534e+01    1.4083208144e-01
    2.6399951935e+01    1.4209747314e-01
    2.6499929428e+01    1.4336878061e-01
    2.6599908829e+01    1.4464797080e-01
    2.6700002670e+01    1.4593502879e-01
    2.6799957275e+01    1.4722700417e-01
    2.6899894714e+01    1.4852584898e-01
    2.7000055313e+01    1.4983457327e-01
    2.7100034714e+01    1.5114820004e-01
    2.7200012207e+01    1.5246871114e-01
    2.7299900055e+01    1.5379510820e-01
    2.7400028229e+01    1.5513136983e-01
    2.7500005722e+01    1.5647251904e-01
    2.7599899292e+01    1.5781956911e-01
    2.7700059891e+01    1.5917746723e-01
    2.7799909592e+01    1.6053827107e-01
    2.7899888992e+01    1.6190794110e-01
    2.7999937057e+01    1.6328547895e-01
    2.8099987030e+01    1.6466990113e-01
    2.8200065613e+01    1.6606217623e-01
    2.8300045013e+01    1.6745933890e-01
    2.8400022507e+01    1.6886438429e-01
    2.8499893188e+01    1.7027531564e-01
    2.8600055695e+01    1.7169708014e-01
    2.8700033188e+01    1.7312371731e-01
    2.8799894333e+01    1.7455524206e-01
    2.8900005341e+01    1.7599861324e-01
    2.8999940872e+01    1.7744587362e-01
    2.9099918365e+01    1.7890097201e-01
    2.9199945450e+01    1.8036495149e-01
    2.9300001144e+01    1.8183577061e-01
    2.9399980545e+01    1.8331345916e-01
    2.9499975204e+01    1.8479901552e-01
    2.9600055695e+01    1.8629342318e-01
    2.9699905396e+01    1.8779169023e-01
    2.9800067902e+01    1.8930280209e-01
    2.9899921417e+01    1.9081678987e-01
    2.9999914169e+01    1.9234162569e-01
    3.0100076675e+01    1.9387628138e-01
    3.0199974060e+01    1.9541582465e-01
    3.0299974442e+01    1.9696520269e-01
    3.0399929047e+01    1.9852243364e-01
    3.0499931335e+01    2.0008951426e-01
    3.0600036621e+01    2.0166642964e-01
    3.0699972153e+01    2.0325019956e-01
    3.0800075531e+01    2.0484578609e-01
    3.0900054932e+01    2.0644824207e-01
    3.0999954224e+01    2.0806056261e-01
    3.1100013733e+01    2.0968368649e-01
    3.1200025558e+01    2.1131764352e-01
    3.1299922943e+01    2.1295848489e-01
    3.1400070190e+01    2.1461410820e-01
    3.1500078201e+01    2.1627859771e-01
    3.1600004196e+01    2.1795192361e-01
    3.1699998856e+01    2.1963807940e-01
    3.1800037384e+01    2.2133505344e-01
    3.1899921417e+01    2.2304087877e-01
    3.1999902725e+01    2.2475951910e-01
    3.2099964142e+01    2.2649198771e-01
    3.2200077057e+01    2.2823625803e-01
    3.2299949646e+01    2.2998841107e-01
    3.2399917603e+01    2.3175536096e-01
    3.2500072479e+01    2.3353710771e-01
    3.2599998474e+01    2.3532672226e-01
    3.2699977875e+01    2.3713013530e-01
    3.2799968719e+01    2.3894739151e-01
    3.2900005341e+01    2.4077843130e-01
    3.2999874115e+01    2.4261833727e-01
    3.3100028992e+01    2.4447798729e-01
    3.3200046539e+01    2.4634850025e-01
    3.3300052643e+01    2.4823181331e-01
    3.3399971008e+01    2.5012797117e-01
    3.3499958038e+01    2.5203993917e-01
    3.3599884033e+01    2.5396469235e-01
    3.3700042725e+01    2.5590828061e-01
    3.3800022125e+01    2.5786265731e-01
    3.3899982452e+01    2.5983083248e-01
    3.3999961853e+01    2.6181587577e-01
    3.4099906921e+01    2.6381367445e-01
    3.4199863434e+01    2.6582831144e-01
    3.4299995422e+01    2.6786169410e-01
    3.4399978638e+01    2.6990696788e-01
    3.4499958038e+01    2.7196896076e-01
    3.4599891663e+01    2.7404579520e-01
    3.4699867249e+01    2.7613946795e-01
    3.4799888611e+01    2.7824988961e-01
    3.4899871826e+01    2.8037714958e-01
    3.5000011444e+01    2.8252416849e-01
    3.5100013733e+01    2.8468501568e-01
    3.5199993134e+01    2.8686162829e-01
    3.5299972534e+01    2.8905707598e-01
    3.5399955750e+01    2.9126930237e-01
    3.5499889374e+01    2.9349735379e-01
    3.5599948883e+01    2.9574716091e-01
    3.5699882507e+01    2.9801177979e-01
    3.5799861908e+01    3.0029618740e-01
    3.5900005341e+01    3.0260232091e-01
    3.5999912262e+01    3.0492237210e-01
    3.6099929810e+01    3.0726304650e-01
    3.6199874878e+01    3.0962178111e-01
    3.6299968719e+01    3.1200295687e-01
    3.6399852753e+01    3.1439879537e-01
    3.6499935150e+01    3.1681913137e-01
    3.6599956512e+01    3.1925773621e-01
    3.6699970245e+01    3.2171559334e-01
    3.6799850464e+01    3.2419055700e-01
    3.6899940491e+01    3.2669040561e-01
    3.6999992371e+01    3.2921010256e-01
    3.7100002289e+01    3.3174869418e-01
    3.7199901581e+01    3.3430472016e-01
    3.7299877167e+01    3.3688405156e-01
    3.7399986267e+01    3.3948644996e-01
    3.7499965668e+01    3.4210622311e-01
    3.7599887848e+01    3.4474581480e-01
    3.7699951172e+01    3.4741044044e-01
    3.7799861908e+01    3.5009190440e-01
    3.7899845123e+01    3.5279741883e-01
    3.7999931335e+01    3.5552677512e-01
    3.8099819183e+01    3.5827320814e-01
    3.8199821472e+01    3.6104571819e-01
    3.8299938202e+01    3.6384421587e-01
    3.8399887085e+01    3.6665967107e-01
    3.8499931335e+01    3.6950153112e-01
    3.8599960327e+01    3.7236592174e-01
    3.8699878693e+01    3.7524932623e-01
    3.8799839020e+01    3.7815716863e-01
    3.8899787903e+01    3.8108772039e-01
    3.8999862671e+01    3.8404658437e-01
    3.9099895477e+01    3.8702610135e-01
    3.9199871063e+01    3.9002963901e-01
    3.9299812317e+01    3.9305463433e-01
    3.9399883270e+01    3.9610692859e-01
    3.9499889374e+01    3.9918184280e-01
    3.9599948883e+01    4.0228289366e-01
    3.9699947357e+01    4.0540653467e-01
    3.9799804688e+01    4.0855020285e-01
    3.9899841309e+01    4.1172504425e-01
    3.9999847412e+01    4.1492274404e-01
    4.0099864960e+01    4.1814726591e-01
    4.0199844360e+01    4.2139539123e-01
    4.0299919128e+01    4.2467179894e-01
    4.0399860382e+01    4.2797029018e-01
    4.0499847412e+01    4.3129673600e-01
    4.0599826813e+01    4.3464893103e-01
    4.0699848175e+01    4.3802720308e-01
    4.0799789429e+01    4.4143038988e-01
    4.0899753571e+01    4.4486033916e-01
    4.0999816895e+01    4.4831925631e-01
    4.1099906921e+01    4.5180562139e-01
    4.1199794769e+01    4.5531165600e-01
    4.1299789429e+01    4.5884761214e-01
    4.1399856567e+01    4.6241372824e-01
    4.1499874115e+01    4.6600356698e-01
    4.1599918365e+01    4.6962207556e-01
    4.1699871063e+01    4.7326490283e-01
    4.1799789429e+01    4.7693303227e-01
    4.1899768829e+01    4.8063218594e-01
    4.1999748230e+01    4.8435679078e-01
    4.2099876404e+01    4.8811629415e-01
    4.2199825287e+01    4.9189540744e-01
    4.2299831390e+01    4.9570617080e-01
    4.2399902344e+01    4.9954625964e-01
    4.2499835968e+01    5.0341117382e-01
    4.2599895477e+01    5.0730836391e-01
    4.2699897766e+01    5.1123112440e-01
    4.2799755096e+01    5.1517707109e-01
    4.2899871826e+01    5.1916223764e-01
    4.2999797821e+01    5.2316707373e-01
    4.3099773407e+01    5.2720308304e-01
    4.3199787140e+01    5.3126996756e-01
    4.3299762726e+01    5.3536349535e-01
    4.3399868011e+01    5.3949111700e-01
    4.3499851227e+01    5.4364198446e-01
    4.3599819183e+01    5.4782199860e-01
    4.3699810028e+01    5.5203229189e-01
    4.3799842834e+01    5.5627357960e-01
    4.3899837494e+01    5.6054294109e-01
    4.3999881744e+01    5.6484329700e-01
    4.4099723816e+01    5.6916505098e-01
    4.4199779510e+01    5.7352501154e-01
    4.4299884796e+01    5.7791882753e-01
    4.4399761200e+01    5.8233207464e-01
    4.4499713898e+01    5.8678102493e-01
    4.4599727631e+01    5.9126240015e-01
    4.4699817657e+01    5.9578019381e-01
    4.4799774170e+01    6.0032248497e-01
    4.4899879456e+01    6.0490471125e-01
    4.4999774933e+01    6.0950869322e-01
    4.5099830627e+01    6.1415410042e-01
    4.5199764252e+01    6.1882627010e-01
    4.5299785614e+01    6.2353700399e-01
    4.5399765015e+01    6.2827968597e-01
    4.5499809265e+01    6.3306063414e-01
    4.5599861145e+01    6.3787871599e-01
    4.5699783325e+01    6.4272558689e-01
    4.5799854279e+01    6.4761668444e-01
    4.5899833679e+01    6.5254110098e-01
    4.5999687195e+01    6.5749686956e-01
    4.6099723816e+01    6.6250008345e-01
    4.6199859619e+01    6.6754806042e-01
    4.6299827576e+01    6.7262732983e-01
    4.6399806976e+01    6.7774730921e-01
    4.6499839783e+01    6.8291032314e-01
    4.6599693298e+01    6.8810594082e-01
    4.6699810028e+01    6.9335770607e-01
    4.6799777985e+01    6.9864308834e-01
    4.6899837494e+01    7.0397710800e-01
    4.6999725342e+01    7.0934420824e-01
    4.7099784851e+01    7.1476572752e-01
    4.7199775696e+01    7.2022753954e-01
    4.7299766541e+01    7.2573596239e-01
    4.7399726868e+01    7.3128706217e-01
    4.7499774933e+01    7.3688966036e-01
    4.7599731445e+01    7.4253427982e-01
    4.7699722290e+01    7.4822813272e-01
    4.7799648285e+01    7.5396633148e-01
    4.7899707794e+01    7.5976061821e-01
    4.7999797821e+01    7.6560598612e-01
    4.8099727631e+01    7.7149176598e-01
    4.8199733734e+01    7.7743202448e-01
    4.8299663544e+01    7.8341990709e-01
    4.8399677277e+01    7.8946691751e-01
    4.8499725342e+01    7.9556918144e-01
    4.8599727631e+01    8.0172431469e-01
    4.8699775696e+01    8.0793857574e-01
    4.8799686432e+01    8.1420052052e-01
    4.8899677277e+01    8.2052701712e-01
    4.8999771118e+01    8.2691800594e-01
    4.9099792480e+01    8.3336538076e-01
    4.9199817657e+01    8.3987373114e-01
    4.9299808502e+01    8.4644365311e-01
    4.9399662018e+01    8.5306805372e-01
    4.9499790192e+01    8.5977709293e-01
    4.9599681854e+01    8.6653608084e-01
    4.9699657440e+01    8.7336897850e-01
    4.9799659729e+01    8.8027161360e-01
    4.9899795532e+01    8.8725340366e-01
    4.9999782562e+01    8.9429676533e-01
    5.0099796295e+01    9.0141528845e-01
    5.0199726105e+01    9.0860128403e-01
    5.0299797058e+01    9.1587209702e-01
    5.0399623871e+01    9.2320293188e-01
    5.0499649048e+01    9.3062651157e-01
    5.0599761963e+01    9.3813896179e-01
    5.0699638367e+01    9.4571417570e-01
    5.0799739838e+01    9.5338523388e-01
    5.0899772644e+01    9.6113663912e-01
    5.0999698639e+01    9.6896725893e-01
    5.1099632263e+01    9.7688686848e-01
    5.1199668884e+01    9.8490202427e-01
    5.1299633026e+01    9.9299633503e-01
    5.1399646759e+01    1.0011973381e+00
    5.1499671936e+01    1.0094866753e+00
    5.1599651337e+01    1.0178725719e+00
    5.1699649811e+01    1.0263552666e+00
    5.1799671173e+01    1.0349346399e+00
    5.1899639130e+01    1.0436110497e+00
    5.1999626160e+01    1.0523937941e+00
    5.2099639893e+01    1.0612918139e+00
    5.2199745178e+01    1.0702939034e+00
    5.2299678802e+01    1.0793926716e+00
    5.2399589539e+01    1.0885879993e+00
    5.2499759674e+01    1.0979329348e+00
    5.2599597931e+01    1.1073483229e+00
    5.2699668884e+01    1.1169034243e+00
    5.2799655914e+01    1.1265742779e+00
    5.2899662018e+01    1.1363477707e+00
    5.2999603271e+01    1.1462450027e+00
    5.3099624634e+01    1.1562639475e+00
    5.3199623108e+01    1.1664160490e+00
    5.3299636841e+01    1.1766800880e+00
    5.3399600983e+01    1.1870759726e+00
    5.3499710083e+01    1.1976109743e+00
    5.3599742889e+01    1.2082690001e+00
    5.3699676514e+01    1.2190589905e+00
    5.3799709320e+01    1.2299890518e+00
    5.3899555206e+01    1.2410420179e+00
    5.3999679565e+01    1.2522690296e+00
    5.4099689484e+01    1.2636289597e+00
    5.4199588776e+01    1.2751209736e+00
    5.4299640656e+01    1.2867770195e+00
    5.4399639130e+01    1.2985830307e+00
    5.4499584198e+01    1.3105390072e+00
    5.4599617004e+01    1.3226599693e+00
    5.4699565887e+01    1.3349299431e+00
    5.4799556732e+01    1.3473670483e+00
    5.4899669647e+01    1.3599870205e+00
    5.4999721527e+01    1.3727650642e+00
    5.5099643707e+01    1.3857020140e+00
    5.5199588776e+01    1.3988040686e+00
    5.5299591064e+01    1.4120990038e+00
    5.5399711609e+01    1.4255861044e+00
    5.5499553680e+01    1.4392039776e+00
    5.5599632263e+01    1.4530389309e+00
    5.5699630737e+01    1.4670500755e+00
    5.5799583435e+01    1.4812361002e+00
    5.5899547577e+01    1.4956140518e+00
    5.5999694824e+01    1.5101969242e+00
    5.6099651337e+01    1.5249590874e+00
    5.6199661255e+01    1.5399099588e+00
    5.6299644470e+01    1.5550529957e+00
    5.6399620056e+01    1.5703959465e+00
    5.6499561310e+01    1.5859299898e+00
    5.6599605560e+01    1.6016910076e+00
    5.6699676514e+01    1.6176480055e+00
    5.6799694061e+01    1.6338050365e+00
    5.6899581909e+01    1.6501441002e+00
    5.6999664307e+01    1.6667339802e+00
    5.7099521637e+01    1.6834880114e+00
    5.7199573517e+01    1.7004920244e+00
    5.7299652100e+01    1.7177200317e+00
    5.7399566650e+01    1.7351479530e+00
    5.7499534607e+01    1.7527989149e+00
    5.7599613190e+01    1.7706910372e+00
    5.7699516296e+01    1.7887920141e+00
    5.7799560547e+01    1.8071399927e+00
    5.7899559021e+01    1.8257119656e+00
    5.7999599457e+01    1.8445329666e+00
    5.8099552155e+01    1.8635789156e+00
    5.8199630737e+01    1.8828910589e+00
    5.8299621582e+01    1.9024258852e+00
    5.8399654388e+01    1.9222190380e+00
    5.8499538422e+01    1.9422149658e+00
    5.8599605560e+01    1.9625030756e+00
    5.8699657440e+01    1.9830380678e+00
    5.8799510956e+01    2.0037770271e+00
    5.8899635315e+01    2.0248210430e+00
    5.8999519348e+01    2.0460700989e+00
    5.9099487305e+01    2.0675799847e+00
    5.9199577332e+01    2.0893790722e+00
    5.9299533844e+01    2.1113960743e+00
    5.9399608612e+01    2.1336998940e+00
    5.9499652863e+01    2.1562469006e+00
    5.9599491119e+01    2.1790142059e+00
    5.9699481964e+01    2.2020649910e+00
    5.9799549103e+01    2.2253909111e+00
    5.9899513245e+01    2.2489490509e+00
    5.9999534607e+01    2.2727830410e+00
    6.0099594116e+01    2.2968919277e+00
    6.0199577332e+01    2.3212308884e+00
    6.0299568176e+01    2.3458452225e+00
    6.0399543762e+01    2.3707129955e+00
    6.0499511719e+01    2.3958361149e+00
    6.0599643707e+01    2.4212617874e+00
    6.0699474335e+01    2.4468760490e+00
    6.0799583435e+01    2.4728260040e+00
    6.0899547577e+01    2.4990038872e+00
    6.0999534607e+01    2.5254499912e+00
    6.1099555969e+01    2.5521619320e+00
    6.1199542999e+01    2.5791430473e+00
    6.1299617767e+01    2.6064059734e+00
    6.1399463654e+01    2.6338779926e+00
    6.1499565125e+01    2.6616778374e+00
    6.1599567413e+01    2.6897289753e+00
    6.1699474335e+01    2.7180171013e+00
    6.1799495697e+01    2.7466008663e+00
    6.1899528503e+01    2.7754640579e+00
    6.1999446869e+01    2.8045661449e+00
    6.2099456787e+01    2.8339600563e+00
    6.2199558258e+01    2.8636560440e+00
    6.2299568176e+01    2.8935940266e+00
    6.2399612427e+01    2.9238162041e+00
    6.2499542236e+01    2.9542820454e+00
    6.2599494934e+01    2.9850189686e+00
    6.2699443817e+01    3.0160398483e+00
    6.2799594879e+01    3.0473880768e+00
    6.2899475098e+01    3.0789251328e+00
    6.2999519348e+01    3.1107909679e+00
    6.3099605560e+01    3.1429519653e+00
    6.3199459076e+01    3.1753079891e+00
    6.3299411774e+01    3.2079730034e+00
    6.3399559021e+01    3.2409789562e+00
    6.3499523163e+01    3.2742109299e+00
    6.3599521637e+01    3.3077249527e+00
    6.3699451447e+01    3.3414959908e+00
    6.3799533844e+01    3.3756060600e+00
    6.3899539948e+01    3.4099609852e+00
    6.3999584198e+01    3.4446108341e+00
    6.4099525452e+01    3.4795160294e+00
    6.4199478149e+01    3.5146970749e+00
    6.4299552917e+01    3.5502219200e+00
    6.4399475098e+01    3.5859739780e+00
    6.4499519348e+01    3.6220591068e+00
    6.4599403381e+01    3.6583781242e+00
    6.4699531555e+01    3.6950860023e+00
    6.4799514771e+01    3.7320346832e+00
    6.4899421692e+01    3.7692580223e+00
    6.4999511719e+01    3.8068511486e+00
    6.5099388123e+01    3.8446702957e+00
    6.5199470520e+01    3.8828821182e+00
    6.5299415588e+01    3.9213392735e+00
    6.5399490356e+01    3.9601652622e+00
    6.5499557495e+01    3.9993119240e+00
    6.5599426270e+01    4.0386867523e+00
    6.5699501038e+01    4.0784687996e+00
    6.5799392700e+01    4.1185040474e+00
    6.5899444580e+01    4.1589293480e+00
    6.5999542236e+01    4.1997022629e+00
    6.6099433899e+01    4.2407159805e+00
    6.6199401855e+01    4.2821049690e+00
    6.6299415588e+01    4.3238482475e+00
    6.6399406433e+01    4.3659400940e+00
    6.6499473572e+01    4.4084000587e+00
    6.6599479675e+01    4.4511828423e+00
    6.6699409485e+01    4.4942970276e+00
    6.6799362183e+01    4.5377812386e+00
    6.6899520874e+01    4.5817122459e+00
    6.6999542236e+01    4.6259565353e+00
    6.7099487305e+01    4.6705398560e+00
    6.7199432373e+01    4.7154970169e+00
    6.7299407959e+01    4.7608561516e+00
    6.7399467468e+01    4.8066372871e+00
    6.7499427795e+01    4.8527622223e+00
    6.7599449158e+01    4.8993091583e+00
    6.7699348450e+01    4.9462108612e+00
    6.7799346924e+01    4.9935560226e+00
    6.7899383545e+01    5.0413317680e+00
    6.7999496460e+01    5.0895709991e+00
    6.8099494934e+01    5.1381702423e+00
    6.8199501038e+01    5.1871900558e+00
    6.8299461365e+01    5.2366299629e+00
    6.8399467468e+01    5.2865200043e+00
    6.8499366760e+01    5.3368101120e+00
    6.8599411011e+01    5.3876199722e+00
    6.8699485779e+01    5.4389095306e+00
    6.8799461365e+01    5.4905900955e+00
    6.8899467468e+01    5.5427703857e+00
    6.8999481201e+01    5.5954198837e+00
    6.9099441528e+01    5.6485199928e+00
    6.9199386597e+01    5.7021002769e+00
    6.9299339294e+01    5.7561802864e+00
    6.9399459839e+01    5.8108401299e+00
    6.9499504089e+01    5.8659801483e+00
    6.9599388123e+01    5.9215397835e+00
    6.9699447632e+01    5.9777097702e+00
    6.9799484253e+01    6.0343999863e+00
    6.9899360657e+01    6.0915398598e+00
    6.9999504089e+01    6.1493701935e+00
    7.0099334717e+01    6.2075600624e+00
    7.0199325562e+01    6.2664098740e+00
    7.0299339294e+01    6.3258399963e+00
    7.0399330139e+01    6.3858299255e+00
    7.0499435425e+01    6.4464602470e+00
    7.0599441528e+01    6.5076303482e+00
    7.0699386597e+01    6.5693497658e+00
    7.0799461365e+01    6.6317496300e+00
    7.0899307251e+01    6.6946401596e+00
    7.0999343872e+01    6.7582497597e+00
    7.1099433899e+01    6.8225297928e+00
    7.1199310303e+01    6.8873100281e+00
    7.1299446106e+01    6.9529099464e+00
    7.1399353027e+01    7.0190105438e+00
    7.1499382019e+01    7.0858798027e+00
    7.1599472046e+01    7.1534500122e+00
    7.1699440002e+01    7.2216200829e+00
    7.1799453735e+01    7.2905402184e+00
    7.1899391174e+01    7.3601102829e+00
    7.1999305725e+01    7.4303703308e+00
    7.2099365234e+01    7.5014801025e+00
    7.2199279785e+01    7.5732107162e+00
    7.2299362183e+01    7.6458301544e+00
    7.2399421692e+01    7.7191996574e+00
    7.2499343872e+01    7.7932496071e+00
    7.2599281311e+01    7.8680901527e+00
    7.2699371338e+01    7.9438600540e+00
    7.2799430847e+01    8.0204296112e+00
    7.2899330139e+01    8.0977096558e+00
    7.2999328613e+01    8.1759300232e+00
    7.3099281311e+01    8.2548904419e+00
    7.3199447632e+01    8.3349304199e+00
    7.3299385071e+01    8.4157600403e+00
    7.3399375916e+01    8.4974002838e+00
    7.3499298096e+01    8.5799808502e+00
    7.3599441528e+01    8.6635303497e+00
    7.3699272156e+01    8.7478704453e+00
    7.3799293518e+01    8.8331804276e+00
    7.3899391174e+01    8.9195709229e+00
    7.3999343872e+01    9.0068101883e+00
    7.4099380493e+01    9.0951395035e+00
    7.4199317932e+01    9.1841897964e+00
    7.4299346924e+01    9.2744102478e+00
    7.4399353027e+01    9.3656396866e+00
    7.4499252319e+01    9.4576902390e+00
    7.4599349976e+01    9.5510702133e+00
    7.4699424744e+01    9.6453399658e+00
    7.4799247742e+01    9.7403602600e+00
    7.4899391174e+01    9.8367700577e+00
    7.4999412537e+01    9.9341793060e+00
    7.5099334717e+01    1.0032500267e+01
    7.5199378967e+01    1.0132050514e+01
    7.5299324036e+01    1.0232489586e+01
    7.5399322510e+01    1.0334070206e+01
    7.5499290466e+01    1.0436819077e+01
    7.5599227905e+01    1.0540619850e+01
    7.5699249268e+01    1.0645549774e+01
    7.5799346924e+01    1.0751689911e+01
    7.5899307251e+01    1.0858919144e+01
    7.5999336243e+01    1.0967359543e+01
    7.6099281311e+01    1.1076860428e+01
    7.6199226379e+01    1.1187490463e+01
    7.6299293518e+01    1.1299390793e+01
    7.6399330139e+01    1.1412520409e+01
    7.6499252319e+01    1.1526710510e+01
    7.6599395752e+01    1.1642330170e+01
    7.6699302673e+01    1.1758930206e+01
    7.6799316406e+01    1.1876899719e+01
    7.6899299622e+01    1.1995969772e+01
    7.6999275208e+01    1.2116330147e+01
    7.7099327087e+01    1.2238050461e+01
    7.7199363708e+01    1.2360960007e+01
    7.7299240112e+01    1.2485000610e+01
    7.7399230957e+01    1.2610369682e+01
    7.7499382019e+01    1.2737340927e+01
    7.7599212646e+01    1.2865100861e+01
    7.7699317932e+01    1.2994499207e+01
    7.7799308777e+01    1.3125090599e+01
    7.7899299622e+01    1.3256929398e+01
    7.7999259949e+01    1.3390019417e+01
    7.8099372864e+01    1.3524780273e+01
    7.8199226379e+01    1.3660369873e+01
    7.8299278259e+01    1.3797700882e+01
    7.8399345398e+01    1.3936229706e+01
    7.8499374390e+01    1.4076189995e+01
    7.8599197388e+01    1.4217120171e+01
    7.8699287415e+01    1.4359690666e+01
    7.8799240112e+01    1.4503459930e+01
    7.8899223328e+01    1.4648500443e+01
    7.8999237061e+01    1.4794779778e+01
    7.9099281311e+01    1.4942359924e+01
    7.9199264526e+01    1.5091040611e+01
    7.9299247742e+01    1.5240859032e+01
    7.9399192810e+01    1.5391700745e+01
    7.9499221802e+01    1.5543900490e+01
    7.9599281311e+01    1.5697249413e+01
    7.9699272156e+01    1.5851609230e+01
    7.9799339294e+01    1.6007200241e+01
    7.9899269104e+01    1.6163841248e+01
    7.9999191284e+01    1.6321601868e+01
    8.0099250793e+01    1.6480798721e+01
    8.0199195862e+01    1.6641090393e+01
    8.0299194336e+01    1.6802789688e+01
    8.0399238586e+01    1.6965839386e+01
    8.0499176025e+01    1.7130128860e+01
    8.0599311829e+01    1.7295980453e+01
    8.0699165344e+01    1.7462879181e+01
    8.0799263000e+01    1.7631530762e+01
    8.0899192810e+01    1.7801269531e+01
    8.0999336243e+01    1.7972850800e+01
    8.1099151611e+01    1.8145278931e+01
    8.1199150085e+01    1.8319450378e+01
    8.1299186707e+01    1.8494989395e+01
    8.1399322510e+01    1.8672149658e+01
    8.1499267578e+01    1.8850370407e+01
    8.1599235535e+01    1.9029890060e+01
    8.1699295044e+01    1.9210920334e+01
    8.1799293518e+01    1.9393119812e+01
    8.1899299622e+01    1.9576631546e+01
    8.1999244690e+01    1.9761249542e+01
    8.2099273682e+01    1.9947391510e+01
    8.2199211121e+01    2.0134521484e+01
    8.2299263000e+01    2.0323101044e+01
    8.2399169922e+01    2.0512809753e+01
    8.2499214172e+01    2.0703950882e+01
    8.2599212646e+01    2.0896339417e+01
    8.2699279785e+01    2.1090099335e+01
    8.2799293518e+01    2.1285129547e+01
    8.2899238586e+01    2.1481328964e+01
    8.2999275208e+01    2.1679069519e+01
    8.3099128723e+01    2.1877758026e+01
    8.3199157715e+01    2.2078168869e+01
    8.3299125671e+01    2.2279779434e+01
    8.3399238586e+01    2.2482870102e+01
    8.3499153137e+01    2.2686809540e+01
    8.3599197388e+01    2.2892250061e+01
    8.3699272156e+01    2.3098939896e+01
    8.3799102783e+01    2.3306280136e+01
    8.3899124146e+01    2.3515130997e+01
    8.3999214172e+01    2.3725160599e+01
    8.4099159241e+01    2.3935930252e+01
    8.4199150085e+01    2.4147930145e+01
    8.4299255371e+01    2.4361059189e+01
    8.4399101257e+01    2.4574779510e+01
    8.4499107361e+01    2.4789770126e+01
    8.4599250793e+01    2.5006149292e+01
    8.4699256897e+01    2.5223388672e+01
    8.4799224854e+01    2.5441640854e+01
    8.4899223328e+01    2.5661029816e+01
    8.4999206543e+01    2.5881629944e+01
    8.5099128723e+01    2.6103302002e+01
    8.5199150085e+01    2.6326408386e+01
    8.5299095154e+01    2.6550739288e+01
    8.5399192810e+01    2.6776638031e+01
    8.5499191284e+01    2.7003582001e+01
    8.5599205017e+01    2.7231750488e+01
    8.5699157715e+01    2.7461179733e+01
    8.5799095154e+01    2.7691692352e+01
    8.5899246216e+01    2.7923969269e+01
    8.5999191284e+01    2.8156980515e+01
    8.6099220276e+01    2.8391220093e+01
    8.6199089050e+01    2.8626159668e+01
    8.6299217224e+01    2.8862888336e+01
    8.6399238586e+01    2.9100198746e+01
    8.6499160767e+01    2.9338298798e+01
    8.6599182129e+01    2.9577499390e+01
    8.6699188232e+01    2.9817701340e+01
    8.6799110413e+01    3.0058498383e+01
    8.6899101257e+01    3.0300298691e+01
    8.6999191284e+01    3.0543300629e+01
    8.7099159241e+01    3.0786701202e+01
    8.7199157715e+01    3.1031000137e+01
    8.7299110413e+01    3.1276100159e+01
    8.7399154663e+01    3.1522201538e+01
    8.7499229431e+01    3.1769199371e+01
    8.7599128723e+01    3.2016498566e+01
    8.7699188232e+01    3.2264999390e+01
    8.7799064636e+01    3.2513900757e+01
    8.7899070740e+01    3.2763801575e+01
    8.7999122620e+01    3.3014598846e+01
    8.8099159241e+01    3.3265998840e+01
    8.8199165344e+01    3.3517997742e+01
    8.8299118042e+01    3.3770500183e+01
    8.8399032593e+01    3.4023399353e+01
    8.8499122620e+01    3.4277297974e+01
    8.8599128723e+01    3.4531600952e+01
    8.8699188232e+01    3.4786499023e+01
    8.8799118042e+01    3.5041400909e+01
    8.8899032593e+01    3.5296901703e+01
    8.8999153137e+01    3.5553199768e+01
    8.9099052429e+01    3.5809398651e+01
    8.9199134827e+01    3.6066398621e+01
    8.9299079895e+01    3.6323600769e+01
    8.9399177551e+01    3.6581398010e+01
    8.9499145508e+01    3.6839302063e+01
    8.9599090576e+01    3.7097297668e+01
    8.9699157715e+01    3.7356098175e+01
    8.9799018860e+01    3.7614601135e+01
    8.9899078369e+01    3.7873901367e+01
    8.9999183655e+01    3.8133499146e+01
    9.0099098206e+01    3.8393001556e+01
    9.0199127197e+01    3.8652801514e+01
    9.0299102783e+01    3.8912700653e+01
    9.0399101257e+01    3.9172599792e+01
    9.0499069214e+01    3.9432498932e+01
    9.0599182129e+01    3.9692699432e+01
    9.0699073792e+01    3.9952301025e+01
    9.0799018860e+01    4.0211799622e+01
    9.0899108887e+01    4.0471397400e+01
    9.0999076843e+01    4.0730602264e+01
    9.1099143982e+01    4.0989601135e+01
    9.1199012756e+01    4.1247802734e+01
    9.1299118042e+01    4.1506099701e+01
    9.1399162292e+01    4.1763999939e+01
    9.1499046326e+01    4.2020698547e+01
    9.1599029541e+01    4.2277301788e+01
    9.1699043274e+01    4.2533302307e+01
    9.1799110413e+01    4.2788799286e+01
    9.1899040222e+01    4.3043300629e+01
    9.1998985291e+01    4.3297195435e+01
    9.2099159241e+01    4.3551002502e+01
    9.2199096680e+01    4.3803497314e+01
    9.2299087524e+01    4.4055301666e+01
    9.2399154663e+01    4.4306396484e+01
    9.2499130249e+01    4.4556495667e+01
    9.2599159241e+01    4.4805900574e+01
    9.2699089050e+01    4.5053897858e+01
    9.2799064636e+01    4.5301101685e+01
    9.2899101257e+01    4.5547393799e+01
    9.2999107361e+01    4.5792499542e+01
    9.3098968506e+01    4.6036102295e+01
    9.3199089050e+01    4.6279098511e+01
    9.3299011230e+01    4.6520202637e+01
    9.3399131775e+01    4.6760704041e+01
    9.3499130249e+01    4.6999504089e+01
    9.3599021912e+01    4.7236503601e+01
    9.3699073792e+01    4.7472496033e+01
    9.3799064636e+01    4.7707000732e+01
    9.3898979187e+01    4.7939701080e+01
    9.3999092102e+01    4.8171401978e+01
    9.4098960876e+01    4.8400897980e+01
    9.4199020386e+01    4.8629096985e+01
    9.4299057007e+01    4.8855796814e+01
    9.4399078369e+01    4.9080497742e+01
    9.4498985291e+01    4.9303298950e+01
    9.4598953247e+01    4.9524200439e+01
    9.4698951721e+01    4.9743400574e+01
    9.4799095154e+01    4.9960899353e+01
    9.4899047852e+01    5.0175800323e+01
    9.4999023438e+01    5.0388702393e+01
    9.5099113464e+01    5.0599494934e+01
    9.5198982239e+01    5.0807701111e+01
    9.5299026489e+01    5.1013999939e+01
    9.5398956299e+01    5.1217601776e+01
    9.5498924255e+01    5.1419002533e+01
    9.5599044800e+01    5.1618198395e+01
    9.5699043274e+01    5.1814697266e+01
    9.5799049377e+01    5.2008602142e+01
    9.5899040222e+01    5.2200096130e+01
    9.5999092102e+01    5.2389099121e+01
    9.6098960876e+01    5.2575298309e+01
    9.6198951721e+01    5.2759101868e+01
    9.6298980713e+01    5.2940402985e+01
    9.6398971558e+01    5.3119003296e+01
    9.6498916626e+01    5.3294898987e+01
    9.6599067688e+01    5.3468597412e+01
    9.6698989868e+01    5.3639198303e+01
    9.6798934937e+01    5.3807296753e+01
    9.6898979187e+01    5.3972801208e+01
    9.6999046326e+01    5.4135799408e+01
    9.7099044800e+01    5.4295902252e+01
    9.7199020386e+01    5.4453296661e+01
    9.7299049377e+01    5.4608100891e+01
    9.7398963928e+01    5.4759998322e+01
    9.7498992920e+01    5.4909301758e+01
    9.7598976135e+01    5.5055900574e+01
    9.7699035645e+01    5.5199695587e+01
    9.7799026489e+01    5.5340698242e+01
    9.7898933411e+01    5.5478996277e+01
    9.7998893738e+01    5.5614402771e+01
    9.8099014282e+01    5.5747299194e+01
    9.8198966980e+01    5.5877197266e+01
    9.8298995972e+01    5.6004501343e+01
    9.8399063110e+01    5.6129100800e+01
    9.8499008179e+01    5.6251296997e+01
    9.8598922729e+01    5.6369403839e+01
    9.8699012756e+01    5.6486598969e+01
    9.8798919678e+01    5.6599502563e+01
    9.8898887634e+01    5.6710998535e+01
    9.8998947144e+01    5.6818897247e+01
    9.9098922729e+01    5.6924201965e+01
    9.9198905945e+01    5.7027202606e+01
    9.9299026489e+01    5.7127498627e+01
    9.9398887634e+01    5.7225002289e+01
    9.9498886108e+01    5.7320697784e+01
    9.9598937988e+01    5.7413101196e+01
    9.9698875427e+01    5.7503002167e+01
    9.9799011230e+01    5.7589801788e+01
    9.9898880005e+01    5.7674896240e+01
    9.9998916626e+01    5.7756198883e+01
    1.0009898376e+02    5.7836200714e+01
    1.0019901276e+02    5.7913501740e+01
    1.0029888153e+02    5.7987602234e+01
    1.0039897156e+02    5.8060600281e+01
    1.0049886322e+02    5.8130702972e+01
    1.0059887695e+02    5.8198200226e+01
    1.0069898987e+02    5.8263301849e+01
    1.0079895020e+02    5.8326297760e+01
    1.0089888000e+02    5.8387699127e+01
    1.0099902344e+02    5.8446102142e+01
    1.0109890747e+02    5.8503002167e+01
    1.0119895935e+02    5.8557296753e+01
    1.0129898071e+02    5.8609901428e+01
    1.0139884186e+02    5.8660701752e+01
    1.0149897766e+02    5.8709201813e+01
    1.0159896088e+02    5.8755897522e+01
    1.0169901276e+02    5.8801502228e+01
    1.0179888916e+02    5.8844295502e+01
    1.0189885712e+02    5.8885997772e+01
    1.0199887085e+02    5.8925701141e+01
    1.0209892273e+02    5.8964599609e+01
    1.0219895172e+02    5.9000900269e+01
    1.0229886627e+02    5.9036300659e+01
    1.0239884949e+02    5.9069694519e+01
    1.0249887848e+02    5.9102104187e+01
    1.0259882355e+02    5.9132499695e+01
    1.0269882965e+02    5.9160995483e+01
    1.0279894257e+02    5.9189300537e+01
    1.0289895630e+02    5.9215499878e+01
    1.0299897003e+02    5.9241302490e+01
    1.0309899139e+02    5.9265502930e+01
    1.0319895935e+02    5.9288604736e+01
    1.0329891968e+02    5.9310195923e+01
    1.0339891052e+02    5.9330291748e+01
    1.0349896240e+02    5.9350502014e+01
    1.0359893036e+02    5.9368904114e+01
    1.0369883728e+02    5.9387199402e+01
    1.0379885864e+02    5.9403594971e+01
    1.0389882660e+02    5.9419906616e+01
    1.0399883270e+02    5.9434707642e+01
    1.0409889221e+02    5.9449897766e+01
    1.0419880676e+02    5.9463691711e+01
    1.0429889679e+02    5.9476104736e+01
    1.0439891052e+02    5.9488891602e+01
    1.0449891663e+02    5.9500404358e+01
    1.0459883881e+02    5.9511199951e+01
    1.0469879913e+02    5.9522590637e+01
    1.0479891205e+02    5.9531898499e+01
    1.0489888000e+02    5.9541801453e+01
    1.0499891663e+02    5.9550308228e+01
    1.0509883881e+02    5.9559303284e+01
    1.0519883728e+02    5.9567703247e+01
    1.0529891968e+02    5.9574401855e+01
    1.0539893341e+02    5.9581504822e+01
    1.0549877930e+02    5.9588493347e+01
    1.0559877777e+02    5.9595504761e+01
    1.0569882202e+02    5.9601104736e+01
    1.0579882050e+02    5.9607009888e+01
    1.0589894104e+02    5.9611991882e+01
    1.0599880981e+02    5.9616691589e+01
    1.0609880066e+02    5.9621597290e+01
    1.0619885254e+02    5.9626106262e+01
    1.0629882050e+02    5.9630104065e+01
    1.0639891052e+02    5.9634407043e+01
    1.0649893951e+02    5.9638298035e+01
    1.0659883881e+02    5.9641098022e+01
    1.0669889069e+02    5.9644905090e+01
    1.0679881287e+02    5.9647697449e+01
    1.0689884186e+02    5.9650993347e+01
    1.0699884033e+02    5.9653701782e+01
    1.0709880829e+02    5.9656806946e+01
    1.0719886780e+02    5.9659408569e+01
    1.0729879761e+02    5.9662300110e+01
    1.0739878845e+02    5.9664894104e+01
    1.0749883270e+02    5.9667602539e+01
    1.0759886169e+02    5.9669502258e+01
    1.0769876099e+02    5.9672805786e+01
    1.0779891968e+02    5.9674499512e+01
    1.0789875793e+02    5.9677993774e+01
    1.0799877167e+02    5.9680000305e+01
    1.0809886169e+02    5.9682998657e+01
    1.0819877625e+02    5.9685997009e+01
    1.0829888916e+02    5.9688995361e+01
    1.0839885712e+02    5.9691993713e+01
    1.0849880981e+02    5.9694992065e+01
    1.0859886169e+02    5.9699005127e+01
    1.0869876099e+02    5.9703010559e+01
    1.0879885864e+02    5.9705993652e+01
    1.0889885712e+02    5.9709999084e+01
    1.0899883270e+02    5.9713996887e+01
    1.0909889984e+02    5.9717994690e+01
    1.0919877625e+02    5.9722007751e+01
    1.0929888153e+02    5.9726997375e+01
    1.0939888763e+02    5.9731994629e+01
    1.0949877167e+02    5.9735992432e+01
    1.0959887695e+02    5.9740997314e+01
    1.0969872284e+02    5.9746002197e+01
    1.0979878235e+02    5.9751991272e+01
    1.0989871979e+02    5.9757003784e+01
    1.0999873352e+02    5.9763008118e+01
    1.1009877777e+02    5.9767997742e+01
    1.1019876099e+02    5.9775009155e+01
    1.1029882812e+02    5.9780006409e+01
    1.1039881897e+02    5.9785995483e+01
    1.1049880219e+02    5.9793006897e+01
    1.1059879303e+02    5.9800003052e+01
    1.1069875336e+02    5.9807006836e+01
    1.1079875183e+02    5.9813995361e+01
    1.1089877319e+02    5.9819999695e+01
    1.1099881744e+02    5.9827995300e+01
    1.1109886169e+02    5.9836006165e+01
    1.1119877625e+02    5.9843009949e+01
    1.1129875183e+02    5.9851997375e+01
    1.1139875793e+02    5.9860000610e+01
    1.1149874878e+02    5.9868003845e+01
    1.1159883881e+02    5.9875991821e+01
    1.1169882202e+02    5.9885002136e+01
    1.1179873657e+02    5.9893005371e+01
    1.1189868164e+02    5.9902999878e+01
    1.1199877167e+02    5.9912002563e+01
    1.1209867859e+02    5.9921997070e+01
    1.1219869995e+02    5.9934005737e+01
    1.1229878235e+02    5.9944000244e+01
    1.1239877319e+02    5.9956008911e+01
    1.1249881744e+02    5.9966995239e+01
    1.1259880829e+02    5.9980010986e+01
    1.1269880676e+02    5.9992004395e+01
    1.1279876709e+02    6.0004989624e+01
    1.1289871216e+02    6.0018005371e+01
    1.1299874115e+02    6.0031005859e+01
    1.1309873199e+02    6.0044006348e+01
    1.1319876099e+02    6.0058013916e+01
    1.1329876709e+02    6.0072998047e+01
    1.1339871979e+02    6.0087005615e+01
    1.1349874878e+02    6.0102996826e+01
    1.1359870148e+02    6.0117996216e+01
    1.1369877625e+02    6.0134002686e+01
    1.1379875946e+02    6.0151000977e+01
    1.1389868927e+02    6.0167999268e+01
    1.1399864960e+02    6.0185989380e+01
    1.1409873199e+02    6.0205993652e+01
    1.1419864655e+02    6.0224990845e+01
    1.1429869843e+02    6.0246002197e+01
    1.1439881134e+02    6.0267013550e+01
    1.1449880219e+02    6.0289001465e+01
    1.1459864044e+02    6.0311996460e+01
    1.1469867706e+02    6.0335998535e+01
    1.1479863739e+02    6.0360000610e+01
    1.1489878082e+02    6.0385009766e+01
    1.1499873352e+02    6.0410003662e+01
    1.1509877014e+02    6.0436004639e+01
    1.1519870758e+02    6.0462005615e+01
    1.1529865265e+02    6.0488998413e+01
    1.1539878845e+02    6.0516998291e+01
    1.1549873352e+02    6.0544998169e+01
    1.1559879303e+02    6.0574996948e+01
    1.1569866180e+02    6.0604995728e+01
    1.1579869843e+02    6.0635009766e+01
    1.1589862061e+02    6.0665008545e+01
    1.1599880219e+02    6.0696990967e+01
    1.1609874725e+02    6.0730010986e+01
    1.1619866943e+02    6.0763000488e+01
    1.1629875183e+02    6.0796997070e+01
    1.1639865875e+02    6.0832000732e+01
    1.1649861908e+02    6.0867996216e+01
    1.1659867859e+02    6.0903991699e+01
    1.1669873047e+02    6.0942001343e+01
    1.1679862976e+02    6.0979003906e+01
    1.1689875793e+02    6.1018997192e+01
    1.1699868011e+02    6.1059005737e+01
    1.1709873962e+02    6.1100006104e+01
    1.1719870758e+02    6.1141998291e+01
    1.1729875946e+02    6.1186004639e+01
    1.1739871216e+02    6.1229995728e+01
    1.1749874115e+02    6.1274002075e+01
    1.1759867859e+02    6.1320999146e+01
    1.1769863892e+02    6.1367996216e+01
    1.1779875946e+02    6.1415008545e+01
    1.1789865875e+02    6.1464996338e+01
    1.1799871826e+02    6.1515991211e+01
    1.1809874725e+02    6.1565994263e+01
    1.1819860077e+02    6.1619003296e+01
    1.1829866028e+02    6.1671997070e+01
    1.1839859009e+02    6.1725997925e+01
    1.1849867249e+02    6.1780990601e+01
    1.1859863281e+02    6.1837005615e+01
    1.1869863129e+02    6.1893997192e+01
    1.1879866028e+02    6.1951004028e+01
    1.1889869690e+02    6.2008987427e+01
    1.1899873352e+02    6.2067001343e+01
    1.1909863281e+02    6.2126007080e+01
    1.1919863129e+02    6.2184997559e+01
    1.1929865265e+02    6.2244995117e+01
    1.1939871979e+02    6.2304000854e+01
    1.1949868774e+02    6.2363998413e+01
    1.1959867859e+02    6.2424987793e+01
    1.1969863129e+02    6.2485992432e+01
    1.1979872131e+02    6.2546997070e+01
    1.1989859772e+02    6.2608993530e+01
    1.1999855042e+02    6.2671997070e+01
    1.2009873199e+02    6.2735000610e+01
    1.2019869995e+02    6.2797988892e+01
    1.2029872131e+02    6.2863006592e+01
    1.2039862061e+02    6.2927001953e+01
    1.2049871826e+02    6.2993011475e+01
    1.2059861755e+02    6.3059005737e+01
    1.2069856262e+02    6.3125015259e+01
    1.2079857635e+02    6.3193008423e+01
    1.2089865875e+02    6.3260009766e+01
    1.2099859619e+02    6.3328002930e+01
    1.2109870911e+02    6.3396987915e+01
    1.2119856262e+02    6.3464996338e+01
    1.2129866791e+02    6.3535003662e+01
    1.2139862823e+02    6.3602996826e+01
    1.2149861908e+02    6.3671997070e+01
    1.2159868622e+02    6.3740982056e+01
    1.2169869995e+02    6.3811004639e+01
    1.2179859161e+02    6.3880004883e+01
    1.2189866638e+02    6.3949005127e+01
    1.2199871063e+02    6.4017990112e+01
    1.2209858704e+02    6.4088012695e+01
    1.2219856262e+02    6.4156997681e+01
    1.2229868317e+02    6.4226013184e+01
    1.2239865875e+02    6.4295013428e+01
    1.2249854279e+02    6.4363998413e+01
    1.2259858704e+02    6.4432983398e+01
    1.2269857025e+02    6.4501983643e+01
    1.2279859161e+02    6.4570999146e+01
    1.2289852905e+02    6.4641006470e+01
    1.2299855804e+02    6.4708984375e+01
    1.2309851837e+02    6.4778991699e+01
    1.2319864655e+02    6.4847991943e+01
    1.2329865265e+02    6.4918014526e+01
    1.2339865875e+02    6.4986999512e+01
    1.2349861145e+02    6.5055984497e+01
    1.2359854889e+02    6.5126007080e+01
    1.2369851685e+02    6.5195983887e+01
    1.2379850769e+02    6.5264999390e+01
    1.2389852905e+02    6.5334991455e+01
    1.2399849701e+02    6.5403991699e+01
    1.2409861755e+02    6.5475006104e+01
    1.2419853210e+02    6.5543991089e+01
    1.2429857635e+02    6.5614013672e+01
    1.2439859772e+02    6.5683013916e+01
    1.2449849701e+02    6.5751998901e+01
    1.2459858704e+02    6.5820999146e+01
    1.2469857788e+02    6.5890991211e+01
    1.2479859161e+02    6.5959991455e+01
    1.2489859009e+02    6.6027984619e+01
    1.2499858856e+02    6.6095993042e+01
    1.2509864807e+02    6.6164993286e+01
    1.2519863129e+02    6.6232986450e+01
    1.2529850769e+02    6.6301010132e+01
    1.2539852905e+02    6.6369995117e+01
    1.2549848175e+02    6.6437988281e+01
    1.2559854889e+02    6.6505996704e+01
    1.2569860840e+02    6.6574005127e+01
    1.2579856110e+02    6.6641998291e+01
    1.2589846802e+02    6.6708984375e+01
    1.2599851227e+02    6.6777999878e+01
    1.2609861755e+02    6.6846008301e+01
    1.2619863129e+02    6.6912994385e+01
    1.2629857635e+02    6.6981018066e+01
    1.2639861298e+02    6.7049011230e+01
    1.2649851990e+02    6.7116989136e+01
    1.2659850311e+02    6.7186004639e+01
    1.2669863129e+02    6.7253005981e+01
    1.2679847717e+02    6.7320999146e+01
    1.2689852905e+02    6.7388992310e+01
    1.2699857330e+02    6.7457015991e+01
    1.2709855652e+02    6.7526016235e+01
    1.2719846344e+02    6.7593002319e+01
    1.2729859924e+02    6.7660003662e+01
    1.2739846802e+02    6.7728012085e+01
    1.2749849701e+02    6.7794982910e+01
    1.2759854126e+02    6.7862991333e+01
    1.2769860077e+02    6.7930984497e+01
    1.2779853058e+02    6.7997985840e+01
    1.2789853668e+02    6.8065002441e+01
    1.2799851990e+02    6.8132019043e+01
    1.2809844971e+02    6.8199005127e+01
    1.2819856262e+02    6.8265991211e+01
    1.2829849243e+02    6.8333007812e+01
    1.2839846802e+02    6.8399993896e+01
    1.2849848938e+02    6.8466003418e+01
    1.2859855652e+02    6.8533020020e+01
    1.2869860840e+02    6.8600006104e+01
    1.2879864502e+02    6.8666992188e+01
    1.2889857483e+02    6.8734008789e+01
    1.2899861145e+02    6.8800994873e+01
    1.2909854126e+02    6.8868011475e+01
    1.2919859314e+02    6.8934997559e+01
    1.2929867554e+02    6.9003021240e+01
    1.2939851379e+02    6.9069976807e+01
    1.2949861145e+02    6.9138000488e+01
    1.2959860229e+02    6.9206024170e+01
    1.2969868469e+02    6.9274017334e+01
    1.2979858398e+02    6.9342010498e+01
    1.2989866638e+02    6.9411010742e+01
    1.2999865723e+02    6.9478973389e+01
    1.3009860229e+02    6.9547973633e+01
    1.3019865417e+02    6.9617004395e+01
    1.3029856873e+02    6.9686981201e+01
    1.3039872742e+02    6.9756011963e+01
    1.3049862671e+02    6.9825012207e+01
    1.3059864807e+02    6.9895019531e+01
    1.3069868469e+02    6.9964019775e+01
    1.3079873657e+02    7.0033996582e+01
    1.3089874268e+02    7.0104003906e+01
    1.3099870300e+02    7.0174987793e+01
    1.3109878540e+02    7.0246002197e+01
    1.3119871521e+02    7.0317016602e+01
    1.3129878235e+02    7.0388000488e+01
    1.3139874268e+02    7.0459014893e+01
    1.3149880981e+02    7.0531005859e+01
    1.3159866333e+02    7.0603973389e+01
    1.3169879150e+02    7.0675018311e+01
    1.3179879761e+02    7.0748992920e+01
    1.3189874268e+02    7.0821990967e+01
    1.3199877930e+02    7.0897003174e+01
    1.3209869385e+02    7.0971008301e+01
    1.3219873047e+02    7.1045989990e+01
    1.3229872131e+02    7.1120971680e+01
    1.3239874268e+02    7.1196990967e+01
    1.3249876404e+02    7.1273986816e+01
    1.3259887695e+02    7.1351013184e+01
    1.3269888306e+02    7.1428985596e+01
    1.3279882812e+02    7.1506988525e+01
    1.3289874268e+02    7.1584991455e+01
    1.3299876404e+02    7.1664001465e+01
    1.3309890747e+02    7.1743988037e+01
    1.3319885254e+02    7.1824005127e+01
    1.3329887390e+02    7.1906005859e+01
    1.3339889526e+02    7.1986999512e+01
    1.3349893188e+02    7.2069000244e+01
    1.3359878540e+02    7.2152008057e+01
    1.3369886780e+02    7.2234985352e+01
    1.3379879761e+02    7.2319000244e+01
    1.3389880371e+02    7.2401977539e+01
    1.3399896240e+02    7.2488006592e+01
    1.3409890747e+02    7.2574005127e+01
    1.3419880676e+02    7.2660003662e+01
    1.3429890442e+02    7.2747009277e+01
    1.3439884949e+02    7.2834014893e+01
    1.3449890137e+02    7.2923004150e+01
    1.3459884644e+02    7.3012023926e+01
    1.3469883728e+02    7.3101989746e+01
    1.3479890442e+02    7.3192016602e+01
    1.3489892578e+02    7.3282989502e+01
    1.3499899292e+02    7.3375000000e+01
    1.3509895325e+02    7.3466979980e+01
    1.3519894409e+02    7.3559997559e+01
    1.3529896545e+02    7.3654022217e+01
    1.3539895630e+02    7.3748992920e+01
    1.3549902344e+02    7.3842987061e+01
    1.3559902954e+02    7.3938995361e+01
    1.3569906616e+02    7.4035003662e+01
    1.3579893494e+02    7.4131011963e+01
    1.3589901733e+02    7.4227996826e+01
    1.3599891663e+02    7.4325988770e+01
    1.3609898376e+02    7.4424011230e+01
    1.3619902039e+02    7.4520996094e+01
    1.3629899597e+02    7.4621002197e+01
    1.3639898682e+02    7.4718994141e+01
    1.3649911499e+02    7.4819000244e+01
    1.3659907532e+02    7.4917999268e+01
    1.3669900513e+02    7.5017974854e+01
    1.3679896545e+02    7.5118988037e+01
    1.3689915466e+02    7.5220001221e+01
    1.3699911499e+02    7.5320983887e+01
    1.3709915161e+02    7.5423004150e+01
    1.3719905090e+02    7.5525024414e+01
    1.3729902649e+02    7.5628021240e+01
    1.3739912415e+02    7.5730987549e+01
    1.3749906921e+02    7.5833984375e+01
    1.3759913635e+02    7.5938018799e+01
    1.3769905090e+02    7.6041992188e+01
    1.3779916382e+02    7.6147003174e+01
    1.3789912415e+02    7.6251983643e+01
    1.3799920654e+02    7.6356994629e+01
    1.3809921265e+02    7.6463012695e+01
    1.3819918823e+02    7.6569000244e+01
    1.3829913330e+02    7.6675018311e+01
    1.3839910889e+02    7.6783996582e+01
    1.3849919128e+02    7.6897003174e+01
    1.3859915161e+02    7.7010009766e+01
    1.3869921875e+02    7.7127990723e+01
    1.3879910278e+02    7.7248992920e+01
    1.3889909363e+02    7.7372009277e+01
    1.3899926758e+02    7.7497985840e+01
    1.3909924316e+02    7.7625000000e+01
    1.3919912720e+02    7.7752990723e+01
    1.3929913330e+02    7.7881988525e+01
    1.3939921570e+02    7.8011993408e+01
    1.3949923706e+02    7.8141998291e+01
    1.3959927368e+02    7.8270996094e+01
    1.3969929504e+02    7.8399993896e+01
    1.3979919434e+02    7.8528015137e+01
    1.3989929199e+02    7.8658020020e+01
    1.3999923706e+02    7.8786010742e+01
    1.4009921265e+02    7.8912994385e+01
    1.4019926453e+02    7.9041992188e+01
    1.4029925537e+02    7.9169006348e+01
    1.4039918518e+02    7.9296020508e+01
    1.4049920654e+02    7.9423004150e+01
    1.4059919739e+02    7.9548004150e+01
    1.4069920349e+02    7.9674011230e+01
    1.4079930115e+02    7.9798004150e+01
    1.4089927673e+02    7.9921997070e+01
    1.4099934387e+02    8.0044006348e+01
    1.4109936523e+02    8.0166992188e+01
    1.4119931030e+02    8.0287994385e+01
    1.4129937744e+02    8.0408020020e+01
    1.4139929199e+02    8.0527984619e+01
    1.4149937439e+02    8.0644989014e+01
    1.4159939575e+02    8.0764007568e+01
    1.4169929504e+02    8.0880004883e+01
    1.4179928589e+02    8.0994995117e+01
    1.4189930725e+02    8.1108978271e+01
    1.4199937439e+02    8.1221984863e+01
    1.4209942627e+02    8.1333984375e+01
    1.4219935608e+02    8.1444000244e+01
    1.4229945374e+02    8.1552978516e+01
    1.4239935303e+02    8.1661987305e+01
    1.4249937439e+02    8.1767974854e+01
    1.4259934998e+02    8.1873992920e+01
    1.4269938660e+02    8.1977020264e+01
    1.4279934692e+02    8.2079010010e+01
    1.4289939880e+02    8.2179992676e+01
    1.4299940491e+02    8.2278991699e+01
    1.4309942627e+02    8.2376983643e+01
    1.4319938660e+02    8.2473999023e+01
    1.4329940796e+02    8.2569000244e+01
    1.4339949036e+02    8.2662994385e+01
    1.4349948120e+02    8.2756011963e+01
    1.4359948730e+02    8.2846008301e+01
    1.4369947815e+02    8.2937011719e+01
    1.4379948425e+02    8.3023986816e+01
    1.4389950562e+02    8.3109985352e+01
    1.4399954224e+02    8.3194976807e+01
    1.4409950256e+02    8.3276977539e+01
    1.4419955444e+02    8.3357971191e+01
    1.4429945374e+02    8.3437011719e+01
    1.4439955139e+02    8.3515014648e+01
    1.4449952698e+02    8.3589996338e+01
    1.4459945679e+02    8.3663970947e+01
    1.4469944763e+02    8.3736022949e+01
    1.4479949951e+02    8.3805999756e+01
    1.4489955139e+02    8.3873992920e+01
    1.4499960327e+02    8.3940002441e+01
    1.4509957886e+02    8.4005004883e+01
    1.4519953918e+02    8.4067993164e+01
    1.4529949951e+02    8.4128997803e+01
    1.4539959717e+02    8.4188018799e+01
    1.4549958801e+02    8.4246032715e+01
    1.4559962463e+02    8.4301971436e+01
    1.4569963074e+02    8.4354980469e+01
    1.4579963684e+02    8.4406982422e+01
    1.4589958191e+02    8.4457031250e+01
    1.4599969482e+02    8.4504974365e+01
    1.4609957886e+02    8.4550994873e+01
    1.4619969177e+02    8.4595977783e+01
    1.4629960632e+02    8.4638000488e+01
    1.4639959717e+02    8.4677978516e+01
    1.4649960327e+02    8.4717010498e+01
    1.4659971619e+02    8.4753021240e+01
    1.4669964600e+02    8.4788024902e+01
    1.4679969788e+02    8.4820007324e+01
    1.4689959717e+02    8.4851013184e+01
    1.4699971008e+02    8.4880004883e+01
    1.4709968567e+02    8.4907989502e+01
    1.4719966125e+02    8.4931976318e+01
    1.4729969788e+02    8.4955993652e+01
    1.4739978027e+02    8.4977020264e+01
    1.4749969482e+02    8.4995971680e+01
    1.4759970093e+02    8.5013031006e+01
    1.4769973755e+02    8.5028991699e+01
    1.4779968262e+02    8.5041992188e+01
    1.4789973450e+02    8.5053009033e+01
    1.4799978638e+02    8.5062988281e+01
    1.4809982300e+02    8.5069976807e+01
    1.4819981384e+02    8.5075988770e+01
    1.4829981995e+02    8.5079010010e+01
    1.4839984131e+02    8.5081970215e+01
    1.4849972534e+02    8.5082000732e+01
    1.4859974670e+02    8.5080017090e+01
    1.4869972229e+02    8.5076995850e+01
    1.4879983521e+02    8.5071014404e+01
    1.4889976501e+02    8.5065032959e+01
    1.4899984741e+02    8.5055999756e+01
    1.4909974670e+02    8.5046020508e+01
    1.4919984436e+02    8.5033966064e+01
    1.4929980469e+02    8.5019989014e+01
    1.4939984131e+02    8.5003021240e+01
    1.4949984741e+02    8.4985992432e+01
    1.4959983826e+02    8.4966003418e+01
    1.4969978333e+02    8.4944976807e+01
    1.4979981995e+02    8.4922973633e+01
    1.4989990234e+02    8.4898010254e+01
    1.4999987793e+02    8.4870971680e+01
    1.5009991455e+02    8.4842987061e+01
    1.5019990540e+02    8.4813018799e+01
    1.5029992676e+02    8.4782012939e+01
    1.5039982605e+02    8.4748992920e+01
    1.5049995422e+02    8.4714965820e+01
    1.5059988403e+02    8.4678009033e+01
    1.5069985962e+02    8.4640014648e+01
    1.5079992676e+02    8.4601989746e+01
    1.5089991760e+02    8.4560974121e+01
    1.5099998474e+02    8.4518005371e+01
    1.5109988403e+02    8.4473999023e+01
    1.5120001221e+02    8.4428009033e+01
    1.5129994202e+02    8.4381988525e+01
    1.5139990234e+02    8.4333007812e+01
    1.5150000000e+02    8.4283996582e+01
    1.5159997559e+02    8.4232971191e+01
    1.5169998169e+02    8.4181030273e+01
    1.5179991150e+02    8.4126983643e+01
    1.5189990234e+02    8.4073028564e+01
    1.5199996948e+02    8.4016967773e+01
    1.5210006714e+02    8.3958984375e+01
    1.5220002747e+02    8.3901000977e+01
    1.5229995728e+02    8.3841003418e+01
    1.5239991760e+02    8.3781005859e+01
    1.5250000000e+02    8.3718994141e+01
    1.5260000610e+02    8.3654968262e+01
    1.5269993591e+02    8.3591003418e+01
    1.5280007935e+02    8.3526000977e+01
    1.5290011597e+02    8.3458984375e+01
    1.5300001526e+02    8.3391967773e+01
    1.5310000610e+02    8.3322998047e+01
    1.5320005798e+02    8.3252990723e+01
    1.5330012512e+02    8.3182983398e+01
    1.5340014648e+02    8.3111999512e+01
    1.5350003052e+02    8.3039001465e+01
    1.5360008240e+02    8.2965942383e+01
    1.5370004272e+02    8.2892028809e+01
    1.5380000305e+02    8.2817993164e+01
    1.5390008545e+02    8.2740966797e+01
    1.5400009155e+02    8.2666015625e+01
    1.5410014343e+02    8.2588012695e+01
    1.5420018005e+02    8.2510009766e+01
    1.5430009460e+02    8.2430969238e+01
    1.5440008545e+02    8.2351989746e+01
    1.5450007629e+02    8.2272949219e+01
    1.5460012817e+02    8.2192016602e+01
    1.5470005798e+02    8.2111022949e+01
    1.5480009460e+02    8.2028991699e+01
    1.5490017700e+02    8.1945983887e+01
    1.5500015259e+02    8.1862976074e+01
    1.5510023499e+02    8.1780029297e+01
    1.5520016479e+02    8.1695983887e+01
    1.5530018616e+02    8.1611022949e+01
    1.5540023804e+02    8.1526000977e+01
    1.5550015259e+02    8.1440002441e+01
    1.5560020447e+02    8.1353027344e+01
    1.5570022583e+02    8.1267028809e+01
    1.5580018616e+02    8.1179992676e+01
    1.5590019226e+02    8.1093017578e+01
    1.5600030518e+02    8.1005981445e+01
    1.5610026550e+02    8.0919006348e+01
    1.5620016479e+02    8.0830993652e+01
    1.5630024719e+02    8.0742004395e+01
    1.5640031433e+02    8.0652954102e+01
    1.5650021362e+02    8.0564025879e+01
    1.5660031128e+02    8.0473999023e+01
    1.5670033264e+02    8.0384033203e+01
    1.5680030823e+02    8.0293029785e+01
    1.5690031433e+02    8.0201965332e+01
    1.5700025940e+02    8.0111022949e+01
    1.5710032654e+02    8.0020019531e+01
    1.5720031738e+02    7.9927978516e+01
    1.5730029297e+02    7.9835998535e+01
    1.5740037537e+02    7.9742980957e+01
    1.5750039673e+02    7.9651000977e+01
    1.5760031128e+02    7.9557006836e+01
    1.5770025635e+02    7.9463989258e+01
    1.5780033875e+02    7.9369995117e+01
    1.5790039062e+02    7.9277038574e+01
    1.5800028992e+02    7.9182006836e+01
    1.5810040283e+02    7.9088012695e+01
    1.5820033264e+02    7.8993041992e+01
    1.5830030823e+02    7.8898010254e+01
    1.5840046692e+02    7.8802978516e+01
    1.5850033569e+02    7.8706970215e+01
    1.5860031128e+02    7.8611999512e+01
    1.5870048523e+02    7.8514953613e+01
    1.5880035400e+02    7.8419006348e+01
    1.5890046692e+02    7.8322998047e+01
    1.5900035095e+02    7.8226013184e+01
    1.5910038757e+02    7.8128967285e+01
    1.5920034790e+02    7.8031005859e+01
    1.5930052185e+02    7.7932983398e+01
    1.5940046692e+02    7.7835021973e+01
    1.5950039673e+02    7.7737976074e+01
    1.5960047913e+02    7.7640014648e+01
    1.5970042419e+02    7.7539978027e+01
    1.5980047607e+02    7.7442016602e+01
    1.5990049744e+02    7.7342956543e+01
    1.6000041199e+02    7.7244018555e+01
    1.6010046387e+02    7.7144958496e+01
    1.6020045471e+02    7.7044982910e+01
    1.6030050659e+02    7.6945007324e+01
    1.6040042114e+02    7.6846008301e+01
    1.6050050354e+02    7.6744995117e+01
    1.6060049438e+02    7.6645019531e+01
    1.6070054626e+02    7.6544006348e+01
    1.6080053711e+02    7.6442993164e+01
    1.6090051270e+02    7.6341979980e+01
    1.6100044250e+02    7.6241027832e+01
    1.6110058594e+02    7.6139038086e+01
    1.6120051575e+02    7.6036987305e+01
    1.6130052185e+02    7.5934997559e+01
    1.6140051270e+02    7.5833007812e+01
    1.6150059509e+02    7.5730041504e+01
    1.6160064697e+02    7.5626953125e+01
    1.6170054626e+02    7.5525024414e+01
    1.6180056763e+02    7.5421020508e+01
    1.6190057373e+02    7.5317993164e+01
    1.6200054932e+02    7.5213989258e+01
    1.6210057068e+02    7.5111022949e+01
    1.6220053101e+02    7.5005981445e+01
    1.6230056763e+02    7.4901977539e+01
    1.6240058899e+02    7.4796997070e+01
    1.6250059509e+02    7.4692993164e+01
    1.6260061646e+02    7.4588012695e+01
    1.6270057678e+02    7.4483032227e+01
    1.6280073547e+02    7.4376953125e+01
    1.6290071106e+02    7.4270996094e+01
    1.6300056458e+02    7.4164978027e+01
    1.6310067749e+02    7.4058959961e+01
    1.6320060730e+02    7.3953002930e+01
    1.6330064392e+02    7.3846008301e+01
    1.6340069580e+02    7.3739990234e+01
    1.6350068665e+02    7.3632995605e+01
    1.6360060120e+02    7.3525024414e+01
    1.6370077515e+02    7.3419006348e+01
    1.6380067444e+02    7.3310974121e+01
    1.6390071106e+02    7.3203002930e+01
    1.6400076294e+02    7.3094970703e+01
    1.6410066223e+02    7.2986999512e+01
    1.6420065308e+02    7.2877990723e+01
    1.6430070496e+02    7.2769042969e+01
    1.6440071106e+02    7.2659973145e+01
    1.6450076294e+02    7.2549987793e+01
    1.6460081482e+02    7.2440979004e+01
    1.6470083618e+02    7.2330993652e+01
    1.6480079651e+02    7.2222045898e+01
    1.6490083313e+02    7.2111999512e+01
    1.6500083923e+02    7.2001037598e+01
    1.6510076904e+02    7.1890991211e+01
    1.6520071411e+02    7.1781005859e+01
    1.6530087280e+02    7.1669006348e+01
    1.6540075684e+02    7.1557983398e+01
    1.6550085449e+02    7.1447021484e+01
    1.6560083008e+02    7.1335998535e+01
    1.6570088196e+02    7.1223999023e+01
    1.6580082703e+02    7.1111999512e+01
    1.6590086365e+02    7.1000000000e+01
    1.6600088501e+02    7.0888000488e+01
    1.6610087585e+02    7.0773986816e+01
    1.6620089722e+02    7.0661987305e+01
    1.6630084229e+02    7.0549011230e+01
    1.6640086365e+02    7.0436035156e+01
    1.6650083923e+02    7.0322998047e+01
    1.6660090637e+02    7.0208984375e+01
    1.6670091248e+02    7.0096008301e+01
    1.6680081177e+02    6.9982971191e+01
    1.6690086365e+02    6.9869018555e+01
    1.6700096130e+02    6.9755004883e+01
    1.6710096741e+02    6.9640014648e+01
    1.6720095825e+02    6.9526000977e+01
    1.6730099487e+02    6.9411987305e+01
    1.6740098572e+02    6.9296997070e+01
    1.6750093079e+02    6.9182006836e+01
    1.6760084534e+02    6.9067016602e+01
    1.6770094299e+02    6.8952026367e+01
    1.6780097961e+02    6.8836975098e+01
    1.6790086365e+02    6.8721008301e+01
    1.6800096130e+02    6.8605957031e+01
    1.6810093689e+02    6.8489013672e+01
    1.6820098877e+02    6.8372985840e+01
    1.6830093384e+02    6.8257019043e+01
    1.6840097046e+02    6.8140991211e+01
    1.6850099182e+02    6.8023986816e+01
    1.6860093689e+02    6.7908020020e+01
    1.6870104980e+02    6.7790954590e+01
    1.6880091858e+02    6.7674011230e+01
    1.6890107727e+02    6.7556945801e+01
    1.6900094604e+02    6.7440002441e+01
    1.6910096741e+02    6.7321960449e+01
    1.6920103455e+02    6.7206054688e+01
    1.6930093384e+02    6.7088012695e+01
    1.6940095520e+02    6.6970031738e+01
    1.6950099182e+02    6.6851989746e+01
    1.6960102844e+02    6.6734985352e+01
    1.6970104980e+02    6.6616943359e+01
    1.6980101013e+02    6.6499023438e+01
    1.6990110779e+02    6.6378967285e+01
    1.7000111389e+02    6.6262023926e+01
    1.7010102844e+02    6.6143005371e+01
    1.7020117188e+02    6.6023986816e+01
    1.7030108643e+02    6.5906005859e+01
    1.7040118408e+02    6.5786987305e+01
    1.7050106812e+02    6.5666992188e+01
    1.7060107422e+02    6.5549011230e+01
    1.7070114136e+02    6.5429016113e+01
    1.7080104065e+02    6.5310974121e+01
    1.7090115356e+02    6.5190979004e+01
    1.7100122070e+02    6.5072021484e+01
    1.7110113525e+02    6.4953002930e+01
    1.7120117188e+02    6.4834045410e+01
    1.7130110168e+02    6.4713989258e+01
    1.7140113831e+02    6.4594970703e+01
    1.7150115967e+02    6.4476013184e+01
    1.7160110474e+02    6.4356018066e+01
    1.7170111084e+02    6.4236022949e+01
    1.7180116272e+02    6.4117004395e+01
    1.7190112305e+02    6.3997009277e+01
    1.7200122070e+02    6.3877014160e+01
    1.7210119629e+02    6.3757995605e+01
    1.7220126343e+02    6.3638000488e+01
    1.7230128479e+02    6.3518005371e+01
    1.7240130615e+02    6.3398010254e+01
    1.7250123596e+02    6.3278015137e+01
    1.7260127258e+02    6.3157958984e+01
    1.7270115662e+02    6.3038024902e+01
    1.7280125427e+02    6.2917968750e+01
    1.7290127563e+02    6.2797973633e+01
    1.7300125122e+02    6.2679016113e+01
    1.7310122681e+02    6.2558959961e+01
    1.7320126343e+02    6.2437988281e+01
    1.7330128479e+02    6.2317993164e+01
    1.7340126038e+02    6.2197998047e+01
    1.7350120544e+02    6.2078002930e+01
    1.7360127258e+02    6.1957031250e+01
    1.7370123291e+02    6.1837951660e+01
    1.7380134583e+02    6.1717041016e+01
    1.7390141296e+02    6.1597045898e+01
    1.7400128174e+02    6.1476989746e+01
    1.7410128784e+02    6.1357971191e+01
    1.7420129395e+02    6.1236999512e+01
    1.7430140686e+02    6.1117004395e+01
    1.7440133667e+02    6.0997009277e+01
    1.7450135803e+02    6.0876953125e+01
    1.7460131836e+02    6.0757019043e+01
    1.7470144653e+02    6.0636962891e+01
    1.7480140686e+02    6.0516967773e+01
    1.7490130615e+02    6.0397033691e+01
    1.7500137329e+02    6.0276977539e+01
    1.7510130310e+02    6.0156982422e+01
    1.7520138550e+02    6.0036987305e+01
    1.7530133057e+02    5.9916992188e+01
    1.7540142822e+02    5.9797973633e+01
    1.7550146484e+02    5.9677978516e+01
    1.7560147095e+02    5.9557983398e+01
    1.7570144653e+02    5.9437988281e+01
    1.7580136108e+02    5.9319030762e+01
    1.7590138245e+02    5.9199035645e+01
    1.7600146484e+02    5.9079040527e+01
    1.7610151672e+02    5.8960021973e+01
    1.7620150757e+02    5.8839965820e+01
    1.7630152893e+02    5.8721008301e+01
    1.7640150452e+02    5.8601989746e+01
    1.7650149536e+02    5.8482055664e+01
    1.7660151672e+02    5.8364013672e+01
    1.7670141602e+02    5.8244995117e+01
    1.7680158997e+02    5.8125000000e+01
    1.7690144348e+02    5.8007019043e+01
    1.7700157166e+02    5.7886962891e+01
    1.7710159302e+02    5.7768005371e+01
    1.7720152283e+02    5.7649047852e+01
    1.7730151367e+02    5.7530029297e+01
    1.7740151978e+02    5.7411010742e+01
    1.7750149536e+02    5.7292968750e+01
    1.7760159302e+02    5.7173950195e+01
    1.7770153809e+02    5.7054992676e+01
    1.7780160522e+02    5.6935974121e+01
    1.7790151978e+02    5.6817993164e+01
    1.7800161743e+02    5.6698974609e+01
    1.7810151672e+02    5.6580017090e+01
    1.7820161438e+02    5.6461975098e+01
    1.7830166626e+02    5.6348022461e+01
    1.7840153503e+02    5.6226013184e+01
    1.7850155640e+02    5.6111022949e+01
    1.7860156250e+02    5.5986022949e+01
    1.7870158386e+02    5.5869995117e+01
    1.7880160522e+02    5.5755004883e+01
    1.7890159607e+02    5.5638977051e+01
    1.7900161743e+02    5.5521972656e+01
    1.7910159302e+02    5.5395996094e+01
    1.7920159912e+02    5.5279052734e+01
    1.7930168152e+02    5.5161010742e+01
    1.7940158081e+02    5.5044982910e+01
    1.7950157166e+02    5.4927001953e+01
    1.7960165405e+02    5.4817993164e+01
    1.7970161438e+02    5.4700012207e+01
    1.7980169678e+02    5.4580017090e+01
    1.7990162659e+02    5.4462036133e+01
    1.8000170898e+02    5.4351928711e+01
    1.8010168457e+02    5.4232971191e+01
    1.8020169067e+02    5.4113037109e+01
    1.8030177307e+02    5.4001953125e+01
    1.8040173340e+02    5.3881958008e+01
    1.8050166321e+02    5.3763000488e+01
    1.8060168457e+02    5.3652038574e+01
    1.8070181274e+02    5.3537963867e+01
    1.8080168152e+02    5.3419006348e+01
    1.8090170288e+02    5.3307067871e+01
    1.8100178528e+02    5.3193969727e+01
    1.8110174561e+02    5.3072021484e+01
    1.8120173645e+02    5.2960083008e+01
    1.8130172729e+02    5.2847961426e+01
    1.8140185547e+02    5.2733032227e+01
    1.8150184631e+02    5.2619934082e+01
    1.8160183716e+02    5.2510009766e+01
    1.8170176697e+02    5.2390014648e+01
    1.8180171204e+02    5.2279968262e+01
    1.8190174866e+02    5.2169982910e+01
    1.8200178528e+02    5.2050048828e+01
    1.8210185242e+02    5.1939941406e+01
    1.8220188904e+02    5.1830017090e+01
    1.8230175781e+02    5.1719970703e+01
    1.8240185547e+02    5.1599975586e+01
    1.8250192261e+02    5.1490051270e+01
    1.8260179138e+02    5.1379943848e+01
    1.8270181274e+02    5.1260009766e+01
    1.8280180359e+02    5.1160034180e+01
    1.8290196228e+02    5.1040039062e+01
    1.8300192261e+02    5.0930053711e+01
    1.8310191345e+02    5.0819946289e+01
    1.8320196533e+02    5.0699951172e+01
    1.8330184937e+02    5.0599975586e+01
    1.8340190125e+02    5.0489990234e+01
    1.8350192261e+02    5.0369995117e+01
    1.8360194397e+02    5.0260009766e+01
    1.8370187378e+02    5.0150024414e+01
    1.8380184937e+02    5.0049926758e+01
    1.8390187073e+02    4.9940063477e+01
    1.8400195312e+02    4.9829956055e+01
    1.8410197449e+02    4.9719970703e+01
    1.8420190430e+02    4.9610107422e+01
    1.8430189514e+02    4.9500000000e+01
    1.8440199280e+02    4.9390014648e+01
    1.8450196838e+02    4.9280029297e+01
    1.8460194397e+02    4.9170043945e+01
    1.8470196533e+02    4.9069946289e+01
    1.8480206299e+02    4.8960083008e+01
    1.8490200806e+02    4.8849975586e+01
    1.8500198364e+02    4.8739990234e+01
    1.8510203552e+02    4.8640014648e+01
    1.8520199585e+02    4.8530029297e+01
    1.8530203247e+02    4.8419921875e+01
    1.8540205383e+02    4.8320068359e+01
    1.8550195312e+02    4.8219970703e+01
    1.8560206604e+02    4.8109985352e+01
    1.8570207214e+02    4.7989990234e+01
    1.8580209351e+02    4.7890014648e+01
    1.8590208435e+02    4.7779907227e+01
    1.8600199890e+02    4.7680053711e+01
    1.8610209656e+02    4.7579956055e+01
    1.8620207214e+02    4.7470092773e+01
    1.8630210876e+02    4.7369995117e+01
    1.8640211487e+02    4.7260009766e+01
    1.8650210571e+02    4.7150024414e+01
    1.8660209656e+02    4.7050048828e+01
    1.8670213318e+02    4.6939941406e+01
    1.8680215454e+02    4.6849975586e+01
    1.8690219116e+02    4.6739990234e+01
    1.8700202942e+02    4.6630004883e+01
    1.8710206604e+02    4.6530029297e+01
    1.8720211792e+02    4.6429931641e+01
    1.8730212402e+02    4.6320068359e+01
    1.8740216064e+02    4.6209960938e+01
    1.8750218201e+02    4.6109985352e+01
    1.8760212708e+02    4.6010009766e+01
    1.8770219421e+02    4.5909912109e+01
    1.8780209351e+02    4.5810058594e+01
    1.8790208435e+02    4.5699951172e+01
    1.8800213623e+02    4.5599975586e+01
    1.8810224915e+02    4.5489990234e+01
    1.8820228577e+02    4.5390014648e+01
    1.8830221558e+02    4.5280029297e+01
    1.8840223694e+02    4.5190063477e+01
    1.8850227356e+02    4.5079956055e+01
    1.8860227966e+02    4.4969970703e+01
    1.8870228577e+02    4.4880004883e+01
    1.8880215454e+02    4.4769897461e+01
    1.8890231323e+02    4.4670043945e+01
    1.8900230408e+02    4.4559936523e+01
    1.8910227966e+02    4.4460083008e+01
    1.8920216370e+02    4.4349975586e+01
    1.8930230713e+02    4.4250000000e+01
    1.8940220642e+02    4.4150024414e+01
    1.8950221252e+02    4.4050048828e+01
    1.8960235596e+02    4.3949951172e+01
    1.8970231628e+02    4.3850097656e+01
    1.8980236816e+02    4.3739990234e+01
    1.8990231323e+02    4.3640014648e+01
    1.9000227356e+02    4.3529907227e+01
    1.9010226440e+02    4.3430053711e+01
    1.9020236206e+02    4.3319946289e+01
    1.9030235291e+02    4.3219970703e+01
    1.9040237427e+02    4.3119995117e+01
    1.9050227356e+02    4.3010009766e+01
    1.9060237122e+02    4.2909912109e+01
    1.9070239258e+02    4.2810058594e+01
    1.9080239868e+02    4.2700073242e+01
    1.9090240479e+02    4.2599975586e+01
    1.9100238037e+02    4.2489990234e+01
    1.9110240173e+02    4.2390014648e+01
    1.9120245361e+02    4.2280029297e+01
    1.9130244446e+02    4.2179931641e+01
    1.9140242004e+02    4.2069946289e+01
    1.9150239563e+02    4.1960083008e+01
    1.9160232544e+02    4.1859985352e+01
    1.9170237732e+02    4.1750000000e+01
    1.9180235291e+02    4.1649902344e+01
    1.9190240479e+02    4.1540039062e+01
    1.9200236511e+02    4.1430053711e+01
    1.9210232544e+02    4.1329956055e+01
    1.9220237732e+02    4.1219970703e+01
    1.9230252075e+02    4.1110107422e+01
    1.9240248108e+02    4.1000000000e+01
    1.9250244141e+02    4.0890014648e+01
    1.9260252380e+02    4.0789916992e+01
    1.9270239258e+02    4.0679931641e+01
    1.9280249023e+02    4.0580078125e+01
    1.9290255737e+02    4.0459960938e+01
    1.9300250244e+02    4.0359985352e+01
    1.9310238647e+02    4.0239990234e+01
    1.9320249939e+02    4.0130004883e+01
    1.9330249023e+02    4.0020019531e+01
    1.9340240479e+02    3.9910034180e+01
    1.9350247192e+02    3.9800048828e+01
    1.9360243225e+02    3.9689941406e+01
    1.9370251465e+02    3.9579956055e+01
    1.9380259705e+02    3.9459960938e+01
    1.9390249634e+02    3.9340087891e+01
    1.9400244141e+02    3.9229980469e+01
    1.9410253906e+02    3.9119995117e+01
    1.9420262146e+02    3.9010009766e+01
    1.9430261230e+02    3.8890014648e+01
    1.9440263367e+02    3.8769897461e+01
    1.9450263977e+02    3.8650024414e+01
    1.9460249329e+02    3.8540039062e+01
    1.9470254517e+02    3.8430053711e+01
    1.9480255127e+02    3.8310058594e+01
    1.9490258789e+02    3.8179931641e+01
    1.9500265503e+02    3.8069946289e+01
    1.9510261536e+02    3.7949951172e+01
    1.9520260620e+02    3.7829956055e+01
    1.9530267334e+02    3.7710083008e+01
    1.9540255737e+02    3.7590087891e+01
    1.9550271606e+02    3.7469970703e+01
    1.9560270691e+02    3.7349975586e+01
    1.9570262146e+02    3.7229980469e+01
    1.9580271912e+02    3.7109985352e+01
    1.9590260315e+02    3.6989990234e+01
    1.9600259399e+02    3.6859985352e+01
    1.9610258484e+02    3.6729980469e+01
    1.9620271301e+02    3.6609985352e+01
    1.9630276489e+02    3.6480102539e+01
    1.9640269470e+02    3.6359985352e+01
    1.9650262451e+02    3.6239990234e+01
    1.9660264587e+02    3.6109985352e+01
    1.9670278931e+02    3.5989990234e+01
    1.9680261230e+02    3.5859985352e+01
    1.9690280151e+02    3.5729980469e+01
    1.9700273132e+02    3.5599975586e+01
    1.9710267639e+02    3.5479980469e+01
    1.9720281982e+02    3.5339965820e+01
    1.9730278015e+02    3.5209960938e+01
    1.9740272522e+02    3.5089965820e+01
    1.9750271606e+02    3.4949951172e+01
    1.9760278320e+02    3.4829956055e+01
    1.9770268250e+02    3.4689941406e+01
    1.9780270386e+02    3.4559936523e+01
    1.9790281677e+02    3.4429931641e+01
    1.9800274658e+02    3.4289916992e+01
    1.9810284424e+02    3.4159912109e+01
    1.9820283508e+02    3.4029907227e+01
    1.9830270386e+02    3.3890014648e+01
    1.9840272522e+02    3.3760009766e+01
    1.9850277710e+02    3.3620117188e+01
    1.9860281372e+02    3.3490112305e+01
    1.9870275879e+02    3.3350097656e+01
    1.9880281067e+02    3.3210083008e+01
    1.9890281677e+02    3.3070068359e+01
    1.9900288391e+02    3.2930053711e+01
    1.9910276794e+02    3.2800048828e+01
    1.9920286560e+02    3.2659912109e+01
    1.9930287170e+02    3.2519897461e+01
    1.9940295410e+02    3.2380004883e+01
    1.9950289917e+02    3.2229980469e+01
    1.9960296631e+02    3.2099975586e+01
    1.9970283508e+02    3.1949951172e+01
    1.9980290222e+02    3.1809936523e+01
    1.9990296936e+02    3.1669921875e+01
endcurve
