Curveplot
LS-DYNA keyword deck by LS-PrePost
Abscissa
Ordinate
XY data
NBDLOCDispZ.-1 #pts=2000
* Minval=    -5.0881698608e+01 at time=       154.7000579834
* Maxval=     1.0457199533e-03 at time=        37.5998878479
    0.0000000000e+00    0.0000000000e+00
    9.9978484213e-02    5.0812201203e-35
    1.9995696843e-01    1.8835000225e-28
    2.9993546009e-01    8.5798602533e-25
    3.9991393685e-01    2.4279399382e-22
    4.9989241362e-01    1.7847799812e-20
    5.9987092018e-01    5.6130501474e-19
    6.9989228249e-01    1.0854399656e-17
    7.9987078905e-01    1.7524700074e-16
    8.9984923601e-01    1.5086199950e-15
    9.9982774258e-01    5.9842500794e-15
    1.0999879837e+00    1.8798500354e-14
    1.1999665499e+00    5.8742297322e-14
    1.2999449968e+00    1.8927700661e-13
    1.3999276161e+00    6.0264298976e-13
    1.4998989105e+00    1.8248200260e-12
    1.5999723673e+00    5.1722901136e-12
    1.6999509335e+00    1.3631399828e-11
    1.7999293804e+00    3.3468301047e-11
    1.8999079466e+00    7.6786001169e-11
    1.9998862743e+00    1.6521800594e-10
    2.0998647213e+00    3.3461100557e-10
    2.1998434067e+00    6.4018501611e-10
    2.2998218536e+00    1.1615000073e-09
    2.3999822140e+00    2.0085200170e-09
    2.4999604225e+00    3.3172600222e-09
    2.5999391079e+00    5.2567399322e-09
    2.6999175549e+00    8.0171096428e-09
    2.7999644279e+00    1.1804599964e-08
    2.8999450207e+00    1.6814999171e-08
    2.9999256134e+00    2.3231899959e-08
    3.0999062061e+00    3.1154598901e-08
    3.1998867989e+00    4.0479999797e-08
    3.2998673916e+00    5.0896300507e-08
    3.3998479843e+00    6.2344497564e-08
    3.4999725819e+00    7.5720699044e-08
    3.5999510288e+00    9.2199599067e-08
    3.6999294758e+00    1.1312899773e-07
    3.7999079227e+00    1.3991200376e-07
    3.8998863697e+00    1.7376800088e-07
    3.9998648167e+00    2.1540400041e-07
    4.0998435020e+00    2.6525398766e-07
    4.1999077797e+00    3.2373799286e-07
    4.2999424934e+00    3.9112998707e-07
    4.3999209404e+00    4.6765998718e-07
    4.4998140335e+00    5.5347697980e-07
    4.5999875069e+00    6.4900797270e-07
    4.6999678612e+00    7.5376698305e-07
    4.7999486923e+00    8.6763799345e-07
    4.8999295235e+00    9.9030398815e-07
    4.9999098778e+00    1.1219300404e-06
    5.0998907089e+00    1.2625299632e-06
    5.1998715401e+00    1.4121000049e-06
    5.2998518944e+00    1.5705400074e-06
    5.3998327255e+00    1.7378899884e-06
    5.4998135567e+00    1.9141900793e-06
    5.5999875069e+00    2.0997999854e-06
    5.6999678612e+00    2.2942899705e-06
    5.7999486923e+00    2.4985299660e-06
    5.8999295235e+00    2.7129399314e-06
    5.9999098778e+00    2.9376599286e-06
    6.0998907089e+00    3.1727499845e-06
    6.1998720169e+00    3.4179399790e-06
    6.2998533249e+00    3.6731000819e-06
    6.3998341560e+00    3.9382698560e-06
    6.4998154640e+00    4.2131300688e-06
    6.5999894142e+00    4.4979001359e-06
    6.6999702454e+00    4.7912699301e-06
    6.7999505997e+00    5.0938501772e-06
    6.8999319077e+00    5.4056499721e-06
    6.9999132156e+00    5.7267998272e-06
    7.0998940468e+00    6.0571001086e-06
    7.1998748779e+00    6.3965298978e-06
    7.2998557091e+00    6.7451201176e-06
    7.3998365402e+00    7.1029598985e-06
    7.4998173714e+00    7.4701401900e-06
    7.5999917984e+00    7.8476496128e-06
    7.6999726295e+00    8.2342803580e-06
    7.7999534607e+00    8.6311301857e-06
    7.8999342918e+00    9.0383900897e-06
    7.9999155998e+00    9.4564502433e-06
    8.0998964310e+00    9.8857099147e-06
    8.1998767853e+00    1.0326400115e-05
    8.2998580933e+00    1.0778800061e-05
    8.3998880386e+00    1.1243099834e-05
    8.4998693466e+00    1.1719100257e-05
    8.5998497009e+00    1.2207299733e-05
    8.6998310089e+00    1.2707900169e-05
    8.7998123169e+00    1.3220799701e-05
    8.8999862671e+00    1.3746799596e-05
    8.9999666214e+00    1.4283899873e-05
    9.0999479294e+00    1.4833000023e-05
    9.1999282837e+00    1.5394300135e-05
    9.2999095917e+00    1.5967600120e-05
    9.3999519348e+00    1.6553200112e-05
    9.4999074936e+00    1.7150299755e-05
    9.5998830795e+00    1.7759599359e-05
    9.6999139786e+00    1.8381100745e-05
    9.7998952866e+00    1.9013999918e-05
    9.8999872208e+00    1.9659299141e-05
    9.9999685287e+00    2.0315299480e-05
    1.0099983215e+01    2.0983099603e-05
    1.0199975014e+01    2.1662099243e-05
    1.0299956322e+01    2.2352400265e-05
    1.0399936676e+01    2.3053800760e-05
    1.0499917984e+01    2.3766300728e-05
    1.0599899292e+01    2.4490000214e-05
    1.0699864388e+01    2.5224500860e-05
    1.0799910545e+01    2.5970399292e-05
    1.0899917603e+01    2.6726800570e-05
    1.0999970436e+01    2.7494399546e-05
    1.1099864006e+01    2.8271499104e-05
    1.1199980736e+01    2.9061100577e-05
    1.1299835205e+01    2.9859300412e-05
    1.1399992943e+01    3.0670598790e-05
    1.1499871254e+01    3.1490100810e-05
    1.1599942207e+01    3.2321800973e-05
    1.1699864388e+01    3.3162999898e-05
    1.1799834251e+01    3.4015298297e-05
    1.1899873734e+01    3.4878801671e-05
    1.1999855042e+01    3.5752498661e-05
    1.2099854469e+01    3.6637000449e-05
    1.2199934959e+01    3.7532998249e-05
    1.2299835205e+01    3.8438098272e-05
    1.2400009155e+01    3.9356400521e-05
    1.2499894142e+01    4.0283000999e-05
    1.2599875450e+01    4.1221301217e-05
    1.2699855804e+01    4.2170799134e-05
    1.2799965858e+01    4.3132498831e-05
    1.2899947166e+01    4.4104199333e-05
    1.2999929428e+01    4.5087101171e-05
    1.3099960327e+01    4.6081800974e-05
    1.3199871063e+01    4.7086599807e-05
    1.3299901962e+01    4.8104200687e-05
    1.3399874687e+01    4.9132799177e-05
    1.3500013351e+01    5.0174898206e-05
    1.3599948883e+01    5.1226601499e-05
    1.3699834824e+01    5.2289698942e-05
    1.3799953461e+01    5.3367399232e-05
    1.3899933815e+01    5.4455700592e-05
    1.3999915123e+01    5.5556400184e-05
    1.4099896431e+01    5.6669399783e-05
    1.4199888229e+01    5.7795001339e-05
    1.4299868584e+01    5.8933099353e-05
    1.4399849892e+01    6.0083901190e-05
    1.4500000000e+01    6.1249600549e-05
    1.4599981308e+01    6.2426399381e-05
    1.4699961662e+01    6.3616302214e-05
    1.4799942970e+01    6.4819498220e-05
    1.4899949074e+01    6.6036402131e-05
    1.4999968529e+01    6.7266999395e-05
    1.5099892616e+01    6.8510002166e-05
    1.5199966431e+01    6.9768801040e-05
    1.5299855232e+01    7.1039103204e-05
    1.5399835587e+01    7.2324502980e-05
    1.5499872208e+01    7.3624898505e-05
    1.5599851608e+01    7.4938798207e-05
    1.5699954987e+01    7.6268603152e-05
    1.5799936295e+01    7.7611097367e-05
    1.5899939537e+01    7.8968398157e-05
    1.5999930382e+01    8.0339697888e-05
    1.6099920273e+01    8.1725600467e-05
    1.6199848175e+01    8.3124999946e-05
    1.6299987793e+01    8.4541898104e-05
    1.6400001526e+01    8.5971303633e-05
    1.6499929428e+01    8.7413900474e-05
    1.6599838257e+01    8.8870801846e-05
    1.6700016022e+01    9.0346096840e-05
    1.6799911499e+01    9.1831898317e-05
    1.6899932861e+01    9.3333903351e-05
    1.6999912262e+01    9.4849900051e-05
    1.7100021362e+01    9.6382296761e-05
    1.7199914932e+01    9.7925898444e-05
    1.7299938202e+01    9.9486002000e-05
    1.7399885178e+01    1.0106000263e-04
    1.7499942780e+01    1.0264899902e-04
    1.7599973679e+01    1.0425299843e-04
    1.7699937820e+01    1.0587099678e-04
    1.7799867630e+01    1.0750300135e-04
    1.7899997711e+01    1.0915200255e-04
    1.7999948502e+01    1.1081399862e-04
    1.8099880219e+01    1.1249099771e-04
    1.8200000763e+01    1.1418500071e-04
    1.8299980164e+01    1.1589199858e-04
    1.8399932861e+01    1.1761300266e-04
    1.8499965668e+01    1.1934999930e-04
    1.8599903107e+01    1.2109999807e-04
    1.8699882507e+01    1.2286599667e-04
    1.8799877167e+01    1.2464600150e-04
    1.8899856567e+01    1.2644099479e-04
    1.9000017166e+01    1.2825499289e-04
    1.9099855423e+01    1.3007699454e-04
    1.9199947357e+01    1.3191800099e-04
    1.9299928665e+01    1.3377200230e-04
    1.9399908066e+01    1.3564100664e-04
    1.9500028610e+01    1.3752799714e-04
    1.9599920273e+01    1.3942399528e-04
    1.9700027466e+01    1.4134000230e-04
    1.9800006866e+01    1.4326900418e-04
    1.9899984360e+01    1.4521200501e-04
    1.9999956131e+01    1.4716900478e-04
    2.0100036621e+01    1.4914499479e-04
    2.0199945450e+01    1.5113099653e-04
    2.0299924850e+01    1.5313499898e-04
    2.0399900436e+01    1.5515300038e-04
    2.0499975204e+01    1.5718900249e-04
    2.0600008011e+01    1.5923900355e-04
    2.0699981689e+01    1.6130300355e-04
    2.0799993515e+01    1.6338400019e-04
    2.0899972916e+01    1.6547999985e-04
    2.0999952316e+01    1.6759100254e-04
    2.1099929810e+01    1.6971900186e-04
    2.1199909210e+01    1.7186299374e-04
    2.1299888611e+01    1.7402300728e-04
    2.1399866104e+01    1.7620000290e-04
    2.1500028610e+01    1.7839699285e-04
    2.1600006104e+01    1.8060700677e-04
    2.1699985504e+01    1.8283400277e-04
    2.1799964905e+01    1.8507700588e-04
    2.1899942398e+01    1.8733799516e-04
    2.1999921799e+01    1.8961699971e-04
    2.2099901199e+01    1.9191300089e-04
    2.2199878693e+01    1.9422700279e-04
    2.2300039291e+01    1.9656300719e-04
    2.2400018692e+01    1.9891400007e-04
    2.2499998093e+01    2.0128200413e-04
    2.2599977493e+01    2.0367000252e-04
    2.2699956894e+01    2.0607600163e-04
    2.2799934387e+01    2.0850199508e-04
    2.2899913788e+01    2.1094699332e-04
    2.2999891281e+01    2.1341099637e-04
    2.3099870682e+01    2.1589599783e-04
    2.3200031281e+01    2.1840499539e-04
    2.3300033569e+01    2.2093100415e-04
    2.3399997711e+01    2.2347600316e-04
    2.3499977112e+01    2.2604300466e-04
    2.3599956512e+01    2.2863100457e-04
    2.3699935913e+01    2.3124100699e-04
    2.3799913406e+01    2.3387299734e-04
    2.3899892807e+01    2.3652700474e-04
    2.4000053406e+01    2.3920899548e-04
    2.4100032806e+01    2.4190799741e-04
    2.4200010300e+01    2.4463099544e-04
    2.4299989700e+01    2.4737798958e-04
    2.4399969101e+01    2.5014800485e-04
    2.4499948502e+01    2.5294299121e-04
    2.4599925995e+01    2.5576198823e-04
    2.4699905396e+01    2.5860601454e-04
    2.4799894333e+01    2.6147699100e-04
    2.4900014877e+01    2.6437701308e-04
    2.4999992371e+01    2.6729900856e-04
    2.5099971771e+01    2.7024801238e-04
    2.5199951172e+01    2.7322501410e-04
    2.5300046921e+01    2.7623199276e-04
    2.5400009155e+01    2.7926400071e-04
    2.5499988556e+01    2.8232499608e-04
    2.5599939346e+01    2.8541299980e-04
    2.5699916840e+01    2.8853298863e-04
    2.5799896240e+01    2.9168100446e-04
    2.5900056839e+01    2.9486601125e-04
    2.5999889374e+01    2.9807200190e-04
    2.6100048065e+01    3.0131899985e-04
    2.6200027466e+01    3.0459198751e-04
    2.6299972534e+01    3.0789599987e-04
    2.6399951935e+01    3.1123400549e-04
    2.6499929428e+01    3.1460498576e-04
    2.6599908829e+01    3.1800998840e-04
    2.6700002670e+01    3.2145399018e-04
    2.6799957275e+01    3.2492700848e-04
    2.6899894714e+01    3.2843698864e-04
    2.7000055313e+01    3.3199001336e-04
    2.7100034714e+01    3.3557298593e-04
    2.7200012207e+01    3.3919399721e-04
    2.7299900055e+01    3.4284999128e-04
    2.7400028229e+01    3.4655400668e-04
    2.7500005722e+01    3.5029099672e-04
    2.7599899292e+01    3.5406500683e-04
    2.7700059891e+01    3.5789000685e-04
    2.7799909592e+01    3.6174501292e-04
    2.7899888992e+01    3.6564699258e-04
    2.7999937057e+01    3.6959399586e-04
    2.8099987030e+01    3.7358599366e-04
    2.8200065613e+01    3.7762298598e-04
    2.8300045013e+01    3.8170098560e-04
    2.8400022507e+01    3.8582499838e-04
    2.8499893188e+01    3.8999100798e-04
    2.8600055695e+01    3.9421799011e-04
    2.8700033188e+01    3.9848499000e-04
    2.8799894333e+01    4.0279701352e-04
    2.8900005341e+01    4.0717000957e-04
    2.8999940872e+01    4.1158701060e-04
    2.9099918365e+01    4.1605898878e-04
    2.9199945450e+01    4.2058501276e-04
    2.9300001144e+01    4.2516799294e-04
    2.9399980545e+01    4.2980199214e-04
    2.9499975204e+01    4.3449300574e-04
    2.9600055695e+01    4.3924601050e-04
    2.9699905396e+01    4.4404598884e-04
    2.9800067902e+01    4.4892099686e-04
    2.9899921417e+01    4.5384198893e-04
    2.9999914169e+01    4.5883198618e-04
    3.0100076675e+01    4.6389299678e-04
    3.0199974060e+01    4.6900598682e-04
    3.0299974442e+01    4.7418900067e-04
    3.0399929047e+01    4.7943700338e-04
    3.0499931335e+01    4.8475599033e-04
    3.0600036621e+01    4.9014901742e-04
    3.0699972153e+01    4.9560400657e-04
    3.0800075531e+01    5.0114002079e-04
    3.0900054932e+01    5.0674198428e-04
    3.0999954224e+01    5.1241501933e-04
    3.1100013733e+01    5.1817297935e-04
    3.1200025558e+01    5.2400602726e-04
    3.1299922943e+01    5.2991101984e-04
    3.1400070190e+01    5.3591100732e-04
    3.1500078201e+01    5.4198497673e-04
    3.1600004196e+01    5.4813700262e-04
    3.1699998856e+01    5.5437802803e-04
    3.1800037384e+01    5.6070799474e-04
    3.1899921417e+01    5.6711601792e-04
    3.1999902725e+01    5.7361897780e-04
    3.2099964142e+01    5.8021798031e-04
    3.2200077057e+01    5.8691197773e-04
    3.2299949646e+01    5.9368397342e-04
    3.2399917603e+01    6.0055701761e-04
    3.2500072479e+01    6.0753902653e-04
    3.2599998474e+01    6.1460299185e-04
    3.2699977875e+01    6.2176998472e-04
    3.2799968719e+01    6.2903802609e-04
    3.2900005341e+01    6.3641101588e-04
    3.2999874115e+01    6.4387399470e-04
    3.3100028992e+01    6.5146299312e-04
    3.3200046539e+01    6.5914797597e-04
    3.3300052643e+01    6.6693802364e-04
    3.3399971008e+01    6.7482999293e-04
    3.3499958038e+01    6.8283698056e-04
    3.3599884033e+01    6.9094897481e-04
    3.3700042725e+01    6.9919298403e-04
    3.3800022125e+01    7.0753501495e-04
    3.3899982452e+01    7.1599002695e-04
    3.3999961853e+01    7.2456401540e-04
    3.4099906921e+01    7.3325098492e-04
    3.4199863434e+01    7.4205902638e-04
    3.4299995422e+01    7.5100397225e-04
    3.4399978638e+01    7.6005700976e-04
    3.4499958038e+01    7.6923397137e-04
    3.4599891663e+01    7.7853200492e-04
    3.4699867249e+01    7.8796199523e-04
    3.4799888611e+01    7.9752499005e-04
    3.4899871826e+01    8.0721697304e-04
    3.5000011444e+01    8.1705697812e-04
    3.5100013733e+01    8.2701997599e-04
    3.5199993134e+01    8.3711999469e-04
    3.5299972534e+01    8.4736000281e-04
    3.5399955750e+01    8.5774401668e-04
    3.5499889374e+01    8.6826900952e-04
    3.5599948883e+01    8.7895599427e-04
    3.5699882507e+01    8.8978098938e-04
    3.5799861908e+01    9.0076698689e-04
    3.5900005341e+01    9.1211899417e-04
    3.5999912262e+01    9.2354201479e-04
    3.6099929810e+01    9.3501398806e-04
    3.6199874878e+01    9.4626500504e-04
    3.6299968719e+01    9.5743400743e-04
    3.6399852753e+01    9.6856098389e-04
    3.6499935150e+01    9.7926601302e-04
    3.6599956512e+01    9.8968902603e-04
    3.6699970245e+01    9.9974998739e-04
    3.6799850464e+01    1.0089300340e-03
    3.6899940491e+01    1.0173199698e-03
    3.6999992371e+01    1.0247599566e-03
    3.7100002289e+01    1.0312800296e-03
    3.7199901581e+01    1.0364199989e-03
    3.7299877167e+01    1.0404699715e-03
    3.7399986267e+01    1.0433699936e-03
    3.7499965668e+01    1.0451700073e-03
    3.7599887848e+01    1.0457199533e-03
    3.7699951172e+01    1.0451499838e-03
    3.7799861908e+01    1.0431900155e-03
    3.7899845123e+01    1.0394400451e-03
    3.7999931335e+01    1.0339099681e-03
    3.8099819183e+01    1.0270900093e-03
    3.8199821472e+01    1.0183800478e-03
    3.8299938202e+01    1.0073600570e-03
    3.8399887085e+01    9.9420605693e-04
    3.8499931335e+01    9.7897904925e-04
    3.8599960327e+01    9.6158299129e-04
    3.8699878693e+01    9.4188598450e-04
    3.8799839020e+01    9.1999600409e-04
    3.8899787903e+01    8.9531100821e-04
    3.8999862671e+01    8.6819299031e-04
    3.9099895477e+01    8.3874701522e-04
    3.9199871063e+01    8.0688897287e-04
    3.9299812317e+01    7.7194097685e-04
    3.9399883270e+01    7.3412497295e-04
    3.9499889374e+01    6.9390801946e-04
    3.9599948883e+01    6.5068498952e-04
    3.9699947357e+01    6.0444499832e-04
    3.9799804688e+01    5.5506697390e-04
    3.9899841309e+01    5.0241698045e-04
    3.9999847412e+01    4.4637400424e-04
    4.0099864960e+01    3.8722399040e-04
    4.0199844360e+01    3.2449999708e-04
    4.0299919128e+01    2.5755399838e-04
    4.0399860382e+01    1.8661399372e-04
    4.0499847412e+01    1.1249499948e-04
    4.0599826813e+01    3.4600499930e-05
    4.0699848175e+01   -4.6868699428e-05
    4.0799789429e+01   -1.3201100228e-04
    4.0899753571e+01   -2.2158099455e-04
    4.0999816895e+01   -3.1537300674e-04
    4.1099906921e+01   -4.1305500781e-04
    4.1199794769e+01   -5.1467097364e-04
    4.1299789429e+01   -6.2106602127e-04
    4.1399856567e+01   -7.3168397648e-04
    4.1499874115e+01   -8.4641599096e-04
    4.1599918365e+01   -9.6563500119e-04
    4.1699871063e+01   -1.0899800109e-03
    4.1799789429e+01   -1.2188600376e-03
    4.1899768829e+01   -1.3526000548e-03
    4.1999748230e+01   -1.4913800405e-03
    4.2099876404e+01   -1.6348200152e-03
    4.2199825287e+01   -1.7833800521e-03
    4.2299831390e+01   -1.9369199872e-03
    4.2399902344e+01   -2.0959000103e-03
    4.2499835968e+01   -2.2595699411e-03
    4.2599895477e+01   -2.4288399145e-03
    4.2699897766e+01   -2.6032999158e-03
    4.2799755096e+01   -2.7830800973e-03
    4.2899871826e+01   -2.9683900066e-03
    4.2999797821e+01   -3.1589900609e-03
    4.3099773407e+01   -3.3557200804e-03
    4.3199787140e+01   -3.5579300020e-03
    4.3299762726e+01   -3.7657800131e-03
    4.3399868011e+01   -3.9797099307e-03
    4.3499851227e+01   -4.1991900653e-03
    4.3599819183e+01   -4.4245198369e-03
    4.3699810028e+01   -4.6561001800e-03
    4.3799842834e+01   -4.8935301602e-03
    4.3899837494e+01   -5.1366798580e-03
    4.3999881744e+01   -5.3861001506e-03
    4.4099723816e+01   -5.6416601874e-03
    4.4199779510e+01   -5.9037799947e-03
    4.4299884796e+01   -6.1720297672e-03
    4.4399761200e+01   -6.4459298737e-03
    4.4499713898e+01   -6.7265299149e-03
    4.4599727631e+01   -7.0134601556e-03
    4.4699817657e+01   -7.3075401597e-03
    4.4799774170e+01   -7.6082497835e-03
    4.4899879456e+01   -7.9154903069e-03
    4.4999774933e+01   -8.2290302962e-03
    4.5099830627e+01   -8.5498895496e-03
    4.5199764252e+01   -8.8767502457e-03
    4.5299785614e+01   -9.2103201896e-03
    4.5399765015e+01   -9.5506496727e-03
    4.5499809265e+01   -9.8980003968e-03
    4.5599861145e+01   -1.0251799598e-02
    4.5699783325e+01   -1.0612100363e-02
    4.5799854279e+01   -1.0979499668e-02
    4.5899833679e+01   -1.1353800073e-02
    4.5999687195e+01   -1.1734399945e-02
    4.6099723816e+01   -1.2122499757e-02
    4.6199859619e+01   -1.2518100441e-02
    4.6299827576e+01   -1.2919900008e-02
    4.6399806976e+01   -1.3328700326e-02
    4.6499839783e+01   -1.3745400123e-02
    4.6599693298e+01   -1.4168200083e-02
    4.6699810028e+01   -1.4598400332e-02
    4.6799777985e+01   -1.5035700053e-02
    4.6899837494e+01   -1.5479800291e-02
    4.6999725342e+01   -1.5929900110e-02
    4.7099784851e+01   -1.6387900338e-02
    4.7199775696e+01   -1.6853200272e-02
    4.7299766541e+01   -1.7325300723e-02
    4.7399726868e+01   -1.7804300413e-02
    4.7499774933e+01   -1.8290700391e-02
    4.7599731445e+01   -1.8783699721e-02
    4.7699722290e+01   -1.9283600152e-02
    4.7799648285e+01   -1.9790099934e-02
    4.7899707794e+01   -2.0304700360e-02
    4.7999797821e+01   -2.0826399326e-02
    4.8099727631e+01   -2.1354699507e-02
    4.8199733734e+01   -2.1890500560e-02
    4.8299663544e+01   -2.2432599217e-02
    4.8399677277e+01   -2.2981500253e-02
    4.8499725342e+01   -2.3538099602e-02
    4.8599727631e+01   -2.4101600051e-02
    4.8699775696e+01   -2.4672400206e-02
    4.8799686432e+01   -2.5249399245e-02
    4.8899677277e+01   -2.5833699852e-02
    4.8999771118e+01   -2.6425899938e-02
    4.9099792480e+01   -2.7024399489e-02
    4.9199817657e+01   -2.7630200610e-02
    4.9299808502e+01   -2.8242299333e-02
    4.9399662018e+01   -2.8860300779e-02
    4.9499790192e+01   -2.9487000778e-02
    4.9599681854e+01   -3.0119700357e-02
    4.9699657440e+01   -3.0759600922e-02
    4.9799659729e+01   -3.1406700611e-02
    4.9899795532e+01   -3.2061599195e-02
    4.9999782562e+01   -3.2722000033e-02
    5.0099796295e+01   -3.3389799297e-02
    5.0199726105e+01   -3.4063801169e-02
    5.0299797058e+01   -3.4745499492e-02
    5.0399623871e+01   -3.5431999713e-02
    5.0499649048e+01   -3.6127101630e-02
    5.0599761963e+01   -3.6829199642e-02
    5.0699638367e+01   -3.7536799908e-02
    5.0799739838e+01   -3.8252901286e-02
    5.0899772644e+01   -3.8975100964e-02
    5.0999698639e+01   -3.9703100920e-02
    5.1099632263e+01   -4.0437601507e-02
    5.1199668884e+01   -4.1179500520e-02
    5.1299633026e+01   -4.1927900165e-02
    5.1399646759e+01   -4.2683798820e-02
    5.1499671936e+01   -4.3446499854e-02
    5.1599651337e+01   -4.4215198606e-02
    5.1699649811e+01   -4.4990900904e-02
    5.1799671173e+01   -4.5773699880e-02
    5.1899639130e+01   -4.6562798321e-02
    5.1999626160e+01   -4.7358300537e-02
    5.2099639893e+01   -4.8161000013e-02
    5.2199745178e+01   -4.8970799893e-02
    5.2299678802e+01   -4.9786001444e-02
    5.2399589539e+01   -5.0607699901e-02
    5.2499759674e+01   -5.1438000053e-02
    5.2599597931e+01   -5.2271500230e-02
    5.2699668884e+01   -5.3114399314e-02
    5.2799655914e+01   -5.3963601589e-02
    5.2899662018e+01   -5.4819900542e-02
    5.2999603271e+01   -5.5682599545e-02
    5.3099624634e+01   -5.6552499533e-02
    5.3199623108e+01   -5.7428799570e-02
    5.3299636841e+01   -5.8312401175e-02
    5.3399600983e+01   -5.9202298522e-02
    5.3499710083e+01   -6.0100100935e-02
    5.3599742889e+01   -6.1003901064e-02
    5.3699676514e+01   -6.1913501471e-02
    5.3799709320e+01   -6.2831096351e-02
    5.3899555206e+01   -6.3753999770e-02
    5.3999679565e+01   -6.4686499536e-02
    5.4099689484e+01   -6.5624900162e-02
    5.4199588776e+01   -6.6569201648e-02
    5.4299640656e+01   -6.7521803081e-02
    5.4399639130e+01   -6.8481802940e-02
    5.4499584198e+01   -6.9448597729e-02
    5.4599617004e+01   -7.0423401892e-02
    5.4699565887e+01   -7.1404799819e-02
    5.4799556732e+01   -7.2393797338e-02
    5.4899669647e+01   -7.3391400278e-02
    5.4999721527e+01   -7.4395798147e-02
    5.5099643707e+01   -7.5406298041e-02
    5.5199588776e+01   -7.6424099505e-02
    5.5299591064e+01   -7.7450700104e-02
    5.5399711609e+01   -7.8486099839e-02
    5.5499553680e+01   -7.9526200891e-02
    5.5599632263e+01   -8.0576598644e-02
    5.5699630737e+01   -8.1634297967e-02
    5.5799583435e+01   -8.2699596882e-02
    5.5899547577e+01   -8.3773098886e-02
    5.5999694824e+01   -8.4856897593e-02
    5.6099651337e+01   -8.5946798325e-02
    5.6199661255e+01   -8.7045803666e-02
    5.6299644470e+01   -8.8153600693e-02
    5.6399620056e+01   -8.9270003140e-02
    5.6499561310e+01   -9.0394601226e-02
    5.6599605560e+01   -9.1528996825e-02
    5.6699676514e+01   -9.2672802508e-02
    5.6799694061e+01   -9.3824900687e-02
    5.6899581909e+01   -9.4985499978e-02
    5.6999664307e+01   -9.6157200634e-02
    5.7099521637e+01   -9.7335800529e-02
    5.7199573517e+01   -9.8526701331e-02
    5.7299652100e+01   -9.9728003144e-02
    5.7399566650e+01   -1.0093799978e-01
    5.7499534607e+01   -1.0215800256e-01
    5.7599613190e+01   -1.0339099914e-01
    5.7699516296e+01   -1.0463099927e-01
    5.7799560547e+01   -1.0588499904e-01
    5.7899559021e+01   -1.0714899749e-01
    5.7999599457e+01   -1.0842499882e-01
    5.8099552155e+01   -1.0971099883e-01
    5.8199630737e+01   -1.1101000011e-01
    5.8299621582e+01   -1.1231999844e-01
    5.8399654388e+01   -1.1364299804e-01
    5.8499538422e+01   -1.1497499794e-01
    5.8599605560e+01   -1.1632200330e-01
    5.8699657440e+01   -1.1768300086e-01
    5.8799510956e+01   -1.1905299872e-01
    5.8899635315e+01   -1.2043999881e-01
    5.8999519348e+01   -1.2183800340e-01
    5.9099487305e+01   -1.2325000018e-01
    5.9199577332e+01   -1.2467899919e-01
    5.9299533844e+01   -1.2612000108e-01
    5.9399608612e+01   -1.2757700682e-01
    5.9499652863e+01   -1.2904700637e-01
    5.9599491119e+01   -1.3053099811e-01
    5.9699481964e+01   -1.3203200698e-01
    5.9799549103e+01   -1.3355000317e-01
    5.9899513245e+01   -1.3508200645e-01
    5.9999534607e+01   -1.3663099706e-01
    6.0099594116e+01   -1.3819700480e-01
    6.0199577332e+01   -1.3977900147e-01
    6.0299568176e+01   -1.4137800038e-01
    6.0399543762e+01   -1.4299499989e-01
    6.0499511719e+01   -1.4463000000e-01
    6.0599643707e+01   -1.4628599584e-01
    6.0699474335e+01   -1.4795500040e-01
    6.0799583435e+01   -1.4964699745e-01
    6.0899547577e+01   -1.5135599673e-01
    6.0999534607e+01   -1.5308499336e-01
    6.1099555969e+01   -1.5483500063e-01
    6.1199542999e+01   -1.5660400689e-01
    6.1299617767e+01   -1.5839500725e-01
    6.1399463654e+01   -1.6020399332e-01
    6.1499565125e+01   -1.6203799844e-01
    6.1599567413e+01   -1.6389200091e-01
    6.1699474335e+01   -1.6576600075e-01
    6.1799495697e+01   -1.6766500473e-01
    6.1899528503e+01   -1.6958700120e-01
    6.1999446869e+01   -1.7152899504e-01
    6.2099456787e+01   -1.7349800467e-01
    6.2199558258e+01   -1.7549300194e-01
    6.2299568176e+01   -1.7750999331e-01
    6.2399612427e+01   -1.7955300212e-01
    6.2499542236e+01   -1.8161800504e-01
    6.2599494934e+01   -1.8370999396e-01
    6.2699443817e+01   -1.8582700193e-01
    6.2799594879e+01   -1.8797500432e-01
    6.2899475098e+01   -1.9014400244e-01
    6.2999519348e+01   -1.9234399498e-01
    6.3099605560e+01   -1.9457300007e-01
    6.3199459076e+01   -1.9682499766e-01
    6.3299411774e+01   -1.9910800457e-01
    6.3399559021e+01   -2.0142400265e-01
    6.3499523163e+01   -2.0376500487e-01
    6.3599521637e+01   -2.0613700151e-01
    6.3699451447e+01   -2.0853699744e-01
    6.3799533844e+01   -2.1097199619e-01
    6.3899539948e+01   -2.1343599260e-01
    6.3999584198e+01   -2.1593299508e-01
    6.4099525452e+01   -2.1845899522e-01
    6.4199478149e+01   -2.2101800144e-01
    6.4299552917e+01   -2.2361299396e-01
    6.4399475098e+01   -2.2623699903e-01
    6.4499519348e+01   -2.2889800370e-01
    6.4599403381e+01   -2.3158900440e-01
    6.4699531555e+01   -2.3432099819e-01
    6.4799514771e+01   -2.3708499968e-01
    6.4899421692e+01   -2.3988200724e-01
    6.4999511719e+01   -2.4271999300e-01
    6.5099388123e+01   -2.4558800459e-01
    6.5199470520e+01   -2.4849900603e-01
    6.5299415588e+01   -2.5144401193e-01
    6.5399490356e+01   -2.5443100929e-01
    6.5499557495e+01   -2.5745600462e-01
    6.5599426270e+01   -2.6051399112e-01
    6.5699501038e+01   -2.6361700892e-01
    6.5799392700e+01   -2.6675298810e-01
    6.5899444580e+01   -2.6993501186e-01
    6.5999542236e+01   -2.7315899730e-01
    6.6099433899e+01   -2.7641800046e-01
    6.6199401855e+01   -2.7972000837e-01
    6.6299415588e+01   -2.8306698799e-01
    6.6399406433e+01   -2.8645500541e-01
    6.6499473572e+01   -2.8988900781e-01
    6.6599479675e+01   -2.9336300492e-01
    6.6699409485e+01   -2.9687899351e-01
    6.6799362183e+01   -3.0044099689e-01
    6.6899520874e+01   -3.0405500531e-01
    6.6999542236e+01   -3.0770999193e-01
    6.7099487305e+01   -3.1140801311e-01
    6.7199432373e+01   -3.1515198946e-01
    6.7299407959e+01   -3.1894400716e-01
    6.7399467468e+01   -3.2278698683e-01
    6.7499427795e+01   -3.2667401433e-01
    6.7599449158e+01   -3.3061200380e-01
    6.7699348450e+01   -3.3459401131e-01
    6.7799346924e+01   -3.3862999082e-01
    6.7899383545e+01   -3.4271800518e-01
    6.7999496460e+01   -3.4685900807e-01
    6.8099494934e+01   -3.5104799271e-01
    6.8199501038e+01   -3.5528901219e-01
    6.8299461365e+01   -3.5958001018e-01
    6.8399467468e+01   -3.6392700672e-01
    6.8499366760e+01   -3.6832299829e-01
    6.8599411011e+01   -3.7277999520e-01
    6.8699485779e+01   -3.7729498744e-01
    6.8799461365e+01   -3.8185998797e-01
    6.8899467468e+01   -3.8648501039e-01
    6.8999481201e+01   -3.9116799831e-01
    6.9099441528e+01   -3.9590498805e-01
    6.9199386597e+01   -4.0070199966e-01
    6.9299339294e+01   -4.0555799007e-01
    6.9399459839e+01   -4.1048300266e-01
    6.9499504089e+01   -4.1546499729e-01
    6.9599388123e+01   -4.2050200701e-01
    6.9699447632e+01   -4.2561098933e-01
    6.9799484253e+01   -4.3078300357e-01
    6.9899360657e+01   -4.3601199985e-01
    6.9999504089e+01   -4.4132098556e-01
    7.0099334717e+01   -4.4667899609e-01
    7.0199325562e+01   -4.5211398602e-01
    7.0299339294e+01   -4.5761999488e-01
    7.0399330139e+01   -4.6319401264e-01
    7.0499435425e+01   -4.6884500980e-01
    7.0599441528e+01   -4.7456198931e-01
    7.0699386597e+01   -4.8034900427e-01
    7.0799461365e+01   -4.8621800542e-01
    7.0899307251e+01   -4.9214699864e-01
    7.0999343872e+01   -4.9816399813e-01
    7.1099433899e+01   -5.0426197052e-01
    7.1199310303e+01   -5.1042598486e-01
    7.1299446106e+01   -5.1668399572e-01
    7.1399353027e+01   -5.2300900221e-01
    7.1499382019e+01   -5.2942401171e-01
    7.1599472046e+01   -5.3592598438e-01
    7.1699440002e+01   -5.4250401258e-01
    7.1799453735e+01   -5.4917097092e-01
    7.1899391174e+01   -5.5591797829e-01
    7.1999305725e+01   -5.6275200844e-01
    7.2099365234e+01   -5.6968599558e-01
    7.2199279785e+01   -5.7670098543e-01
    7.2299362183e+01   -5.8381897211e-01
    7.2399421692e+01   -5.9102898836e-01
    7.2499343872e+01   -5.9832197428e-01
    7.2599281311e+01   -6.0571199656e-01
    7.2699371338e+01   -6.1321002245e-01
    7.2799430847e+01   -6.2080401182e-01
    7.2899330139e+01   -6.2848502398e-01
    7.2999328613e+01   -6.3627499342e-01
    7.3099281311e+01   -6.4416402578e-01
    7.3199447632e+01   -6.5217500925e-01
    7.3299385071e+01   -6.6027098894e-01
    7.3399375916e+01   -6.6847902536e-01
    7.3499298096e+01   -6.7678898573e-01
    7.3599441528e+01   -6.8522697687e-01
    7.3699272156e+01   -6.9375002384e-01
    7.3799293518e+01   -7.0240098238e-01
    7.3899391174e+01   -7.1117299795e-01
    7.3999343872e+01   -7.2004997730e-01
    7.4099380493e+01   -7.2904998064e-01
    7.4199317932e+01   -7.3816102743e-01
    7.4299346924e+01   -7.4739998579e-01
    7.4399353027e+01   -7.5675898790e-01
    7.4499252319e+01   -7.6623398066e-01
    7.4599349976e+01   -7.7585500479e-01
    7.4699424744e+01   -7.8560197353e-01
    7.4799247742e+01   -7.9545497894e-01
    7.4899391174e+01   -8.0547201633e-01
    7.4999412537e+01   -8.1561201811e-01
    7.5099334717e+01   -8.2587802410e-01
    7.5199378967e+01   -8.3629500866e-01
    7.5299324036e+01   -8.4684199095e-01
    7.5399322510e+01   -8.5753798485e-01
    7.5499290466e+01   -8.6837601662e-01
    7.5599227905e+01   -8.7935698032e-01
    7.5699249268e+01   -8.9049500227e-01
    7.5799346924e+01   -9.0179502964e-01
    7.5899307251e+01   -9.1323298216e-01
    7.5999336243e+01   -9.2483699322e-01
    7.6099281311e+01   -9.3658697605e-01
    7.6199226379e+01   -9.4850099087e-01
    7.6299293518e+01   -9.6059399843e-01
    7.6399330139e+01   -9.7284901142e-01
    7.6499252319e+01   -9.8526000977e-01
    7.6599395752e+01   -9.9787098169e-01
    7.6699302673e+01   -1.0106300116e+00
    7.6799316406e+01   -1.0235799551e+00
    7.6899299622e+01   -1.0367000103e+00
    7.6999275208e+01   -1.0500099659e+00
    7.7099327087e+01   -1.0635199547e+00
    7.7199363708e+01   -1.0772099495e+00
    7.7299240112e+01   -1.0910799503e+00
    7.7399230957e+01   -1.1051499844e+00
    7.7499382019e+01   -1.1194499731e+00
    7.7599212646e+01   -1.1339099407e+00
    7.7699317932e+01   -1.1486099958e+00
    7.7799308777e+01   -1.1634999514e+00
    7.7899299622e+01   -1.1786099672e+00
    7.7999259949e+01   -1.1939200163e+00
    7.8099372864e+01   -1.2094899416e+00
    7.8199226379e+01   -1.2252299786e+00
    7.8299278259e+01   -1.2412300110e+00
    7.8399345398e+01   -1.2574599981e+00
    7.8499374390e+01   -1.2739200592e+00
    7.8599197388e+01   -1.2905700207e+00
    7.8699287415e+01   -1.3075000048e+00
    7.8799240112e+01   -1.3246300220e+00
    7.8899223328e+01   -1.3419799805e+00
    7.8999237061e+01   -1.3595499992e+00
    7.9099281311e+01   -1.3773399591e+00
    7.9199264526e+01   -1.3953100443e+00
    7.9299247742e+01   -1.4134800434e+00
    7.9399192810e+01   -1.4318300486e+00
    7.9499221802e+01   -1.4503799677e+00
    7.9599281311e+01   -1.4691300392e+00
    7.9699272156e+01   -1.4880499840e+00
    7.9799339294e+01   -1.5071699619e+00
    7.9899269104e+01   -1.5264699459e+00
    7.9999191284e+01   -1.5459699631e+00
    8.0099250793e+01   -1.5657199621e+00
    8.0199195862e+01   -1.5856699944e+00
    8.0299194336e+01   -1.6058700085e+00
    8.0399238586e+01   -1.6263300180e+00
    8.0499176025e+01   -1.6470199823e+00
    8.0599311829e+01   -1.6680200100e+00
    8.0699165344e+01   -1.6892199516e+00
    8.0799263000e+01   -1.7107499838e+00
    8.0899192810e+01   -1.7324999571e+00
    8.0999336243e+01   -1.7545800209e+00
    8.1099151611e+01   -1.7768399715e+00
    8.1199150085e+01   -1.7993999720e+00
    8.1299186707e+01   -1.8222099543e+00
    8.1399322510e+01   -1.8452800512e+00
    8.1499267578e+01   -1.8685300350e+00
    8.1599235535e+01   -1.8919999599e+00
    8.1699295044e+01   -1.9157099724e+00
    8.1799293518e+01   -1.9395999908e+00
    8.1899299622e+01   -1.9636800289e+00
    8.1999244690e+01   -1.9879399538e+00
    8.2099273682e+01   -2.0124099255e+00
    8.2199211121e+01   -2.0370500088e+00
    8.2299263000e+01   -2.0619099140e+00
    8.2399169922e+01   -2.0869300365e+00
    8.2499214172e+01   -2.1122000217e+00
    8.2599212646e+01   -2.1376800537e+00
    8.2699279785e+01   -2.1634099483e+00
    8.2799293518e+01   -2.1893699169e+00
    8.2899238586e+01   -2.2155499458e+00
    8.2999275208e+01   -2.2420101166e+00
    8.3099128723e+01   -2.2686700821e+00
    8.3199157715e+01   -2.2956500053e+00
    8.3299125671e+01   -2.3228700161e+00
    8.3399238586e+01   -2.3503899574e+00
    8.3499153137e+01   -2.3781099319e+00
    8.3599197388e+01   -2.4061200619e+00
    8.3699272156e+01   -2.4343700409e+00
    8.3799102783e+01   -2.4627699852e+00
    8.3899124146e+01   -2.4914400578e+00
    8.3999214172e+01   -2.5203299522e+00
    8.4099159241e+01   -2.5493700504e+00
    8.4199150085e+01   -2.5786099434e+00
    8.4299255371e+01   -2.6080698967e+00
    8.4399101257e+01   -2.6376199722e+00
    8.4499107361e+01   -2.6673998833e+00
    8.4599250793e+01   -2.6974000931e+00
    8.4699256897e+01   -2.7275500298e+00
    8.4799224854e+01   -2.7578799725e+00
    8.4899223328e+01   -2.7884399891e+00
    8.4999206543e+01   -2.8192300797e+00
    8.5099128723e+01   -2.8502399921e+00
    8.5199150085e+01   -2.8815400600e+00
    8.5299095154e+01   -2.9130799770e+00
    8.5399192810e+01   -2.9449501038e+00
    8.5499191284e+01   -2.9770801067e+00
    8.5599205017e+01   -3.0094900131e+00
    8.5699157715e+01   -3.0421700478e+00
    8.5799095154e+01   -3.0751299858e+00
    8.5899246216e+01   -3.1084198952e+00
    8.5999191284e+01   -3.1419100761e+00
    8.6099220276e+01   -3.1756699085e+00
    8.6199089050e+01   -3.2096199989e+00
    8.6299217224e+01   -3.2438800335e+00
    8.6399238586e+01   -3.2783200741e+00
    8.6499160767e+01   -3.3129398823e+00
    8.6599182129e+01   -3.3478000164e+00
    8.6699188232e+01   -3.3828599453e+00
    8.6799110413e+01   -3.4181199074e+00
    8.6899101257e+01   -3.4535999298e+00
    8.6999191284e+01   -3.4893500805e+00
    8.7099159241e+01   -3.5252900124e+00
    8.7199157715e+01   -3.5614800453e+00
    8.7299110413e+01   -3.5978999138e+00
    8.7399154663e+01   -3.6346299648e+00
    8.7499229431e+01   -3.6716399193e+00
    8.7599128723e+01   -3.7088699341e+00
    8.7699188232e+01   -3.7464599609e+00
    8.7799064636e+01   -3.7842700481e+00
    8.7899070740e+01   -3.8224101067e+00
    8.7999122620e+01   -3.8608698845e+00
    8.8099159241e+01   -3.8996200562e+00
    8.8199165344e+01   -3.9386301041e+00
    8.8299118042e+01   -3.9779000282e+00
    8.8399032593e+01   -4.0174398422e+00
    8.8499122620e+01   -4.0573101044e+00
    8.8599128723e+01   -4.0974102020e+00
    8.8699188232e+01   -4.1377801895e+00
    8.8799118042e+01   -4.1783800125e+00
    8.8899032593e+01   -4.2192101479e+00
    8.8999153137e+01   -4.2603998184e+00
    8.9099052429e+01   -4.3017601967e+00
    8.9199134827e+01   -4.3434801102e+00
    8.9299079895e+01   -4.3854098320e+00
    8.9399177551e+01   -4.4276900291e+00
    8.9499145508e+01   -4.4702100754e+00
    8.9599090576e+01   -4.5130300522e+00
    8.9699157715e+01   -4.5562200546e+00
    8.9799018860e+01   -4.5996499062e+00
    8.9899078369e+01   -4.6434898376e+00
    8.9999183655e+01   -4.6877098083e+00
    9.0099098206e+01   -4.7321801186e+00
    9.0199127197e+01   -4.7770600319e+00
    9.0299102783e+01   -4.8222699165e+00
    9.0399101257e+01   -4.8678297997e+00
    9.0499069214e+01   -4.9137301445e+00
    9.0599182129e+01   -4.9600300789e+00
    9.0699073792e+01   -5.0065598488e+00
    9.0799018860e+01   -5.0534501076e+00
    9.0899108887e+01   -5.1007299423e+00
    9.0999076843e+01   -5.1482701302e+00
    9.1099143982e+01   -5.1961998940e+00
    9.1199012756e+01   -5.2443399429e+00
    9.1299118042e+01   -5.2929201126e+00
    9.1399162292e+01   -5.3417901993e+00
    9.1499046326e+01   -5.3909001350e+00
    9.1599029541e+01   -5.4404001236e+00
    9.1699043274e+01   -5.4902501106e+00
    9.1799110413e+01   -5.5404701233e+00
    9.1899040222e+01   -5.5909800529e+00
    9.1998985291e+01   -5.6418700218e+00
    9.2099159241e+01   -5.6932702065e+00
    9.2199096680e+01   -5.7449498177e+00
    9.2299087524e+01   -5.7970800400e+00
    9.2399154663e+01   -5.8496599197e+00
    9.2499130249e+01   -5.9026098251e+00
    9.2599159241e+01   -5.9559998512e+00
    9.2699089050e+01   -6.0097599030e+00
    9.2799064636e+01   -6.0639400482e+00
    9.2899101257e+01   -6.1185698509e+00
    9.2999107361e+01   -6.1735701561e+00
    9.3098968506e+01   -6.2288899422e+00
    9.3199089050e+01   -6.2847299576e+00
    9.3299011230e+01   -6.3408598900e+00
    9.3399131775e+01   -6.3974900246e+00
    9.3499130249e+01   -6.4544401169e+00
    9.3599021912e+01   -6.5117201805e+00
    9.3699073792e+01   -6.5694899559e+00
    9.3799064636e+01   -6.6276302338e+00
    9.3898979187e+01   -6.6861500740e+00
    9.3999092102e+01   -6.7452001572e+00
    9.4098960876e+01   -6.8045401573e+00
    9.4199020386e+01   -6.8644499779e+00
    9.4299057007e+01   -6.9247999191e+00
    9.4399078369e+01   -6.9856100082e+00
    9.4498985291e+01   -7.0468201637e+00
    9.4598953247e+01   -7.1085400581e+00
    9.4698951721e+01   -7.1707601547e+00
    9.4799095154e+01   -7.2335400581e+00
    9.4899047852e+01   -7.2966599464e+00
    9.4999023438e+01   -7.3602600098e+00
    9.5099113464e+01   -7.4243698120e+00
    9.5198982239e+01   -7.4887900352e+00
    9.5299026489e+01   -7.5537500381e+00
    9.5398956299e+01   -7.6190700531e+00
    9.5498924255e+01   -7.6848602295e+00
    9.5599044800e+01   -7.7511801720e+00
    9.5699043274e+01   -7.8178501129e+00
    9.5799049377e+01   -7.8849601746e+00
    9.5899040222e+01   -7.9525098801e+00
    9.5999092102e+01   -8.0205402374e+00
    9.6098960876e+01   -8.0889101028e+00
    9.6198951721e+01   -8.1578197479e+00
    9.6298980713e+01   -8.2272300720e+00
    9.6398971558e+01   -8.2970800400e+00
    9.6498916626e+01   -8.3673896790e+00
    9.6599067688e+01   -8.4383296967e+00
    9.6698989868e+01   -8.5095996857e+00
    9.6798934937e+01   -8.5813703537e+00
    9.6898979187e+01   -8.6537199020e+00
    9.6999046326e+01   -8.7265796661e+00
    9.7099044800e+01   -8.7998800278e+00
    9.7199020386e+01   -8.8736295700e+00
    9.7299049377e+01   -8.9479103088e+00
    9.7398963928e+01   -9.0225696564e+00
    9.7498992920e+01   -9.0977897644e+00
    9.7598976135e+01   -9.1734399796e+00
    9.7699035645e+01   -9.2495899200e+00
    9.7799026489e+01   -9.3261604309e+00
    9.7898933411e+01   -9.4031295776e+00
    9.7998893738e+01   -9.4805803299e+00
    9.8099014282e+01   -9.5586099625e+00
    9.8198966980e+01   -9.6369695663e+00
    9.8298995972e+01   -9.7158603668e+00
    9.8399063110e+01   -9.7952404022e+00
    9.8499008179e+01   -9.8749799728e+00
    9.8598922729e+01   -9.9551601410e+00
    9.8699012756e+01   -1.0036000252e+01
    9.8798919678e+01   -1.0117099762e+01
    9.8898887634e+01   -1.0198699951e+01
    9.8998947144e+01   -1.0280900002e+01
    9.9098922729e+01   -1.0363499641e+01
    9.9198905945e+01   -1.0446599960e+01
    9.9299026489e+01   -1.0530200005e+01
    9.9398887634e+01   -1.0614100456e+01
    9.9498886108e+01   -1.0698499680e+01
    9.9598937988e+01   -1.0783399582e+01
    9.9698875427e+01   -1.0868700027e+01
    9.9799011230e+01   -1.0954600334e+01
    9.9898880005e+01   -1.1040599823e+01
    9.9998916626e+01   -1.1127200127e+01
    1.0009898376e+02   -1.1214300156e+01
    1.0019901276e+02   -1.1301699638e+01
    1.0029888153e+02   -1.1389399529e+01
    1.0039897156e+02   -1.1477700233e+01
    1.0049886322e+02   -1.1566200256e+01
    1.0059887695e+02   -1.1655300140e+01
    1.0069898987e+02   -1.1744799614e+01
    1.0079895020e+02   -1.1834600449e+01
    1.0089888000e+02   -1.1924900055e+01
    1.0099902344e+02   -1.2015700340e+01
    1.0109890747e+02   -1.2106699944e+01
    1.0119895935e+02   -1.2198300362e+01
    1.0129898071e+02   -1.2290200233e+01
    1.0139884186e+02   -1.2382399559e+01
    1.0149897766e+02   -1.2475299835e+01
    1.0159896088e+02   -1.2568499565e+01
    1.0169901276e+02   -1.2662099838e+01
    1.0179888916e+02   -1.2755999565e+01
    1.0189885712e+02   -1.2850299835e+01
    1.0199887085e+02   -1.2944999695e+01
    1.0209892273e+02   -1.3040200233e+01
    1.0219895172e+02   -1.3135600090e+01
    1.0229886627e+02   -1.3231300354e+01
    1.0239884949e+02   -1.3327400208e+01
    1.0249887848e+02   -1.3423899651e+01
    1.0259882355e+02   -1.3520600319e+01
    1.0269882965e+02   -1.3617699623e+01
    1.0279894257e+02   -1.3715200424e+01
    1.0289895630e+02   -1.3812899590e+01
    1.0299897003e+02   -1.3910900116e+01
    1.0309899139e+02   -1.4009200096e+01
    1.0319895935e+02   -1.4107700348e+01
    1.0329891968e+02   -1.4206500053e+01
    1.0339891052e+02   -1.4305600166e+01
    1.0349896240e+02   -1.4405099869e+01
    1.0359893036e+02   -1.4504699707e+01
    1.0369883728e+02   -1.4604499817e+01
    1.0379885864e+02   -1.4704700470e+01
    1.0389882660e+02   -1.4805100441e+01
    1.0399883270e+02   -1.4905699730e+01
    1.0409889221e+02   -1.5006600380e+01
    1.0419880676e+02   -1.5107600212e+01
    1.0429889679e+02   -1.5208900452e+01
    1.0439891052e+02   -1.5310299873e+01
    1.0449891663e+02   -1.5411899567e+01
    1.0459883881e+02   -1.5513500214e+01
    1.0469879913e+02   -1.5615300179e+01
    1.0479891205e+02   -1.5717399597e+01
    1.0489888000e+02   -1.5819399834e+01
    1.0499891663e+02   -1.5921500206e+01
    1.0509883881e+02   -1.6023599625e+01
    1.0519883728e+02   -1.6125799179e+01
    1.0529891968e+02   -1.6228099823e+01
    1.0539893341e+02   -1.6330299377e+01
    1.0549877930e+02   -1.6432300568e+01
    1.0559877777e+02   -1.6534500122e+01
    1.0569882202e+02   -1.6636600494e+01
    1.0579882050e+02   -1.6738599777e+01
    1.0589894104e+02   -1.6840599060e+01
    1.0599880981e+02   -1.6942300797e+01
    1.0609880066e+02   -1.7043899536e+01
    1.0619885254e+02   -1.7145500183e+01
    1.0629882050e+02   -1.7246799469e+01
    1.0639891052e+02   -1.7348100662e+01
    1.0649893951e+02   -1.7449100494e+01
    1.0659883881e+02   -1.7549699783e+01
    1.0669889069e+02   -1.7650299072e+01
    1.0679881287e+02   -1.7750499725e+01
    1.0689884186e+02   -1.7850500107e+01
    1.0699884033e+02   -1.7950199127e+01
    1.0709880829e+02   -1.8049600601e+01
    1.0719886780e+02   -1.8148700714e+01
    1.0729879761e+02   -1.8247299194e+01
    1.0739878845e+02   -1.8345699310e+01
    1.0749883270e+02   -1.8443700790e+01
    1.0759886169e+02   -1.8541200638e+01
    1.0769876099e+02   -1.8638299942e+01
    1.0779891968e+02   -1.8735099792e+01
    1.0789875793e+02   -1.8831199646e+01
    1.0799877167e+02   -1.8926900864e+01
    1.0809886169e+02   -1.9022300720e+01
    1.0819877625e+02   -1.9116899490e+01
    1.0829888916e+02   -1.9211200714e+01
    1.0839885712e+02   -1.9304899216e+01
    1.0849880981e+02   -1.9398000717e+01
    1.0859886169e+02   -1.9490499496e+01
    1.0869876099e+02   -1.9582399368e+01
    1.0879885864e+02   -1.9673900604e+01
    1.0889885712e+02   -1.9764600754e+01
    1.0899883270e+02   -1.9854700089e+01
    1.0909889984e+02   -1.9944200516e+01
    1.0919877625e+02   -2.0032899857e+01
    1.0929888153e+02   -2.0121200562e+01
    1.0939888763e+02   -2.0208599091e+01
    1.0949877167e+02   -2.0295299530e+01
    1.0959887695e+02   -2.0381399155e+01
    1.0969872284e+02   -2.0466600418e+01
    1.0979878235e+02   -2.0551200867e+01
    1.0989871979e+02   -2.0635000229e+01
    1.0999873352e+02   -2.0718000412e+01
    1.1009877777e+02   -2.0800399780e+01
    1.1019876099e+02   -2.0881900787e+01
    1.1029882812e+02   -2.0962600708e+01
    1.1039881897e+02   -2.1042499542e+01
    1.1049880219e+02   -2.1121599197e+01
    1.1059879303e+02   -2.1199899673e+01
    1.1069875336e+02   -2.1277299881e+01
    1.1079875183e+02   -2.1353900909e+01
    1.1089877319e+02   -2.1429700851e+01
    1.1099881744e+02   -2.1504699707e+01
    1.1109886169e+02   -2.1578800201e+01
    1.1119877625e+02   -2.1651899338e+01
    1.1129875183e+02   -2.1724199295e+01
    1.1139875793e+02   -2.1795600891e+01
    1.1149874878e+02   -2.1866100311e+01
    1.1159883881e+02   -2.1935699463e+01
    1.1169882202e+02   -2.2004400253e+01
    1.1179873657e+02   -2.2072099686e+01
    1.1189868164e+02   -2.2139099121e+01
    1.1199877167e+02   -2.2205200195e+01
    1.1209867859e+02   -2.2270299911e+01
    1.1219869995e+02   -2.2334699631e+01
    1.1229878235e+02   -2.2398199081e+01
    1.1239877319e+02   -2.2460699081e+01
    1.1249881744e+02   -2.2522399902e+01
    1.1259880829e+02   -2.2583200455e+01
    1.1269880676e+02   -2.2642999649e+01
    1.1279876709e+02   -2.2701900482e+01
    1.1289871216e+02   -2.2759899139e+01
    1.1299874115e+02   -2.2816900253e+01
    1.1309873199e+02   -2.2873100281e+01
    1.1319876099e+02   -2.2928300858e+01
    1.1329876709e+02   -2.2982500076e+01
    1.1339871979e+02   -2.3035699844e+01
    1.1349874878e+02   -2.3088100433e+01
    1.1359870148e+02   -2.3139699936e+01
    1.1369877625e+02   -2.3190700531e+01
    1.1379875946e+02   -2.3241199493e+01
    1.1389868927e+02   -2.3291500092e+01
    1.1399864960e+02   -2.3341699600e+01
    1.1409873199e+02   -2.3391899109e+01
    1.1419864655e+02   -2.3442100525e+01
    1.1429869843e+02   -2.3492500305e+01
    1.1439881134e+02   -2.3542900085e+01
    1.1449880219e+02   -2.3593299866e+01
    1.1459864044e+02   -2.3643299103e+01
    1.1469867706e+02   -2.3693199158e+01
    1.1479863739e+02   -2.3742500305e+01
    1.1489878082e+02   -2.3791400909e+01
    1.1499873352e+02   -2.3839599609e+01
    1.1509877014e+02   -2.3886999130e+01
    1.1519870758e+02   -2.3933799744e+01
    1.1529865265e+02   -2.3979799271e+01
    1.1539878845e+02   -2.4024999619e+01
    1.1549873352e+02   -2.4069400787e+01
    1.1559879303e+02   -2.4113199234e+01
    1.1569866180e+02   -2.4156200409e+01
    1.1579869843e+02   -2.4198699951e+01
    1.1589862061e+02   -2.4240699768e+01
    1.1599880219e+02   -2.4282499313e+01
    1.1609874725e+02   -2.4324100494e+01
    1.1619866943e+02   -2.4365699768e+01
    1.1629875183e+02   -2.4407600403e+01
    1.1639865875e+02   -2.4449800491e+01
    1.1649861908e+02   -2.4492500305e+01
    1.1659867859e+02   -2.4535900116e+01
    1.1669873047e+02   -2.4579999924e+01
    1.1679862976e+02   -2.4624799728e+01
    1.1689875793e+02   -2.4670299530e+01
    1.1699868011e+02   -2.4716400146e+01
    1.1709873962e+02   -2.4763099670e+01
    1.1719870758e+02   -2.4810100555e+01
    1.1729875946e+02   -2.4857500076e+01
    1.1739871216e+02   -2.4905000687e+01
    1.1749874115e+02   -2.4952600479e+01
    1.1759867859e+02   -2.5000400543e+01
    1.1769863892e+02   -2.5048099518e+01
    1.1779875946e+02   -2.5095899582e+01
    1.1789865875e+02   -2.5143600464e+01
    1.1799871826e+02   -2.5191499710e+01
    1.1809874725e+02   -2.5239599228e+01
    1.1819860077e+02   -2.5287700653e+01
    1.1829866028e+02   -2.5336299896e+01
    1.1839859009e+02   -2.5385200500e+01
    1.1849867249e+02   -2.5434799194e+01
    1.1859863281e+02   -2.5484899521e+01
    1.1869863129e+02   -2.5535900116e+01
    1.1879866028e+02   -2.5587799072e+01
    1.1889869690e+02   -2.5640600204e+01
    1.1899873352e+02   -2.5694299698e+01
    1.1909863281e+02   -2.5748899460e+01
    1.1919863129e+02   -2.5804399490e+01
    1.1929865265e+02   -2.5860700607e+01
    1.1939871979e+02   -2.5917800903e+01
    1.1949868774e+02   -2.5975599289e+01
    1.1959867859e+02   -2.6034000397e+01
    1.1969863129e+02   -2.6093000412e+01
    1.1979872131e+02   -2.6152700424e+01
    1.1989859772e+02   -2.6212699890e+01
    1.1999855042e+02   -2.6273399353e+01
    1.2009873199e+02   -2.6334699631e+01
    1.2019869995e+02   -2.6396200180e+01
    1.2029872131e+02   -2.6458299637e+01
    1.2039862061e+02   -2.6520799637e+01
    1.2049871826e+02   -2.6583999634e+01
    1.2059861755e+02   -2.6647600174e+01
    1.2069856262e+02   -2.6711999893e+01
    1.2079857635e+02   -2.6777200699e+01
    1.2089865875e+02   -2.6843299866e+01
    1.2099859619e+02   -2.6910200119e+01
    1.2109870911e+02   -2.6978300095e+01
    1.2119856262e+02   -2.7047300339e+01
    1.2129866791e+02   -2.7117799759e+01
    1.2139862823e+02   -2.7189300537e+01
    1.2149861908e+02   -2.7262100220e+01
    1.2159868622e+02   -2.7336200714e+01
    1.2169869995e+02   -2.7411500931e+01
    1.2179859161e+02   -2.7488000870e+01
    1.2189866638e+02   -2.7565900803e+01
    1.2199871063e+02   -2.7644899368e+01
    1.2209858704e+02   -2.7724899292e+01
    1.2219856262e+02   -2.7805799484e+01
    1.2229868317e+02   -2.7887699127e+01
    1.2239865875e+02   -2.7970199585e+01
    1.2249854279e+02   -2.8053400040e+01
    1.2259858704e+02   -2.8137300491e+01
    1.2269857025e+02   -2.8221799850e+01
    1.2279859161e+02   -2.8307100296e+01
    1.2289852905e+02   -2.8393100739e+01
    1.2299855804e+02   -2.8479999542e+01
    1.2309851837e+02   -2.8567800522e+01
    1.2319864655e+02   -2.8656900406e+01
    1.2329865265e+02   -2.8746999741e+01
    1.2339865875e+02   -2.8838499069e+01
    1.2349861145e+02   -2.8931299210e+01
    1.2359854889e+02   -2.9025499344e+01
    1.2369851685e+02   -2.9121299744e+01
    1.2379850769e+02   -2.9218599319e+01
    1.2389852905e+02   -2.9317499161e+01
    1.2399849701e+02   -2.9417800903e+01
    1.2409861755e+02   -2.9519699097e+01
    1.2419853210e+02   -2.9622800827e+01
    1.2429857635e+02   -2.9727300644e+01
    1.2439859772e+02   -2.9833000183e+01
    1.2449849701e+02   -2.9939599991e+01
    1.2459858704e+02   -3.0047399521e+01
    1.2469857788e+02   -3.0155899048e+01
    1.2479859161e+02   -3.0265399933e+01
    1.2489859009e+02   -3.0375799179e+01
    1.2499858856e+02   -3.0486900330e+01
    1.2509864807e+02   -3.0598899841e+01
    1.2519863129e+02   -3.0711799622e+01
    1.2529850769e+02   -3.0825599670e+01
    1.2539852905e+02   -3.0940500259e+01
    1.2549848175e+02   -3.1056499481e+01
    1.2559854889e+02   -3.1173900604e+01
    1.2569860840e+02   -3.1292499542e+01
    1.2579856110e+02   -3.1412300110e+01
    1.2589846802e+02   -3.1533399582e+01
    1.2599851227e+02   -3.1656000137e+01
    1.2609861755e+02   -3.1780000687e+01
    1.2619863129e+02   -3.1905300140e+01
    1.2629857635e+02   -3.2031799316e+01
    1.2639861298e+02   -3.2159698486e+01
    1.2649851990e+02   -3.2288700104e+01
    1.2659850311e+02   -3.2418998718e+01
    1.2669863129e+02   -3.2550701141e+01
    1.2679847717e+02   -3.2683101654e+01
    1.2689852905e+02   -3.2816898346e+01
    1.2699857330e+02   -3.2951599121e+01
    1.2709855652e+02   -3.3087299347e+01
    1.2719846344e+02   -3.3223800659e+01
    1.2729859924e+02   -3.3361598969e+01
    1.2739846802e+02   -3.3499801636e+01
    1.2749849701e+02   -3.3639198303e+01
    1.2759854126e+02   -3.3779300690e+01
    1.2769860077e+02   -3.3920398712e+01
    1.2779853058e+02   -3.4062099457e+01
    1.2789853668e+02   -3.4204700470e+01
    1.2799851990e+02   -3.4348300934e+01
    1.2809844971e+02   -3.4492599487e+01
    1.2819856262e+02   -3.4638301849e+01
    1.2829849243e+02   -3.4784599304e+01
    1.2839846802e+02   -3.4931999207e+01
    1.2849848938e+02   -3.5080501556e+01
    1.2859855652e+02   -3.5230098724e+01
    1.2869860840e+02   -3.5380798340e+01
    1.2879864502e+02   -3.5532398224e+01
    1.2889857483e+02   -3.5684799194e+01
    1.2899861145e+02   -3.5838401794e+01
    1.2909854126e+02   -3.5992801666e+01
    1.2919859314e+02   -3.6148101807e+01
    1.2929867554e+02   -3.6304298401e+01
    1.2939851379e+02   -3.6460700989e+01
    1.2949861145e+02   -3.6618198395e+01
    1.2959860229e+02   -3.6775901794e+01
    1.2969868469e+02   -3.6934200287e+01
    1.2979858398e+02   -3.7092700958e+01
    1.2989866638e+02   -3.7251701355e+01
    1.2999865723e+02   -3.7410999298e+01
    1.3009860229e+02   -3.7570400238e+01
    1.3019865417e+02   -3.7730400085e+01
    1.3029856873e+02   -3.7890399933e+01
    1.3039872742e+02   -3.8051200867e+01
    1.3049862671e+02   -3.8211898804e+01
    1.3059864807e+02   -3.8373001099e+01
    1.3069868469e+02   -3.8534500122e+01
    1.3079873657e+02   -3.8696201324e+01
    1.3089874268e+02   -3.8858200073e+01
    1.3099870300e+02   -3.9020401001e+01
    1.3109878540e+02   -3.9183101654e+01
    1.3119871521e+02   -3.9345699310e+01
    1.3129878235e+02   -3.9508598328e+01
    1.3139874268e+02   -3.9671398163e+01
    1.3149880981e+02   -3.9834300995e+01
    1.3159866333e+02   -3.9996700287e+01
    1.3169879150e+02   -4.0159198761e+01
    1.3179879761e+02   -4.0321300507e+01
    1.3189874268e+02   -4.0482898712e+01
    1.3199877930e+02   -4.0644298553e+01
    1.3209869385e+02   -4.0805000305e+01
    1.3219873047e+02   -4.0965400696e+01
    1.3229872131e+02   -4.1125198364e+01
    1.3239874268e+02   -4.1284599304e+01
    1.3249876404e+02   -4.1443500519e+01
    1.3259887695e+02   -4.1602001190e+01
    1.3269888306e+02   -4.1759700775e+01
    1.3279882812e+02   -4.1916801453e+01
    1.3289874268e+02   -4.2073200226e+01
    1.3299876404e+02   -4.2229198456e+01
    1.3309890747e+02   -4.2384799957e+01
    1.3319885254e+02   -4.2539398193e+01
    1.3329887390e+02   -4.2693401337e+01
    1.3339889526e+02   -4.2846698761e+01
    1.3349893188e+02   -4.2999401093e+01
    1.3359878540e+02   -4.3151100159e+01
    1.3369886780e+02   -4.3302398682e+01
    1.3379879761e+02   -4.3452598572e+01
    1.3389880371e+02   -4.3602100372e+01
    1.3399896240e+02   -4.3750900269e+01
    1.3409890747e+02   -4.3898498535e+01
    1.3419880676e+02   -4.4044799805e+01
    1.3429890442e+02   -4.4190399170e+01
    1.3439884949e+02   -4.4334499359e+01
    1.3449890137e+02   -4.4477600098e+01
    1.3459884644e+02   -4.4619098663e+01
    1.3469883728e+02   -4.4759601593e+01
    1.3479890442e+02   -4.4898601532e+01
    1.3489892578e+02   -4.5036300659e+01
    1.3499899292e+02   -4.5172500610e+01
    1.3509895325e+02   -4.5307098389e+01
    1.3519894409e+02   -4.5440299988e+01
    1.3529896545e+02   -4.5572101593e+01
    1.3539895630e+02   -4.5702400208e+01
    1.3549902344e+02   -4.5831401825e+01
    1.3559902954e+02   -4.5958900452e+01
    1.3569906616e+02   -4.6084899902e+01
    1.3579893494e+02   -4.6209201813e+01
    1.3589901733e+02   -4.6332500458e+01
    1.3599891663e+02   -4.6453998566e+01
    1.3609898376e+02   -4.6574001312e+01
    1.3619902039e+02   -4.6692699432e+01
    1.3629899597e+02   -4.6809898376e+01
    1.3639898682e+02   -4.6925399780e+01
    1.3649911499e+02   -4.7038898468e+01
    1.3659907532e+02   -4.7150699615e+01
    1.3669900513e+02   -4.7260601044e+01
    1.3679896545e+02   -4.7368598938e+01
    1.3689915466e+02   -4.7474998474e+01
    1.3699911499e+02   -4.7579101562e+01
    1.3709915161e+02   -4.7681400299e+01
    1.3719905090e+02   -4.7781799316e+01
    1.3729902649e+02   -4.7880298615e+01
    1.3739912415e+02   -4.7977100372e+01
    1.3749906921e+02   -4.8071899414e+01
    1.3759913635e+02   -4.8164901733e+01
    1.3769905090e+02   -4.8255699158e+01
    1.3779916382e+02   -4.8345100403e+01
    1.3789912415e+02   -4.8432498932e+01
    1.3799920654e+02   -4.8518199921e+01
    1.3809921265e+02   -4.8602100372e+01
    1.3819918823e+02   -4.8682701111e+01
    1.3829913330e+02   -4.8757701874e+01
    1.3839910889e+02   -4.8824501038e+01
    1.3849919128e+02   -4.8881301880e+01
    1.3859915161e+02   -4.8926101685e+01
    1.3869921875e+02   -4.8958099365e+01
    1.3879910278e+02   -4.8977199554e+01
    1.3889909363e+02   -4.8984199524e+01
    1.3899926758e+02   -4.8981601715e+01
    1.3909924316e+02   -4.8973598480e+01
    1.3919912720e+02   -4.8962898254e+01
    1.3929913330e+02   -4.8950298309e+01
    1.3939921570e+02   -4.8936298370e+01
    1.3949923706e+02   -4.8921699524e+01
    1.3959927368e+02   -4.8906398773e+01
    1.3969929504e+02   -4.8889999390e+01
    1.3979919434e+02   -4.8872600555e+01
    1.3989929199e+02   -4.8854099274e+01
    1.3999923706e+02   -4.8834701538e+01
    1.4009921265e+02   -4.8814701080e+01
    1.4019926453e+02   -4.8794101715e+01
    1.4029925537e+02   -4.8772899628e+01
    1.4039918518e+02   -4.8751300812e+01
    1.4049920654e+02   -4.8729099274e+01
    1.4059919739e+02   -4.8706699371e+01
    1.4069920349e+02   -4.8684200287e+01
    1.4079930115e+02   -4.8661499023e+01
    1.4089927673e+02   -4.8638900757e+01
    1.4099934387e+02   -4.8616699219e+01
    1.4109936523e+02   -4.8594600677e+01
    1.4119931030e+02   -4.8572898865e+01
    1.4129937744e+02   -4.8551601410e+01
    1.4139929199e+02   -4.8530498505e+01
    1.4149937439e+02   -4.8509700775e+01
    1.4159939575e+02   -4.8489101410e+01
    1.4169929504e+02   -4.8468700409e+01
    1.4179928589e+02   -4.8448501587e+01
    1.4189930725e+02   -4.8428398132e+01
    1.4199937439e+02   -4.8408599854e+01
    1.4209942627e+02   -4.8389198303e+01
    1.4219935608e+02   -4.8370300293e+01
    1.4229945374e+02   -4.8351898193e+01
    1.4239935303e+02   -4.8334201813e+01
    1.4249937439e+02   -4.8317199707e+01
    1.4259934998e+02   -4.8300701141e+01
    1.4269938660e+02   -4.8284900665e+01
    1.4279934692e+02   -4.8269699097e+01
    1.4289939880e+02   -4.8255199432e+01
    1.4299940491e+02   -4.8241298676e+01
    1.4309942627e+02   -4.8228000641e+01
    1.4319938660e+02   -4.8215198517e+01
    1.4329940796e+02   -4.8202999115e+01
    1.4339949036e+02   -4.8191299438e+01
    1.4349948120e+02   -4.8180198669e+01
    1.4359948730e+02   -4.8169700623e+01
    1.4369947815e+02   -4.8159900665e+01
    1.4379948425e+02   -4.8151000977e+01
    1.4389950562e+02   -4.8142898560e+01
    1.4399954224e+02   -4.8135799408e+01
    1.4409950256e+02   -4.8129699707e+01
    1.4419955444e+02   -4.8124599457e+01
    1.4429945374e+02   -4.8120498657e+01
    1.4439955139e+02   -4.8117500305e+01
    1.4449952698e+02   -4.8115501404e+01
    1.4459945679e+02   -4.8114601135e+01
    1.4469944763e+02   -4.8114498138e+01
    1.4479949951e+02   -4.8115299225e+01
    1.4489955139e+02   -4.8117000580e+01
    1.4499960327e+02   -4.8119400024e+01
    1.4509957886e+02   -4.8122600555e+01
    1.4519953918e+02   -4.8126499176e+01
    1.4529949951e+02   -4.8131099701e+01
    1.4539959717e+02   -4.8136600494e+01
    1.4549958801e+02   -4.8142898560e+01
    1.4559962463e+02   -4.8150199890e+01
    1.4569963074e+02   -4.8158500671e+01
    1.4579963684e+02   -4.8167800903e+01
    1.4589958191e+02   -4.8178398132e+01
    1.4599969482e+02   -4.8189998627e+01
    1.4609957886e+02   -4.8202899933e+01
    1.4619969177e+02   -4.8216899872e+01
    1.4629960632e+02   -4.8231998444e+01
    1.4639959717e+02   -4.8248199463e+01
    1.4649960327e+02   -4.8265399933e+01
    1.4659971619e+02   -4.8283500671e+01
    1.4669964600e+02   -4.8302501678e+01
    1.4679969788e+02   -4.8322299957e+01
    1.4689959717e+02   -4.8342998505e+01
    1.4699971008e+02   -4.8364498138e+01
    1.4709968567e+02   -4.8386798859e+01
    1.4719966125e+02   -4.8409999847e+01
    1.4729969788e+02   -4.8433998108e+01
    1.4739978027e+02   -4.8458900452e+01
    1.4749969482e+02   -4.8484798431e+01
    1.4759970093e+02   -4.8511600494e+01
    1.4769973755e+02   -4.8539299011e+01
    1.4779968262e+02   -4.8568000793e+01
    1.4789973450e+02   -4.8597599030e+01
    1.4799978638e+02   -4.8628101349e+01
    1.4809982300e+02   -4.8659500122e+01
    1.4819981384e+02   -4.8691699982e+01
    1.4829981995e+02   -4.8724601746e+01
    1.4839984131e+02   -4.8758201599e+01
    1.4849972534e+02   -4.8792400360e+01
    1.4859974670e+02   -4.8827400208e+01
    1.4869972229e+02   -4.8862899780e+01
    1.4879983521e+02   -4.8899200439e+01
    1.4889976501e+02   -4.8936000824e+01
    1.4899984741e+02   -4.8973598480e+01
    1.4909974670e+02   -4.9011600494e+01
    1.4919984436e+02   -4.9050498962e+01
    1.4929980469e+02   -4.9089900970e+01
    1.4939984131e+02   -4.9129901886e+01
    1.4949984741e+02   -4.9170600891e+01
    1.4959983826e+02   -4.9211700439e+01
    1.4969978333e+02   -4.9253299713e+01
    1.4979981995e+02   -4.9295200348e+01
    1.4989990234e+02   -4.9337501526e+01
    1.4999987793e+02   -4.9380001068e+01
    1.5009991455e+02   -4.9422798157e+01
    1.5019990540e+02   -4.9465698242e+01
    1.5029992676e+02   -4.9508800507e+01
    1.5039982605e+02   -4.9552101135e+01
    1.5049995422e+02   -4.9595699310e+01
    1.5059988403e+02   -4.9639301300e+01
    1.5069985962e+02   -4.9682998657e+01
    1.5079992676e+02   -4.9726898193e+01
    1.5089991760e+02   -4.9771099091e+01
    1.5099998474e+02   -4.9815299988e+01
    1.5109988403e+02   -4.9859500885e+01
    1.5120001221e+02   -4.9903800964e+01
    1.5129994202e+02   -4.9947898865e+01
    1.5139990234e+02   -4.9991798401e+01
    1.5150000000e+02   -5.0035400391e+01
    1.5159997559e+02   -5.0078601837e+01
    1.5169998169e+02   -5.0121398926e+01
    1.5179991150e+02   -5.0163600922e+01
    1.5189990234e+02   -5.0205299377e+01
    1.5199996948e+02   -5.0246200562e+01
    1.5210006714e+02   -5.0286300659e+01
    1.5220002747e+02   -5.0325401306e+01
    1.5229995728e+02   -5.0363800049e+01
    1.5239991760e+02   -5.0401298523e+01
    1.5250000000e+02   -5.0437801361e+01
    1.5260000610e+02   -5.0473300934e+01
    1.5269993591e+02   -5.0507801056e+01
    1.5280007935e+02   -5.0541400909e+01
    1.5290011597e+02   -5.0573699951e+01
    1.5300001526e+02   -5.0604801178e+01
    1.5310000610e+02   -5.0634700775e+01
    1.5320005798e+02   -5.0663200378e+01
    1.5330012512e+02   -5.0690299988e+01
    1.5340014648e+02   -5.0715801239e+01
    1.5350003052e+02   -5.0739700317e+01
    1.5360008240e+02   -5.0762100220e+01
    1.5370004272e+02   -5.0782600403e+01
    1.5380000305e+02   -5.0801200867e+01
    1.5390008545e+02   -5.0818099976e+01
    1.5400009155e+02   -5.0833000183e+01
    1.5410014343e+02   -5.0845901489e+01
    1.5420018005e+02   -5.0856998444e+01
    1.5430009460e+02   -5.0866001129e+01
    1.5440008545e+02   -5.0873001099e+01
    1.5450007629e+02   -5.0877998352e+01
    1.5460012817e+02   -5.0880901337e+01
    1.5470005798e+02   -5.0881698608e+01
    1.5480009460e+02   -5.0880599976e+01
    1.5490017700e+02   -5.0877300262e+01
    1.5500015259e+02   -5.0872001648e+01
    1.5510023499e+02   -5.0864398956e+01
    1.5520016479e+02   -5.0854900360e+01
    1.5530018616e+02   -5.0843101501e+01
    1.5540023804e+02   -5.0828998566e+01
    1.5550015259e+02   -5.0812599182e+01
    1.5560020447e+02   -5.0793201447e+01
    1.5570022583e+02   -5.0770599365e+01
    1.5580018616e+02   -5.0744400024e+01
    1.5590019226e+02   -5.0714401245e+01
    1.5600030518e+02   -5.0680698395e+01
    1.5610026550e+02   -5.0643798828e+01
    1.5620016479e+02   -5.0604000092e+01
    1.5630024719e+02   -5.0561698914e+01
    1.5640031433e+02   -5.0517299652e+01
    1.5650021362e+02   -5.0470901489e+01
    1.5660031128e+02   -5.0422298431e+01
    1.5670033264e+02   -5.0371498108e+01
    1.5680030823e+02   -5.0318698883e+01
    1.5690031433e+02   -5.0263900757e+01
    1.5700025940e+02   -5.0206901550e+01
    1.5710032654e+02   -5.0147800446e+01
    1.5720031738e+02   -5.0086601257e+01
    1.5730029297e+02   -5.0023399353e+01
    1.5740037537e+02   -4.9958099365e+01
    1.5750039673e+02   -4.9890800476e+01
    1.5760031128e+02   -4.9821601868e+01
    1.5770025635e+02   -4.9750099182e+01
    1.5780033875e+02   -4.9676898956e+01
    1.5790039062e+02   -4.9601699829e+01
    1.5800028992e+02   -4.9524799347e+01
    1.5810040283e+02   -4.9445999146e+01
    1.5820033264e+02   -4.9365501404e+01
    1.5830030823e+02   -4.9283298492e+01
    1.5840046692e+02   -4.9199401855e+01
    1.5850033569e+02   -4.9113899231e+01
    1.5860031128e+02   -4.9026599884e+01
    1.5870048523e+02   -4.8937698364e+01
    1.5880035400e+02   -4.8847499847e+01
    1.5890046692e+02   -4.8755401611e+01
    1.5900035095e+02   -4.8661899567e+01
    1.5910038757e+02   -4.8567001343e+01
    1.5920034790e+02   -4.8470600128e+01
    1.5930052185e+02   -4.8372299194e+01
    1.5940046692e+02   -4.8272800446e+01
    1.5950039673e+02   -4.8172000885e+01
    1.5960047913e+02   -4.8069698334e+01
    1.5970042419e+02   -4.7966300964e+01
    1.5980047607e+02   -4.7861400604e+01
    1.5990049744e+02   -4.7755401611e+01
    1.6000041199e+02   -4.7648399353e+01
    1.6010046387e+02   -4.7540000916e+01
    1.6020045471e+02   -4.7430698395e+01
    1.6030050659e+02   -4.7320301056e+01
    1.6040042114e+02   -4.7209098816e+01
    1.6050050354e+02   -4.7096500397e+01
    1.6060049438e+02   -4.6983200073e+01
    1.6070054626e+02   -4.6868801117e+01
    1.6080053711e+02   -4.6753501892e+01
    1.6090051270e+02   -4.6637401581e+01
    1.6100044250e+02   -4.6520599365e+01
    1.6110058594e+02   -4.6402599335e+01
    1.6120051575e+02   -4.6284099579e+01
    1.6130052185e+02   -4.6164699554e+01
    1.6140051270e+02   -4.6044601440e+01
    1.6150059509e+02   -4.5923599243e+01
    1.6160064697e+02   -4.5802101135e+01
    1.6170054626e+02   -4.5680099487e+01
    1.6180056763e+02   -4.5557300568e+01
    1.6190057373e+02   -4.5433998108e+01
    1.6200054932e+02   -4.5310199738e+01
    1.6210057068e+02   -4.5185798645e+01
    1.6220053101e+02   -4.5061000824e+01
    1.6230056763e+02   -4.4935600281e+01
    1.6240058899e+02   -4.4809700012e+01
    1.6250059509e+02   -4.4683399200e+01
    1.6260061646e+02   -4.4556499481e+01
    1.6270057678e+02   -4.4429298401e+01
    1.6280073547e+02   -4.4301399231e+01
    1.6290071106e+02   -4.4173198700e+01
    1.6300056458e+02   -4.4044799805e+01
    1.6310067749e+02   -4.3915599823e+01
    1.6320060730e+02   -4.3786300659e+01
    1.6330064392e+02   -4.3656501770e+01
    1.6340069580e+02   -4.3526298523e+01
    1.6350068665e+02   -4.3395900726e+01
    1.6360060120e+02   -4.3265300751e+01
    1.6370077515e+02   -4.3133998871e+01
    1.6380067444e+02   -4.3002899170e+01
    1.6390071106e+02   -4.2871299744e+01
    1.6400076294e+02   -4.2739398956e+01
    1.6410066223e+02   -4.2607498169e+01
    1.6420065308e+02   -4.2475200653e+01
    1.6430070496e+02   -4.2342601776e+01
    1.6440071106e+02   -4.2209899902e+01
    1.6450076294e+02   -4.2076801300e+01
    1.6460081482e+02   -4.1943599701e+01
    1.6470083618e+02   -4.1810199738e+01
    1.6480079651e+02   -4.1676700592e+01
    1.6490083313e+02   -4.1542900085e+01
    1.6500083923e+02   -4.1409099579e+01
    1.6510076904e+02   -4.1275199890e+01
    1.6520071411e+02   -4.1141201019e+01
    1.6530087280e+02   -4.1006900787e+01
    1.6540075684e+02   -4.0872898102e+01
    1.6550085449e+02   -4.0738498688e+01
    1.6560083008e+02   -4.0604301453e+01
    1.6570088196e+02   -4.0469898224e+01
    1.6580082703e+02   -4.0335601807e+01
    1.6590086365e+02   -4.0201198578e+01
    1.6600088501e+02   -4.0066799164e+01
    1.6610087585e+02   -3.9932300568e+01
    1.6620089722e+02   -3.9797798157e+01
    1.6630084229e+02   -3.9663299561e+01
    1.6640086365e+02   -3.9528598785e+01
    1.6650083923e+02   -3.9393901825e+01
    1.6660090637e+02   -3.9259101868e+01
    1.6670091248e+02   -3.9124298096e+01
    1.6680081177e+02   -3.8989601135e+01
    1.6690086365e+02   -3.8854698181e+01
    1.6700096130e+02   -3.8719799042e+01
    1.6710096741e+02   -3.8585098267e+01
    1.6720095825e+02   -3.8450401306e+01
    1.6730099487e+02   -3.8315700531e+01
    1.6740098572e+02   -3.8181098938e+01
    1.6750093079e+02   -3.8046600342e+01
    1.6760084534e+02   -3.7912200928e+01
    1.6770094299e+02   -3.7777500153e+01
    1.6780097961e+02   -3.7643001556e+01
    1.6790086365e+02   -3.7508701324e+01
    1.6800096130e+02   -3.7374099731e+01
    1.6810093689e+02   -3.7239700317e+01
    1.6820098877e+02   -3.7105201721e+01
    1.6830093384e+02   -3.6970798492e+01
    1.6840097046e+02   -3.6836299896e+01
    1.6850099182e+02   -3.6701801300e+01
    1.6860093689e+02   -3.6567501068e+01
    1.6870104980e+02   -3.6432899475e+01
    1.6880091858e+02   -3.6298801422e+01
    1.6890107727e+02   -3.6164398193e+01
    1.6900094604e+02   -3.6030399323e+01
    1.6910096741e+02   -3.5896400452e+01
    1.6920103455e+02   -3.5762401581e+01
    1.6930093384e+02   -3.5628601074e+01
    1.6940095520e+02   -3.5494899750e+01
    1.6950099182e+02   -3.5361198425e+01
    1.6960102844e+02   -3.5227600098e+01
    1.6970104980e+02   -3.5094100952e+01
    1.6980101013e+02   -3.4960700989e+01
    1.6990110779e+02   -3.4827201843e+01
    1.7000111389e+02   -3.4694000244e+01
    1.7010102844e+02   -3.4560901642e+01
    1.7020117188e+02   -3.4427600861e+01
    1.7030108643e+02   -3.4294799805e+01
    1.7040118408e+02   -3.4161800385e+01
    1.7050106812e+02   -3.4029201508e+01
    1.7060107422e+02   -3.3896598816e+01
    1.7070114136e+02   -3.3764099121e+01
    1.7080104065e+02   -3.3631900787e+01
    1.7090115356e+02   -3.3499599457e+01
    1.7100122070e+02   -3.3367599487e+01
    1.7110113525e+02   -3.3235900879e+01
    1.7120117188e+02   -3.3104198456e+01
    1.7130110168e+02   -3.2972698212e+01
    1.7140113831e+02   -3.2841300964e+01
    1.7150115967e+02   -3.2709999084e+01
    1.7160110474e+02   -3.2578899384e+01
    1.7170111084e+02   -3.2447898865e+01
    1.7180116272e+02   -3.2317001343e+01
    1.7190112305e+02   -3.2186298370e+01
    1.7200122070e+02   -3.2055500031e+01
    1.7210119629e+02   -3.1925100327e+01
    1.7220126343e+02   -3.1794799805e+01
    1.7230128479e+02   -3.1664600372e+01
    1.7240130615e+02   -3.1534700394e+01
    1.7250123596e+02   -3.1405000687e+01
    1.7260127258e+02   -3.1275499344e+01
    1.7270115662e+02   -3.1146299362e+01
    1.7280125427e+02   -3.1017000198e+01
    1.7290127563e+02   -3.0888000488e+01
    1.7300125122e+02   -3.0759300232e+01
    1.7310122681e+02   -3.0630699158e+01
    1.7320126343e+02   -3.0502099991e+01
    1.7330128479e+02   -3.0373800278e+01
    1.7340126038e+02   -3.0245599747e+01
    1.7350120544e+02   -3.0117700577e+01
    1.7360127258e+02   -2.9989700317e+01
    1.7370123291e+02   -2.9862100601e+01
    1.7380134583e+02   -2.9734399796e+01
    1.7390141296e+02   -2.9607000351e+01
    1.7400128174e+02   -2.9479900360e+01
    1.7410128784e+02   -2.9353000641e+01
    1.7420129395e+02   -2.9226200104e+01
    1.7430140686e+02   -2.9099500656e+01
    1.7440133667e+02   -2.8973199844e+01
    1.7450135803e+02   -2.8847000122e+01
    1.7460131836e+02   -2.8721099854e+01
    1.7470144653e+02   -2.8595100403e+01
    1.7480140686e+02   -2.8469600677e+01
    1.7490130615e+02   -2.8344299316e+01
    1.7500137329e+02   -2.8218900681e+01
    1.7510130310e+02   -2.8093900681e+01
    1.7520138550e+02   -2.7968799591e+01
    1.7530133057e+02   -2.7844100952e+01
    1.7540142822e+02   -2.7719299316e+01
    1.7550146484e+02   -2.7594699860e+01
    1.7560147095e+02   -2.7470399857e+01
    1.7570144653e+02   -2.7346200943e+01
    1.7580136108e+02   -2.7222299576e+01
    1.7590138245e+02   -2.7098499298e+01
    1.7600146484e+02   -2.6974800110e+01
    1.7610151672e+02   -2.6851200104e+01
    1.7620150757e+02   -2.6727899551e+01
    1.7630152893e+02   -2.6604799271e+01
    1.7640150452e+02   -2.6481899261e+01
    1.7650149536e+02   -2.6359199524e+01
    1.7660151672e+02   -2.6236499786e+01
    1.7670141602e+02   -2.6114200592e+01
    1.7680158997e+02   -2.5991699219e+01
    1.7690144348e+02   -2.5869699478e+01
    1.7700157166e+02   -2.5747499466e+01
    1.7710159302e+02   -2.5625600815e+01
    1.7720152283e+02   -2.5503900528e+01
    1.7730151367e+02   -2.5382299423e+01
    1.7740151978e+02   -2.5260799408e+01
    1.7750149536e+02   -2.5139499664e+01
    1.7760159302e+02   -2.5018199921e+01
    1.7770153809e+02   -2.4897199631e+01
    1.7780160522e+02   -2.4776300430e+01
    1.7790151978e+02   -2.4655599594e+01
    1.7800161743e+02   -2.4534900665e+01
    1.7810151672e+02   -2.4414499283e+01
    1.7820161438e+02   -2.4294099808e+01
    1.7830166626e+02   -2.4173799515e+01
    1.7840153503e+02   -2.4053899765e+01
    1.7850155640e+02   -2.3933900833e+01
    1.7860156250e+02   -2.3813999176e+01
    1.7870158386e+02   -2.3694099426e+01
    1.7880160522e+02   -2.3574499130e+01
    1.7890159607e+02   -2.3454900742e+01
    1.7900161743e+02   -2.3335399628e+01
    1.7910159302e+02   -2.3215999603e+01
    1.7920159912e+02   -2.3096700668e+01
    1.7930168152e+02   -2.2977399826e+01
    1.7940158081e+02   -2.2858499527e+01
    1.7950157166e+02   -2.2739500046e+01
    1.7960165405e+02   -2.2620500565e+01
    1.7970161438e+02   -2.2501699448e+01
    1.7980169678e+02   -2.2382900238e+01
    1.7990162659e+02   -2.2264400482e+01
    1.8000170898e+02   -2.2145799637e+01
    1.8010168457e+02   -2.2027399063e+01
    1.8020169067e+02   -2.1909000397e+01
    1.8030177307e+02   -2.1790700912e+01
    1.8040173340e+02   -2.1672500610e+01
    1.8050166321e+02   -2.1554500580e+01
    1.8060168457e+02   -2.1436399460e+01
    1.8070181274e+02   -2.1318199158e+01
    1.8080168152e+02   -2.1200399399e+01
    1.8090170288e+02   -2.1082500458e+01
    1.8100178528e+02   -2.0964500427e+01
    1.8110174561e+02   -2.0846700668e+01
    1.8120173645e+02   -2.0729000092e+01
    1.8130172729e+02   -2.0611200333e+01
    1.8140185547e+02   -2.0493400574e+01
    1.8150184631e+02   -2.0375799179e+01
    1.8160183716e+02   -2.0258300781e+01
    1.8170176697e+02   -2.0140800476e+01
    1.8180171204e+02   -2.0023399353e+01
    1.8190174866e+02   -1.9905899048e+01
    1.8200178528e+02   -1.9788499832e+01
    1.8210185242e+02   -1.9671100616e+01
    1.8220188904e+02   -1.9553699493e+01
    1.8230175781e+02   -1.9436599731e+01
    1.8240185547e+02   -1.9319299698e+01
    1.8250192261e+02   -1.9202100754e+01
    1.8260179138e+02   -1.9085100174e+01
    1.8270181274e+02   -1.8968000412e+01
    1.8280180359e+02   -1.8850900650e+01
    1.8290196228e+02   -1.8733699799e+01
    1.8300192261e+02   -1.8616699219e+01
    1.8310191345e+02   -1.8499700546e+01
    1.8320196533e+02   -1.8382600784e+01
    1.8330184937e+02   -1.8265699387e+01
    1.8340190125e+02   -1.8148700714e+01
    1.8350192261e+02   -1.8031700134e+01
    1.8360194397e+02   -1.7914800644e+01
    1.8370187378e+02   -1.7797899246e+01
    1.8380184937e+02   -1.7681100845e+01
    1.8390187073e+02   -1.7564199448e+01
    1.8400195312e+02   -1.7447200775e+01
    1.8410197449e+02   -1.7330400467e+01
    1.8420190430e+02   -1.7213600159e+01
    1.8430189514e+02   -1.7096900940e+01
    1.8440199280e+02   -1.6979999542e+01
    1.8450196838e+02   -1.6863300323e+01
    1.8460194397e+02   -1.6746700287e+01
    1.8470196533e+02   -1.6629999161e+01
    1.8480206299e+02   -1.6513200760e+01
    1.8490200806e+02   -1.6396600723e+01
    1.8500198364e+02   -1.6280099869e+01
    1.8510203552e+02   -1.6163400650e+01
    1.8520199585e+02   -1.6046899796e+01
    1.8530203247e+02   -1.5930299759e+01
    1.8540205383e+02   -1.5813699722e+01
    1.8550195312e+02   -1.5697299957e+01
    1.8560206604e+02   -1.5580599785e+01
    1.8570207214e+02   -1.5464099884e+01
    1.8580209351e+02   -1.5347599983e+01
    1.8590208435e+02   -1.5231200218e+01
    1.8600199890e+02   -1.5114899635e+01
    1.8610209656e+02   -1.4998399734e+01
    1.8620207214e+02   -1.4882100105e+01
    1.8630210876e+02   -1.4765700340e+01
    1.8640211487e+02   -1.4649499893e+01
    1.8650210571e+02   -1.4533200264e+01
    1.8660209656e+02   -1.4417099953e+01
    1.8670213318e+02   -1.4300900459e+01
    1.8680215454e+02   -1.4184800148e+01
    1.8690219116e+02   -1.4068699837e+01
    1.8700202942e+02   -1.3952899933e+01
    1.8710206604e+02   -1.3836999893e+01
    1.8720211792e+02   -1.3720999718e+01
    1.8730212402e+02   -1.3605199814e+01
    1.8740216064e+02   -1.3489399910e+01
    1.8750218201e+02   -1.3373600006e+01
    1.8760212708e+02   -1.3258099556e+01
    1.8770219421e+02   -1.3142399788e+01
    1.8780209351e+02   -1.3027000427e+01
    1.8790208435e+02   -1.2911499977e+01
    1.8800213623e+02   -1.2796099663e+01
    1.8810224915e+02   -1.2680700302e+01
    1.8820228577e+02   -1.2565400124e+01
    1.8830221558e+02   -1.2450400352e+01
    1.8840223694e+02   -1.2335300446e+01
    1.8850227356e+02   -1.2220299721e+01
    1.8860227966e+02   -1.2105500221e+01
    1.8870228577e+02   -1.1990799904e+01
    1.8880215454e+02   -1.1876399994e+01
    1.8890231323e+02   -1.1761699677e+01
    1.8900230408e+02   -1.1647299767e+01
    1.8910227966e+02   -1.1533100128e+01
    1.8920216370e+02   -1.1419099808e+01
    1.8930230713e+02   -1.1305000305e+01
    1.8940220642e+02   -1.1191200256e+01
    1.8950221252e+02   -1.1077500343e+01
    1.8960235596e+02   -1.0963700294e+01
    1.8970231628e+02   -1.0850299835e+01
    1.8980236816e+02   -1.0736900330e+01
    1.8990231323e+02   -1.0623800278e+01
    1.9000227356e+02   -1.0510800362e+01
    1.9010226440e+02   -1.0397899628e+01
    1.9020236206e+02   -1.0285099983e+01
    1.9030235291e+02   -1.0172599792e+01
    1.9040237427e+02   -1.0060299873e+01
    1.9050227356e+02   -9.9482097626e+00
    1.9060237122e+02   -9.8361196518e+00
    1.9070239258e+02   -9.7243003845e+00
    1.9080239868e+02   -9.6126899719e+00
    1.9090240479e+02   -9.5013103485e+00
    1.9100238037e+02   -9.3901596069e+00
    1.9110240173e+02   -9.2791795731e+00
    1.9120245361e+02   -9.1683797836e+00
    1.9130244446e+02   -9.0578603745e+00
    1.9140242004e+02   -8.9475698471e+00
    1.9150239563e+02   -8.8374996185e+00
    1.9160232544e+02   -8.7277002335e+00
    1.9170237732e+02   -8.6180200577e+00
    1.9180235291e+02   -8.5086603165e+00
    1.9190240479e+02   -8.3994703293e+00
    1.9200236511e+02   -8.2906198502e+00
    1.9210232544e+02   -8.1820201874e+00
    1.9220237732e+02   -8.0736103058e+00
    1.9230252075e+02   -7.9653701782e+00
    1.9240248108e+02   -7.8576002121e+00
    1.9250244141e+02   -7.7501201630e+00
    1.9260252380e+02   -7.6427998543e+00
    1.9270239258e+02   -7.5359902382e+00
    1.9280249023e+02   -7.4292497635e+00
    1.9290255737e+02   -7.3228502274e+00
    1.9300250244e+02   -7.2168698311e+00
    1.9310238647e+02   -7.1113100052e+00
    1.9320249939e+02   -7.0058197975e+00
    1.9330249023e+02   -6.9007902145e+00
    1.9340240479e+02   -6.7961897850e+00
    1.9350247192e+02   -6.6917600632e+00
    1.9360243225e+02   -6.5878000259e+00
    1.9370251465e+02   -6.4840497971e+00
    1.9380259705e+02   -6.3806700706e+00
    1.9390249634e+02   -6.2778501511e+00
    1.9400244141e+02   -6.1753501892e+00
    1.9410253906e+02   -6.0730700493e+00
    1.9420262146e+02   -5.9712200165e+00
    1.9430261230e+02   -5.8698401451e+00
    1.9440263367e+02   -5.7688498497e+00
    1.9450263977e+02   -5.6683101654e+00
    1.9460249329e+02   -5.5683598518e+00
    1.9470254517e+02   -5.4686198235e+00
    1.9480255127e+02   -5.3693900108e+00
    1.9490258789e+02   -5.2705798149e+00
    1.9500265503e+02   -5.1722102165e+00
    1.9510261536e+02   -5.0744299889e+00
    1.9520260620e+02   -4.9771299362e+00
    1.9530267334e+02   -4.8802599907e+00
    1.9540255737e+02   -4.7840800285e+00
    1.9550271606e+02   -4.6881799698e+00
    1.9560270691e+02   -4.5929598808e+00
    1.9570262146e+02   -4.4983701706e+00
    1.9580271912e+02   -4.4041700363e+00
    1.9590260315e+02   -4.3107399940e+00
    1.9600259399e+02   -4.2177801132e+00
    1.9610258484e+02   -4.1254200935e+00
    1.9620271301e+02   -4.0335397720e+00
    1.9630276489e+02   -3.9423699379e+00
    1.9640269470e+02   -3.8519198895e+00
    1.9650262451e+02   -3.7621200085e+00
    1.9660264587e+02   -3.6728899479e+00
    1.9670278931e+02   -3.5842199326e+00
    1.9680261230e+02   -3.4965000153e+00
    1.9690280151e+02   -3.4091498852e+00
    1.9700273132e+02   -3.3227300644e+00
    1.9710267639e+02   -3.2369899750e+00
    1.9720281982e+02   -3.1517999172e+00
    1.9730278015e+02   -3.0674901009e+00
    1.9740272522e+02   -2.9839398861e+00
    1.9750271606e+02   -2.9011099339e+00
    1.9760278320e+02   -2.8189399242e+00
    1.9770268250e+02   -2.7377099991e+00
    1.9780270386e+02   -2.6571400166e+00
    1.9790281677e+02   -2.5773000717e+00
    1.9800274658e+02   -2.4983999729e+00
    1.9810284424e+02   -2.4201800823e+00
    1.9820283508e+02   -2.3428599834e+00
    1.9830270386e+02   -2.2664599419e+00
    1.9840272522e+02   -2.1907699108e+00
    1.9850277710e+02   -2.1159000397e+00
    1.9860281372e+02   -2.0419099331e+00
    1.9870275879e+02   -1.9688400030e+00
    1.9880281067e+02   -1.8965699673e+00
    1.9890281677e+02   -1.8252199888e+00
    1.9900288391e+02   -1.7546999454e+00
    1.9910276794e+02   -1.6851799488e+00
    1.9920286560e+02   -1.6164200306e+00
    1.9930287170e+02   -1.5486299992e+00
    1.9940295410e+02   -1.4816900492e+00
    1.9950289917e+02   -1.4157400131e+00
    1.9960296631e+02   -1.3506400585e+00
    1.9970283508e+02   -1.2865899801e+00
    1.9980290222e+02   -1.2233300209e+00
    1.9990296936e+02   -1.1610100269e+00
endcurve
