Curveplot
LS-DYNA keyword deck by LS-PrePost
Abscissa
Ordinate
XY data
CHOP_NASZ_mo-1 #pts=3000
* Minval=    -1.6262100220e+02 at time=       258.8053894043
* Maxval=     2.1684700187e-06 at time=         2.1988964081
    0.0000000000e+00    0.0000000000e+00
    9.9464751780e-02    1.0887900195e-35
    1.9892950356e-01    1.4120700481e-28
    2.9839426279e-01    7.5463103147e-23
    3.9954483509e-01    3.8613100690e-16
    4.9942851067e-01    5.8428301086e-10
    5.9996843338e-01    1.3916899633e-08
    6.9903308153e-01    4.6611798865e-08
    7.9898971319e-01    9.6074700195e-08
    8.9870619774e-01    1.6622699661e-07
    9.9832719564e-01    2.4634300644e-07
    1.0987064838e+00    3.1426199598e-07
    1.1984105110e+00    3.6102798617e-07
    1.2990113497e+00    3.8171398842e-07
    1.3987237215e+00    3.8716399331e-07
    1.4983510971e+00    3.7882600168e-07
    1.5998450518e+00    3.7720801060e-07
    1.6997693777e+00    4.1134700268e-07
    1.7992914915e+00    5.5031898683e-07
    1.8987305164e+00    8.5484100509e-07
    1.9995558262e+00    1.3392600522e-06
    2.0989930630e+00    1.8613900465e-06
    2.1988964081e+00    2.1684700187e-06
    2.2983624935e+00    1.9274100396e-06
    2.3995113373e+00    8.4328701178e-07
    2.4991292953e+00   -1.1514399603e-06
    2.5988953114e+00   -3.9917799768e-06
    2.6990334988e+00   -7.4244999269e-06
    2.7999768257e+00   -1.1073099813e-05
    2.8986215591e+00   -1.4421400010e-05
    2.9999651909e+00   -1.7351399947e-05
    3.0982911587e+00   -1.9644099666e-05
    3.1994810104e+00   -2.1600200853e-05
    3.2985146046e+00   -2.3424699975e-05
    3.3995308876e+00   -2.5597899366e-05
    3.4992942810e+00   -2.8384600228e-05
    3.5992443562e+00   -3.1977298931e-05
    3.6997017860e+00   -3.6367498979e-05
    3.7997844219e+00   -4.1316998249e-05
    3.8996450901e+00   -4.6547600505e-05
    3.9991934299e+00   -5.1825001719e-05
    4.0987963676e+00   -5.7128800108e-05
    4.1988434792e+00   -6.2763603637e-05
    4.2990441322e+00   -6.9261099270e-05
    4.3993158340e+00   -7.7249496826e-05
    4.4997820854e+00   -8.7251602963e-05
    4.5993552208e+00   -9.9335702544e-05
    4.6989359856e+00   -1.1346099927e-04
    4.7984833717e+00   -1.2924900511e-04
    4.8998222351e+00   -1.4660099987e-04
    4.9990921021e+00   -1.6465100634e-04
    5.0988354683e+00   -1.8404700677e-04
    5.1993360519e+00   -2.0548800239e-04
    5.2995219231e+00   -2.2969300335e-04
    5.3999071121e+00   -2.5780301075e-04
    5.4998264313e+00   -2.9043501127e-04
    5.5985350609e+00   -3.2766998629e-04
    5.6994929314e+00   -3.7090299884e-04
    5.7988901138e+00   -4.1818298632e-04
    5.8996505737e+00   -4.7035500756e-04
    5.9994015694e+00   -5.2577501629e-04
    6.0993700027e+00   -5.8489898220e-04
    6.1991348267e+00   -6.4768298762e-04
    6.2990393639e+00   -7.1484700311e-04
    6.3993287086e+00   -7.8719400335e-04
    6.4993214607e+00   -8.6466397624e-04
    6.5992870331e+00   -9.4743899535e-04
    6.6991810799e+00   -1.0350199882e-03
    6.7992568016e+00   -1.1268700473e-03
    6.8996944427e+00   -1.2224300299e-03
    6.9985542297e+00   -1.3193399645e-03
    7.0983304977e+00   -1.4200699516e-03
    7.1995105743e+00   -1.5257300111e-03
    7.2986025810e+00   -1.6335099936e-03
    7.3996238708e+00   -1.7486399738e-03
    7.4986691475e+00   -1.8672499573e-03
    7.5986065865e+00   -1.9927900285e-03
    7.6987509727e+00   -2.1240599453e-03
    7.7989277840e+00   -2.2601000965e-03
    7.8990669250e+00   -2.4000599515e-03
    7.9994649887e+00   -2.5438100565e-03
    8.0992126465e+00   -2.6898600627e-03
    8.1989650726e+00   -2.8392800596e-03
    8.2987585068e+00   -2.9924199916e-03
    8.3991155624e+00   -3.1504400540e-03
    8.4986467361e+00   -3.3112301026e-03
    8.5988225937e+00   -3.4768800251e-03
    8.6984376907e+00   -3.6447399762e-03
    8.7989006042e+00   -3.8163398858e-03
    8.8993473053e+00   -3.9895498194e-03
    8.9996347427e+00   -4.1639101692e-03
    9.0994272232e+00   -4.3391799554e-03
    9.1991558075e+00   -4.5169000514e-03
    9.2995166779e+00   -4.6993098222e-03
    9.3997058868e+00   -4.8858001828e-03
    9.4993000031e+00   -5.0758700818e-03
    9.5994148254e+00   -5.2714399062e-03
    9.6993246078e+00   -5.4704598151e-03
    9.7999086380e+00   -5.6738401763e-03
    9.8996906281e+00   -5.8778198436e-03
    9.9983539581e+00   -6.0813399032e-03
    1.0098776817e+01   -6.2905498780e-03
    1.0199974060e+01   -6.5041701309e-03
    1.0299807549e+01   -6.7185899243e-03
    1.0399882317e+01   -6.9379401393e-03
    1.0499086380e+01   -7.1601001546e-03
    1.0599964142e+01   -7.3905899189e-03
    1.0698753357e+01   -7.6201101765e-03
    1.0799943924e+01   -7.8581804410e-03
    1.0899674416e+01   -8.0949803814e-03
    1.0999250412e+01   -8.3332303911e-03
    1.1098734856e+01   -8.5733402520e-03
    1.1198295593e+01   -8.8165597990e-03
    1.1298688889e+01   -9.0658999979e-03
    1.1398441315e+01   -9.3187699094e-03
    1.1499759674e+01   -9.5815099776e-03
    1.1599696159e+01   -9.8465597257e-03
    1.1699482918e+01   -1.0116499849e-02
    1.1798439026e+01   -1.0388700292e-02
    1.1899127007e+01   -1.0669300333e-02
    1.1999129295e+01   -1.0951199569e-02
    1.2098378181e+01   -1.1234399863e-02
    1.2199556351e+01   -1.1527500115e-02
    1.2299053192e+01   -1.1821200140e-02
    1.2398647308e+01   -1.2121600099e-02
    1.2498376846e+01   -1.2429100461e-02
    1.2599818230e+01   -1.2748500332e-02
    1.2699797630e+01   -1.3068400323e-02
    1.2798932076e+01   -1.3389100321e-02
    1.2898642540e+01   -1.3713900000e-02
    1.2998365402e+01   -1.4039999805e-02
    1.3099049568e+01   -1.4370700344e-02
    1.3199813843e+01   -1.4704300091e-02
    1.3299559593e+01   -1.5038499609e-02
    1.3399120331e+01   -1.5377299860e-02
    1.3498905182e+01   -1.5722999349e-02
    1.3599467278e+01   -1.6077499837e-02
    1.3699761391e+01   -1.6436599195e-02
    1.3798336029e+01   -1.6793699935e-02
    1.3899527550e+01   -1.7163600773e-02
    1.3999031067e+01   -1.7530299723e-02
    1.4098828316e+01   -1.7901599407e-02
    1.4199101448e+01   -1.8279399723e-02
    1.4298841476e+01   -1.8662000075e-02
    1.4399201393e+01   -1.9055500627e-02
    1.4498683929e+01   -1.9455300644e-02
    1.4598467827e+01   -1.9866500050e-02
    1.4699681282e+01   -2.0293399692e-02
    1.4799235344e+01   -2.0722100511e-02
    1.4898760796e+01   -2.1158400923e-02
    1.4998624802e+01   -2.1603699774e-02
    1.5098646164e+01   -2.2057900205e-02
    1.5198759079e+01   -2.2522300482e-02
    1.5299009323e+01   -2.2999299690e-02
    1.5398717880e+01   -2.3487599567e-02
    1.5498489380e+01   -2.3991499096e-02
    1.5598818779e+01   -2.4514000863e-02
    1.5699117661e+01   -2.5051599368e-02
    1.5799583435e+01   -2.5604400784e-02
    1.5899871826e+01   -2.6169400662e-02
    1.5999478340e+01   -2.6743099093e-02
    1.6099449158e+01   -2.7331499383e-02
    1.6199344635e+01   -2.7933100238e-02
    1.6298311234e+01   -2.8543800116e-02
    1.6399280548e+01   -2.9183100909e-02
    1.6499456406e+01   -2.9834300280e-02
    1.6599891663e+01   -3.0503699556e-02
    1.6699474335e+01   -3.1182600185e-02
    1.6799285889e+01   -3.1876500696e-02
    1.6899448395e+01   -3.2584700733e-02
    1.6999370575e+01   -3.3302098513e-02
    1.7098960876e+01   -3.4027799964e-02
    1.7198543549e+01   -3.4765098244e-02
    1.7298900604e+01   -3.5521101207e-02
    1.7399660110e+01   -3.6294601858e-02
    1.7499763489e+01   -3.7078101188e-02
    1.7599826813e+01   -3.7875801325e-02
    1.7698766708e+01   -3.8677699864e-02
    1.7798652649e+01   -3.9498999715e-02
    1.7899885178e+01   -4.0341999382e-02
    1.7999441147e+01   -4.1180498898e-02
    1.8099081039e+01   -4.2029298842e-02
    1.8198738098e+01   -4.2888101190e-02
    1.8298597336e+01   -4.3759398162e-02
    1.8398353577e+01   -4.4641301036e-02
    1.8499578476e+01   -4.5547898859e-02
    1.8599134445e+01   -4.6450700611e-02
    1.8698827744e+01   -4.7364499420e-02
    1.8798677444e+01   -4.8287801445e-02
    1.8898756027e+01   -4.9219898880e-02
    1.8998662949e+01   -5.0156600773e-02
    1.9098571777e+01   -5.1099799573e-02
    1.9199846268e+01   -5.2063800395e-02
    1.9299310684e+01   -5.3020101041e-02
    1.9399698257e+01   -5.3996399045e-02
    1.9499458313e+01   -5.4978400469e-02
    1.9599454880e+01   -5.5974401534e-02
    1.9698984146e+01   -5.6976098567e-02
    1.9798959732e+01   -5.7991400361e-02
    1.9899436951e+01   -5.9019699693e-02
    1.9999118805e+01   -6.0047000647e-02
    2.0099168777e+01   -6.1085700989e-02
    2.0199909210e+01   -6.2140800059e-02
    2.0299455643e+01   -6.3194200397e-02
    2.0399011612e+01   -6.4260102808e-02
    2.0499410629e+01   -6.5348401666e-02
    2.0599679947e+01   -6.6448599100e-02
    2.0699424744e+01   -6.7554898560e-02
    2.0798988342e+01   -6.8669296801e-02
    2.0898712158e+01   -6.9794200361e-02
    2.1000001907e+01   -7.0945002139e-02
    2.1099746704e+01   -7.2086997330e-02
    2.1199533463e+01   -7.3239602149e-02
    2.1299509048e+01   -7.4406698346e-02
    2.1399370193e+01   -7.5586602092e-02
    2.1499067307e+01   -7.6779998839e-02
    2.1598766327e+01   -7.7988699079e-02
    2.1698854446e+01   -7.9216599464e-02
    2.1799589157e+01   -8.0465301871e-02
    2.1898881912e+01   -8.1707097590e-02
    2.1998535156e+01   -8.2963399589e-02
    2.2098470688e+01   -8.4233298898e-02
    2.2199756622e+01   -8.5531800985e-02
    2.2299312592e+01   -8.6821198463e-02
    2.2399084091e+01   -8.8127799332e-02
    2.2498928070e+01   -8.9450500906e-02
    2.2598659515e+01   -9.0785898268e-02
    2.2699615479e+01   -9.2150196433e-02
    2.2798957825e+01   -9.3502499163e-02
    2.2899362564e+01   -9.4876699150e-02
    2.2999063492e+01   -9.6247501671e-02
    2.3098274231e+01   -9.7618103027e-02
    2.3198720932e+01   -9.9014200270e-02
    2.3299123764e+01   -1.0042099655e-01
    2.3398838043e+01   -1.0183099657e-01
    2.3498641968e+01   -1.0325700045e-01
    2.3598989487e+01   -1.0470599681e-01
    2.3698787689e+01   -1.0616099834e-01
    2.3798978806e+01   -1.0763499886e-01
    2.3898551941e+01   -1.0910999775e-01
    2.3999811172e+01   -1.1061999947e-01
    2.4099420547e+01   -1.1211699992e-01
    2.4199401855e+01   -1.1363200098e-01
    2.4299226761e+01   -1.1516100168e-01
    2.4399587631e+01   -1.1671700329e-01
    2.4499139786e+01   -1.1828199774e-01
    2.4599426270e+01   -1.1987899989e-01
    2.4699037552e+01   -1.2148699909e-01
    2.4798646927e+01   -1.2311500311e-01
    2.4899942398e+01   -1.2478899956e-01
    2.4999668121e+01   -1.2645600736e-01
    2.5099618912e+01   -1.2814499438e-01
    2.5198926926e+01   -1.2984299660e-01
    2.5298934937e+01   -1.3157700002e-01
    2.5398624420e+01   -1.3333199918e-01
    2.5499940872e+01   -1.3514299691e-01
    2.5598714828e+01   -1.3693599403e-01
    2.5698675156e+01   -1.3877800107e-01
    2.5798614502e+01   -1.4064599574e-01
    2.5899971008e+01   -1.4256499708e-01
    2.5999608994e+01   -1.4447499812e-01
    2.6098581314e+01   -1.4639599621e-01
    2.6199052811e+01   -1.4836999774e-01
    2.6298778534e+01   -1.5035599470e-01
    2.6399559021e+01   -1.5239000320e-01
    2.6499544144e+01   -1.5443600714e-01
    2.6599950790e+01   -1.5651899576e-01
    2.6699823380e+01   -1.5861499310e-01
    2.6799711227e+01   -1.6073399782e-01
    2.6899591446e+01   -1.6287399828e-01
    2.6999383926e+01   -1.6503100097e-01
    2.7098993301e+01   -1.6720199585e-01
    2.7198612213e+01   -1.6939200461e-01
    2.7298538208e+01   -1.7160999775e-01
    2.7398777008e+01   -1.7385600507e-01
    2.7498676300e+01   -1.7611700296e-01
    2.7598691940e+01   -1.7840300500e-01
    2.7699125290e+01   -1.8071900308e-01
    2.7799142838e+01   -1.8304400146e-01
    2.7898748398e+01   -1.8537600338e-01
    2.7998449326e+01   -1.8772600591e-01
    2.8099901199e+01   -1.9013300538e-01
    2.8199600220e+01   -1.9251400232e-01
    2.8299894333e+01   -1.9492599368e-01
    2.8399692535e+01   -1.9734300673e-01
    2.8499328613e+01   -1.9977499545e-01
    2.8598970413e+01   -2.0222400129e-01
    2.8699272156e+01   -2.0470699668e-01
    2.8799259186e+01   -2.0719599724e-01
    2.8898515701e+01   -2.0967899263e-01
    2.9000066757e+01   -2.1223199368e-01
    2.9099683762e+01   -2.1474699676e-01
    2.9199268341e+01   -2.1727299690e-01
    2.9299737930e+01   -2.1983499825e-01
    2.9399843216e+01   -2.2240500152e-01
    2.9499868393e+01   -2.2498899698e-01
    2.9599601746e+01   -2.2758400440e-01
    2.9699186325e+01   -2.3019300401e-01
    2.9799734116e+01   -2.3284199834e-01
    2.9898603439e+01   -2.3546199501e-01
    3.0000049591e+01   -2.3816299438e-01
    3.0100063324e+01   -2.4084100127e-01
    3.0198907852e+01   -2.4350300431e-01
    3.0298509598e+01   -2.4620200694e-01
    3.0399875641e+01   -2.4897100031e-01
    3.0500019073e+01   -2.5172799826e-01
    3.0598609924e+01   -2.5446400046e-01
    3.0698406219e+01   -2.5725498796e-01
    3.0799718857e+01   -2.6010701060e-01
    3.0899356842e+01   -2.6292899251e-01
    3.0998962402e+01   -2.6576399803e-01
    3.1098665237e+01   -2.6861798763e-01
    3.1199056625e+01   -2.7150699496e-01
    3.1299251556e+01   -2.7441000938e-01
    3.1399110794e+01   -2.7732500434e-01
    3.1498756409e+01   -2.8025600314e-01
    3.1598405838e+01   -2.8321099281e-01
    3.1699913025e+01   -2.8624299169e-01
    3.1799804688e+01   -2.8924798965e-01
    3.1899681091e+01   -2.9227000475e-01
    3.1999052048e+01   -2.9529199004e-01
    3.2099323273e+01   -2.9835700989e-01
    3.2199371338e+01   -3.0143201351e-01
    3.2298988342e+01   -3.0451399088e-01
    3.2398632050e+01   -3.0761900544e-01
    3.2498420715e+01   -3.1075400114e-01
    3.2599910736e+01   -3.1396600604e-01
    3.2699768066e+01   -3.1714800000e-01
    3.2799617767e+01   -3.2034599781e-01
    3.2899360657e+01   -3.2355400920e-01
    3.2999015808e+01   -3.2677000761e-01
    3.3098899841e+01   -3.3000299335e-01
    3.3198604584e+01   -3.3324301243e-01
    3.3298553467e+01   -3.3650800586e-01
    3.3399997711e+01   -3.3984300494e-01
    3.3499824524e+01   -3.4314998984e-01
    3.3599815369e+01   -3.4648799896e-01
    3.3699512482e+01   -3.4983998537e-01
    3.3799373627e+01   -3.5321998596e-01
    3.3899036407e+01   -3.5661199689e-01
    3.3998699188e+01   -3.6002200842e-01
    3.4098373413e+01   -3.6344999075e-01
    3.4199874878e+01   -3.6696198583e-01
    3.4299705505e+01   -3.7044098973e-01
    3.4399768829e+01   -3.7395998836e-01
    3.4498657227e+01   -3.7747099996e-01
    3.4598381042e+01   -3.8104900718e-01
    3.4699794769e+01   -3.8472399116e-01
    3.4799514771e+01   -3.8837200403e-01
    3.4899227142e+01   -3.9204999804e-01
    3.4998603821e+01   -3.9574500918e-01
    3.5098575592e+01   -3.9949199557e-01
    3.5198608398e+01   -4.0327298641e-01
    3.5298660278e+01   -4.0709298849e-01
    3.5398582458e+01   -4.1095000505e-01
    3.5500026703e+01   -4.1491198540e-01
    3.5598468781e+01   -4.1880500317e-01
    3.5698684692e+01   -4.2281401157e-01
    3.5799022675e+01   -4.2687198520e-01
    3.5898857117e+01   -4.3094998598e-01
    3.5998668671e+01   -4.3506398797e-01
    3.6098640442e+01   -4.3922099471e-01
    3.6198802948e+01   -4.4342398643e-01
    3.6299861908e+01   -4.4770500064e-01
    3.6399528503e+01   -4.5197001100e-01
    3.6499515533e+01   -4.5629298687e-01
    3.6599578857e+01   -4.6066498756e-01
    3.6699325562e+01   -4.6506500244e-01
    3.6799152374e+01   -4.6950501204e-01
    3.6899131775e+01   -4.7398498654e-01
    3.6998886108e+01   -4.7848400474e-01
    3.7098606110e+01   -4.8300901055e-01
    3.7200000763e+01   -4.8763999343e-01
    3.7299800873e+01   -4.9222999811e-01
    3.7399890900e+01   -4.9687001109e-01
    3.7499855042e+01   -5.0154197216e-01
    3.7599784851e+01   -5.0625097752e-01
    3.7699523926e+01   -5.1098698378e-01
    3.7799243927e+01   -5.1575297117e-01
    3.7898952484e+01   -5.2054697275e-01
    3.7998653412e+01   -5.2536398172e-01
    3.8098350525e+01   -5.3020399809e-01
    3.8199798584e+01   -5.3515201807e-01
    3.8299514771e+01   -5.4004198313e-01
    3.8399158478e+01   -5.4495400190e-01
    3.8498821259e+01   -5.4989701509e-01
    3.8598445892e+01   -5.5486601591e-01
    3.8699844360e+01   -5.5995100737e-01
    3.8799057007e+01   -5.6494998932e-01
    3.8898952484e+01   -5.7000100613e-01
    3.8998905182e+01   -5.7507097721e-01
    3.9098583221e+01   -5.8014398813e-01
    3.9199935913e+01   -5.8531999588e-01
    3.9299739838e+01   -5.9043997526e-01
    3.9399703979e+01   -5.9559601545e-01
    3.9499378204e+01   -6.0076701641e-01
    3.9599060059e+01   -6.0597002506e-01
    3.9698734283e+01   -6.1120200157e-01
    3.9799339294e+01   -6.1650997400e-01
    3.9899013519e+01   -6.2179201841e-01
    3.9998680115e+01   -6.2709397078e-01
    4.0098403931e+01   -6.3242000341e-01
    4.0198535919e+01   -6.3779097795e-01
    4.0299880981e+01   -6.4325702190e-01
    4.0399543762e+01   -6.4866602421e-01
    4.0499343872e+01   -6.5411901474e-01
    4.0598827362e+01   -6.5959197283e-01
    4.0698852539e+01   -6.6513001919e-01
    4.0798526764e+01   -6.7067801952e-01
    4.0899890900e+01   -6.7634701729e-01
    4.0999519348e+01   -6.8194198608e-01
    4.1099147797e+01   -6.8755799532e-01
    4.1198783875e+01   -6.9320100546e-01
    4.1298873901e+01   -6.9889998436e-01
    4.1398681641e+01   -7.0461797714e-01
    4.1499885559e+01   -7.1045702696e-01
    4.1598258972e+01   -7.1617400646e-01
    4.1699592590e+01   -7.2210097313e-01
    4.1799850464e+01   -7.2799897194e-01
    4.1898513794e+01   -7.3383200169e-01
    4.1999584198e+01   -7.3983299732e-01
    4.2099063873e+01   -7.4576401711e-01
    4.2198543549e+01   -7.5172299147e-01
    4.2299808502e+01   -7.5782102346e-01
    4.2399459839e+01   -7.6385998726e-01
    4.2499191284e+01   -7.6994401217e-01
    4.2598945618e+01   -7.7606898546e-01
    4.2699180603e+01   -7.8225702047e-01
    4.2798889160e+01   -7.8844201565e-01
    4.2899635315e+01   -7.9471200705e-01
    4.2999271393e+01   -8.0093002319e-01
    4.3098159790e+01   -8.0711901188e-01
    4.3198822021e+01   -8.1343901157e-01
    4.3298522949e+01   -8.1972801685e-01
    4.3398273468e+01   -8.2605499029e-01
    4.3499622345e+01   -8.3252400160e-01
    4.3599685669e+01   -8.3895397186e-01
    4.3698249817e+01   -8.4532600641e-01
    4.3799583435e+01   -8.5191202164e-01
    4.3899295807e+01   -8.5842400789e-01
    4.3999069214e+01   -8.6496597528e-01
    4.4098800659e+01   -8.7153202295e-01
    4.4198482513e+01   -8.7812799215e-01
    4.4299835205e+01   -8.8487702608e-01
    4.4398761749e+01   -8.9151102304e-01
    4.4498676300e+01   -8.9826697111e-01
    4.4598949432e+01   -9.0510499477e-01
    4.4698806763e+01   -9.1197198629e-01
    4.4798488617e+01   -9.1887998581e-01
    4.4899852753e+01   -9.2595499754e-01
    4.4999008179e+01   -9.3292099237e-01
    4.5099197388e+01   -9.4000601768e-01
    4.5199680328e+01   -9.4716298580e-01
    4.5299793243e+01   -9.5435100794e-01
    4.5399318695e+01   -9.6156102419e-01
    4.5499282837e+01   -9.6887302399e-01
    4.5599781036e+01   -9.7629702091e-01
    4.5699436188e+01   -9.8372799158e-01
    4.5799232483e+01   -9.9123501778e-01
    4.5898929596e+01   -9.9879401922e-01
    4.5998806000e+01   -1.0064200163e+00
    4.6099487305e+01   -1.0141700506e+00
    4.6198360443e+01   -1.0218299627e+00
    4.6298870087e+01   -1.0296800137e+00
    4.6398773193e+01   -1.0375499725e+00
    4.6498664856e+01   -1.0454900265e+00
    4.6598819733e+01   -1.0535099506e+00
    4.6698665619e+01   -1.0615799427e+00
    4.6798358917e+01   -1.0696899891e+00
    4.6898403168e+01   -1.0778700113e+00
    4.6998260498e+01   -1.0860899687e+00
    4.7099792480e+01   -1.0944900513e+00
    4.7199512482e+01   -1.1027899981e+00
    4.7299133301e+01   -1.1111199856e+00
    4.7398738861e+01   -1.1195000410e+00
    4.7498825073e+01   -1.1279799938e+00
    4.7599601746e+01   -1.1365699768e+00
    4.7699115753e+01   -1.1451100111e+00
    4.7798767090e+01   -1.1536999941e+00
    4.7898601532e+01   -1.1623500586e+00
    4.7999797821e+01   -1.1711499691e+00
    4.8099239349e+01   -1.1798299551e+00
    4.8198898315e+01   -1.1885600090e+00
    4.8298545837e+01   -1.1973299980e+00
    4.8399639130e+01   -1.2062599659e+00
    4.8499305725e+01   -1.2151000500e+00
    4.8598670959e+01   -1.2239700556e+00
    4.8698516846e+01   -1.2329100370e+00
    4.8799671173e+01   -1.2420099974e+00
    4.8899730682e+01   -1.2510399818e+00
    4.8999511719e+01   -1.2600599527e+00
    4.9099212646e+01   -1.2691099644e+00
    4.9198623657e+01   -1.2781499624e+00
    4.9298419952e+01   -1.2872600555e+00
    4.9398452759e+01   -1.2964400053e+00
    4.9499637604e+01   -1.3057600260e+00
    4.9599388123e+01   -1.3150000572e+00
    4.9698822021e+01   -1.3242599964e+00
    4.9799747467e+01   -1.3336900473e+00
    4.9899806976e+01   -1.3430800438e+00
    4.9999237061e+01   -1.3524399996e+00
    5.0098670959e+01   -1.3618400097e+00
    5.0199291229e+01   -1.3713899851e+00
    5.0298717499e+01   -1.3808599710e+00
    5.0398162842e+01   -1.3903900385e+00
    5.0498939514e+01   -1.4000999928e+00
    5.0599620819e+01   -1.4098600149e+00
    5.0699768066e+01   -1.4196200371e+00
    5.0799293518e+01   -1.4293700457e+00
    5.0898853302e+01   -1.4391700029e+00
    5.0998249054e+01   -1.4489799738e+00
    5.1099605560e+01   -1.4590300322e+00
    5.1199153900e+01   -1.4689300060e+00
    5.1299350739e+01   -1.4789500237e+00
    5.1399227142e+01   -1.4889999628e+00
    5.1498455048e+01   -1.4990299940e+00
    5.1598487854e+01   -1.5092099905e+00
    5.1699230194e+01   -1.5195200443e+00
    5.1799263000e+01   -1.5298099518e+00
    5.1899345398e+01   -1.5401500463e+00
    5.1998989105e+01   -1.5504800081e+00
    5.2098205566e+01   -1.5608099699e+00
    5.2199108124e+01   -1.5713499784e+00
    5.2298542023e+01   -1.5817799568e+00
    5.2398197174e+01   -1.5923000574e+00
    5.2499481201e+01   -1.6030399799e+00
    5.2599246979e+01   -1.6136699915e+00
    5.2699344635e+01   -1.6243900061e+00
    5.2799541473e+01   -1.6351599693e+00
    5.2898468018e+01   -1.6458300352e+00
    5.2999664307e+01   -1.6567699909e+00
    5.3098884583e+01   -1.6675200462e+00
    5.3199352264e+01   -1.6784399748e+00
    5.3299064636e+01   -1.6893199682e+00
    5.3399028778e+01   -1.7002700567e+00
    5.3498477936e+01   -1.7112300396e+00
    5.3598152161e+01   -1.7222800255e+00
    5.3699234009e+01   -1.7335400581e+00
    5.3798679352e+01   -1.7446800470e+00
    5.3898395538e+01   -1.7558900118e+00
    5.3998210907e+01   -1.7671500444e+00
    5.4099525452e+01   -1.7786300182e+00
    5.4199005127e+01   -1.7899500132e+00
    5.4298465729e+01   -1.8013199568e+00
    5.4398651123e+01   -1.8128499985e+00
    5.4498073578e+01   -1.8243700266e+00
    5.4598510742e+01   -1.8360799551e+00
    5.4698493958e+01   -1.8478300571e+00
    5.4799705505e+01   -1.8597899675e+00
    5.4899185181e+01   -1.8716299534e+00
    5.4998458862e+01   -1.8834999800e+00
    5.5098869324e+01   -1.8955899477e+00
    5.5198421478e+01   -1.9076299667e+00
    5.5298675537e+01   -1.9198499918e+00
    5.5398860931e+01   -1.9321500063e+00
    5.5498931885e+01   -1.9445300102e+00
    5.5599720001e+01   -1.9571000338e+00
    5.5699172974e+01   -1.9696099758e+00
    5.5798778534e+01   -1.9822200537e+00
    5.5898418427e+01   -1.9949300289e+00
    5.5998451233e+01   -2.0077600479e+00
    5.6099250793e+01   -2.0207700729e+00
    5.6199199677e+01   -2.0337600708e+00
    5.6298458099e+01   -2.0467300415e+00
    5.6399513245e+01   -2.0600199699e+00
    5.6499183655e+01   -2.0732300282e+00
    5.6598861694e+01   -2.0865199566e+00
    5.6698699951e+01   -2.0999200344e+00
    5.6798175812e+01   -2.1133499146e+00
    5.6898345947e+01   -2.1269500256e+00
    5.6998332977e+01   -2.1405699253e+00
    5.7098285675e+01   -2.1542499065e+00
    5.7199680328e+01   -2.1681900024e+00
    5.7299068451e+01   -2.1819100380e+00
    5.7398483276e+01   -2.1956999302e+00
    5.7498657227e+01   -2.2096600533e+00
    5.7599300385e+01   -2.2237598896e+00
    5.7698551178e+01   -2.2377400398e+00
    5.7798160553e+01   -2.2518200874e+00
    5.7898082733e+01   -2.2660000324e+00
    5.7999015808e+01   -2.2803699970e+00
    5.8098190308e+01   -2.2945299149e+00
    5.8199565887e+01   -2.3090500832e+00
    5.8298091888e+01   -2.3232100010e+00
    5.8398857117e+01   -2.3377399445e+00
    5.8498310089e+01   -2.3521299362e+00
    5.8599094391e+01   -2.3667700291e+00
    5.8698657990e+01   -2.3812899590e+00
    5.8798557281e+01   -2.3959000111e+00
    5.8898353577e+01   -2.4105401039e+00
    5.8998191833e+01   -2.4252300262e+00
    5.9098022461e+01   -2.4399499893e+00
    5.9198860168e+01   -2.4548499584e+00
    5.9298591614e+01   -2.4696300030e+00
    5.9398792267e+01   -2.4845399857e+00
    5.9498268127e+01   -2.4993898869e+00
    5.9598152161e+01   -2.5143699646e+00
    5.9699028015e+01   -2.5295701027e+00
    5.9798957825e+01   -2.5446801186e+00
    5.9898925781e+01   -2.5598499775e+00
    5.9998096466e+01   -2.5749499798e+00
    6.0098972321e+01   -2.5903499126e+00
    6.0198276520e+01   -2.6055700779e+00
    6.0299133301e+01   -2.6210999489e+00
    6.0398368835e+01   -2.6364400387e+00
    6.0498920441e+01   -2.6520600319e+00
    6.0598987579e+01   -2.6676900387e+00
    6.0699398041e+01   -2.6834499836e+00
    6.0798805237e+01   -2.6991200447e+00
    6.0898227692e+01   -2.7148599625e+00
    6.0999065399e+01   -2.7308700085e+00
    6.1098628998e+01   -2.7467300892e+00
    6.1198814392e+01   -2.7627398968e+00
    6.1299121857e+01   -2.7788300514e+00
    6.1399040222e+01   -2.7949399948e+00
    6.1498008728e+01   -2.8109700680e+00
    6.1598419189e+01   -2.8273100853e+00
    6.1698120117e+01   -2.8436100483e+00
    6.1798183441e+01   -2.8600499630e+00
    6.1899089813e+01   -2.8766798973e+00
    6.1997974396e+01   -2.8930299282e+00
    6.2098632812e+01   -2.9097299576e+00
    6.2199283600e+01   -2.9264700413e+00
    6.2298591614e+01   -2.9430599213e+00
    6.2398288727e+01   -2.9597799778e+00
    6.2499523163e+01   -2.9768300056e+00
    6.2599418640e+01   -2.9937300682e+00
    6.2697952271e+01   -3.0104699135e+00
    6.2798286438e+01   -3.0275700092e+00
    6.2898574829e+01   -3.0446999073e+00
    6.2997989655e+01   -3.0617299080e+00
    6.3097953796e+01   -3.0788800716e+00
    6.3199584961e+01   -3.0963699818e+00
    6.3299255371e+01   -3.1135699749e+00
    6.3399276733e+01   -3.1309099197e+00
    6.3498580933e+01   -3.1482000351e+00
    6.3598197937e+01   -3.1656200886e+00
    6.3698497772e+01   -3.1832499504e+00
    6.3799430847e+01   -3.2010700703e+00
    6.3899143219e+01   -3.2187299728e+00
    6.3999095917e+01   -3.2365000248e+00
    6.4098510742e+01   -3.2542400360e+00
    6.4199485779e+01   -3.2723100185e+00
    6.4298751831e+01   -3.2901599407e+00
    6.4399353027e+01   -3.3083400726e+00
    6.4499092102e+01   -3.3264698982e+00
    6.4599304199e+01   -3.3447999954e+00
    6.4699501038e+01   -3.3632299900e+00
    6.4798828125e+01   -3.3815999031e+00
    6.4898124695e+01   -3.4000599384e+00
    6.4998863220e+01   -3.4188799858e+00
    6.5099067688e+01   -3.4376900196e+00
    6.5199142456e+01   -3.4565699100e+00
    6.5297943115e+01   -3.4753100872e+00
    6.5398216248e+01   -3.4944500923e+00
    6.5498413086e+01   -3.5137000084e+00
    6.5599433899e+01   -3.5332300663e+00
    6.5698699951e+01   -3.5525500774e+00
    6.5797973633e+01   -3.5719799995e+00
    6.5898910522e+01   -3.5918500423e+00
    6.5998947144e+01   -3.6116399765e+00
    6.6098472595e+01   -3.6314299107e+00
    6.6198242188e+01   -3.6513600349e+00
    6.6297935486e+01   -3.6713700294e+00
    6.6398002625e+01   -3.6915700436e+00
    6.6499168396e+01   -3.7120900154e+00
    6.6598495483e+01   -3.7323501110e+00
    6.6698181152e+01   -3.7527899742e+00
    6.6799133301e+01   -3.7735900879e+00
    6.6899520874e+01   -3.7943499088e+00
    6.6997894287e+01   -3.8147699833e+00
    6.7097915649e+01   -3.8355998993e+00
    6.7199249268e+01   -3.8567700386e+00
    6.7298408508e+01   -3.8775599003e+00
    6.7397857666e+01   -3.8984999657e+00
    6.7498176575e+01   -3.9196999073e+00
    6.7598976135e+01   -3.9410800934e+00
    6.7697982788e+01   -3.9621698856e+00
    6.7799400330e+01   -3.9838500023e+00
    6.7899383545e+01   -4.0052800179e+00
    6.7998321533e+01   -4.0265498161e+00
    6.8098915100e+01   -4.0482201576e+00
    6.8198638916e+01   -4.0697498322e+00
    6.8298904419e+01   -4.0914502144e+00
    6.8399398804e+01   -4.1132698059e+00
    6.8498512268e+01   -4.1348400116e+00
    6.8599021912e+01   -4.1567997932e+00
    6.8698196411e+01   -4.1785202026e+00
    6.8798377991e+01   -4.2005400658e+00
    6.8899055481e+01   -4.2227101326e+00
    6.8998924255e+01   -4.2447500229e+00
    6.9098777771e+01   -4.2668299675e+00
    6.9199478149e+01   -4.2891502380e+00
    6.9299110413e+01   -4.3112897873e+00
    6.9399406433e+01   -4.3336400986e+00
    6.9498710632e+01   -4.3558502197e+00
    6.9598670959e+01   -4.3783001900e+00
    6.9697883606e+01   -4.4006500244e+00
    6.9799194336e+01   -4.4235601425e+00
    6.9898956299e+01   -4.4461798668e+00
    6.9997909546e+01   -4.4686899185e+00
    7.0098564148e+01   -4.4916400909e+00
    7.0198677063e+01   -4.5145401955e+00
    7.0299339294e+01   -4.5376400948e+00
    7.0398384094e+01   -4.5604600906e+00
    7.0498428345e+01   -4.5836100578e+00
    7.0599357605e+01   -4.6070699692e+00
    7.0698265076e+01   -4.6301498413e+00
    7.0799247742e+01   -4.6538000107e+00
    7.0898490906e+01   -4.6771202087e+00
    7.0999168396e+01   -4.7008500099e+00
    7.1098709106e+01   -4.7243700027e+00
    7.1198440552e+01   -4.7480001450e+00
    7.1298713684e+01   -4.7718300819e+00
    7.1398773193e+01   -4.7957100868e+00
    7.1499237061e+01   -4.8197698593e+00
    7.1599029541e+01   -4.8437800407e+00
    7.1699096680e+01   -4.8679499626e+00
    7.1799247742e+01   -4.8922200203e+00
    7.1897949219e+01   -4.9162101746e+00
    7.1998474121e+01   -4.9407100677e+00
    7.2098976135e+01   -4.9652700424e+00
    7.2197792053e+01   -4.9894800186e+00
    7.2298767090e+01   -5.0142998695e+00
    7.2398544312e+01   -5.0388998985e+00
    7.2497924805e+01   -5.0634899139e+00
    7.2597839355e+01   -5.0883002281e+00
    7.2698532104e+01   -5.1133899689e+00
    7.2797851562e+01   -5.1382098198e+00
    7.2899330139e+01   -5.1636199951e+00
    7.2998680115e+01   -5.1885499954e+00
    7.3098632812e+01   -5.2136697769e+00
    7.3198600769e+01   -5.2388601303e+00
    7.3298156738e+01   -5.2640099525e+00
    7.3398269653e+01   -5.2893900871e+00
    7.3499168396e+01   -5.3150701523e+00
    7.3598701477e+01   -5.3404998779e+00
    7.3699394226e+01   -5.3663301468e+00
    7.3798507690e+01   -5.3918499947e+00
    7.3898231506e+01   -5.4176001549e+00
    7.3998115540e+01   -5.4434700012e+00
    7.4099342346e+01   -5.4697699547e+00
    7.4198501587e+01   -5.4956102371e+00
    7.4299324036e+01   -5.5219798088e+00
    7.4398574829e+01   -5.5480499268e+00
    7.4498466492e+01   -5.5743999481e+00
    7.4598838806e+01   -5.6010098457e+00
    7.4699096680e+01   -5.6277298927e+00
    7.4798225403e+01   -5.6542601585e+00
    7.4899070740e+01   -5.6813597679e+00
    7.4999382019e+01   -5.7084298134e+00
    7.5098289490e+01   -5.7352299690e+00
    7.5197906494e+01   -5.7623200417e+00
    7.5298370361e+01   -5.7897601128e+00
    7.5398590088e+01   -5.8172698021e+00
    7.5498809814e+01   -5.8449101448e+00
    7.5597846985e+01   -5.8723697662e+00
    7.5698677063e+01   -5.9004597664e+00
    7.5798011780e+01   -5.9282698631e+00
    7.5898864746e+01   -5.9566302299e+00
    7.5998992920e+01   -5.9848999977e+00
    7.6098281860e+01   -6.0130300522e+00
    7.6197845459e+01   -6.0413498878e+00
    7.6299232483e+01   -6.0702900887e+00
    7.6398193359e+01   -6.0986599922e+00
    7.6499282837e+01   -6.1277499199e+00
    7.6598464966e+01   -6.1564202309e+00
    7.6697837830e+01   -6.1852498055e+00
    7.6798622131e+01   -6.2146000862e+00
    7.6898971558e+01   -6.2439098358e+00
    7.6999008179e+01   -6.2732100487e+00
    7.7098983765e+01   -6.3025698662e+00
    7.7198654175e+01   -6.3319001198e+00
    7.7299316406e+01   -6.3616099358e+00
    7.7398513794e+01   -6.3909602165e+00
    7.7498863220e+01   -6.4207501411e+00
    7.7597900391e+01   -6.4502301216e+00
    7.7698417664e+01   -6.4802398682e+00
    7.7798255920e+01   -6.5101299286e+00
    7.7898216248e+01   -6.5401201248e+00
    7.7998725891e+01   -6.5703301430e+00
    7.8099159241e+01   -6.6005702019e+00
    7.8198577881e+01   -6.6305599213e+00
    7.8299102783e+01   -6.6609401703e+00
    7.8397781372e+01   -6.6908102036e+00
    7.8498405457e+01   -6.7213501930e+00
    7.8599090576e+01   -6.7519898415e+00
    7.8698196411e+01   -6.7822098732e+00
    7.8798538208e+01   -6.8128900528e+00
    7.8899223328e+01   -6.8437399864e+00
    7.8998992920e+01   -6.8743500710e+00
    7.9098937988e+01   -6.9050798416e+00
    7.9197990417e+01   -6.9355797768e+00
    7.9299171448e+01   -6.9668002129e+00
    7.9397720337e+01   -6.9972801208e+00
    7.9499130249e+01   -7.0287299156e+00
    7.9599044800e+01   -7.0598201752e+00
    7.9698135376e+01   -7.0907301903e+00
    7.9797996521e+01   -7.1219801903e+00
    7.9899307251e+01   -7.1537599564e+00
    7.9998176575e+01   -7.1848502159e+00
    8.0098747253e+01   -7.2165498734e+00
    8.0198181152e+01   -7.2479701042e+00
    8.0298767090e+01   -7.2798399925e+00
    8.0397712708e+01   -7.3112797737e+00
    8.0498893738e+01   -7.3435502052e+00
    8.0599304199e+01   -7.3756899834e+00
    8.0698326111e+01   -7.4074897766e+00
    8.0799285889e+01   -7.4400100708e+00
    8.0898399353e+01   -7.4720201492e+00
    8.0999038696e+01   -7.5046000481e+00
    8.1098533630e+01   -7.5368800163e+00
    8.1198959351e+01   -7.5695300102e+00
    8.1299057007e+01   -7.6021599770e+00
    8.1398963928e+01   -7.6348199844e+00
    8.1497779846e+01   -7.6672301292e+00
    8.1599166870e+01   -7.7005901337e+00
    8.1698730469e+01   -7.7334499359e+00
    8.1798835754e+01   -7.7665700912e+00
    8.1899276733e+01   -7.7999000549e+00
    8.1997909546e+01   -7.8326897621e+00
    8.2098396301e+01   -7.8661599159e+00
    8.2198867798e+01   -7.8996901512e+00
    8.2298049927e+01   -7.9328699112e+00
    8.2397987366e+01   -7.9663901329e+00
    8.2498893738e+01   -8.0003299713e+00
    8.2598670959e+01   -8.0339803696e+00
    8.2699256897e+01   -8.0679903030e+00
    8.2798698425e+01   -8.1016902924e+00
    8.2898689270e+01   -8.1356401443e+00
    8.2998016357e+01   -8.1694097519e+00
    8.3097946167e+01   -8.2034301758e+00
    8.3198799133e+01   -8.2378396988e+00
    8.3298324585e+01   -8.2718696594e+00
    8.3398475647e+01   -8.3062000275e+00
    8.3497711182e+01   -8.3403196335e+00
    8.3598815918e+01   -8.3752098083e+00
    8.3698532104e+01   -8.4097204208e+00
    8.3797630310e+01   -8.4441204071e+00
    8.3899002075e+01   -8.4793996811e+00
    8.3998886108e+01   -8.5142498016e+00
    8.4098083496e+01   -8.5489397049e+00
    8.4198913574e+01   -8.5842895508e+00
    8.4298049927e+01   -8.6191501617e+00
    8.4397842407e+01   -8.6543397903e+00
    8.4497871399e+01   -8.6897497177e+00
    8.4598182678e+01   -8.7253999710e+00
    8.4698356628e+01   -8.7611303329e+00
    8.4797630310e+01   -8.7966604233e+00
    8.4898460388e+01   -8.8328800201e+00
    8.4999137878e+01   -8.8691596985e+00
    8.5098823547e+01   -8.9051799774e+00
    8.5199111938e+01   -8.9415397644e+00
    8.5297897339e+01   -8.9774703979e+00
    8.5398010254e+01   -9.0140199661e+00
    8.5497940063e+01   -9.0506401062e+00
    8.5599052429e+01   -9.0878496170e+00
    8.5698196411e+01   -9.1244697571e+00
    8.5798408508e+01   -9.1616296768e+00
    8.5897590637e+01   -9.1985301971e+00
    8.5999221802e+01   -9.2364597321e+00
    8.6098236084e+01   -9.2735099792e+00
    8.6198234558e+01   -9.3110399246e+00
    8.6297973633e+01   -9.3485698700e+00
    8.6398239136e+01   -9.3864097595e+00
    8.6497825623e+01   -9.4240999222e+00
    8.6598640442e+01   -9.4623804092e+00
    8.6697860718e+01   -9.5001602173e+00
    8.6798599243e+01   -9.5386104584e+00
    8.6899116516e+01   -9.5770797729e+00
    8.6999008179e+01   -9.6153802872e+00
    8.7098831177e+01   -9.6537103653e+00
    8.7198524475e+01   -9.6920700073e+00
    8.7297599792e+01   -9.7302503586e+00
    8.7398666382e+01   -9.7692804337e+00
    8.7498992920e+01   -9.8081102371e+00
    8.7597908020e+01   -9.8464803696e+00
    8.7698410034e+01   -9.8855495453e+00
    8.7798126221e+01   -9.9243803024e+00
    8.7897895813e+01   -9.9633102417e+00
    8.7998588562e+01   -1.0002599716e+01
    8.8099029541e+01   -1.0041899681e+01
    8.8198051453e+01   -1.0080699921e+01
    8.8297927856e+01   -1.0119899750e+01
    8.8398300171e+01   -1.0159299850e+01
    8.8498802185e+01   -1.0198800087e+01
    8.8597846985e+01   -1.0237899780e+01
    8.8698600769e+01   -1.0277600288e+01
    8.8798103333e+01   -1.0317000389e+01
    8.8898239136e+01   -1.0356699944e+01
    8.8997764587e+01   -1.0396200180e+01
    8.9097564697e+01   -1.0435799599e+01
    8.9198410034e+01   -1.0475999832e+01
    8.9297744751e+01   -1.0515500069e+01
    8.9397682190e+01   -1.0555500031e+01
    8.9497871399e+01   -1.0595499992e+01
    8.9597648621e+01   -1.0635600090e+01
    8.9698661804e+01   -1.0676199913e+01
    8.9798271179e+01   -1.0716400146e+01
    8.9897743225e+01   -1.0756500244e+01
    8.9998344421e+01   -1.0797300339e+01
    9.0098991394e+01   -1.0838100433e+01
    9.0197540283e+01   -1.0878100395e+01
    9.0298309326e+01   -1.0919099808e+01
    9.0399032593e+01   -1.0960300446e+01
    9.0498954773e+01   -1.1001199722e+01
    9.0598358154e+01   -1.1041999817e+01
    9.0697532654e+01   -1.1082799911e+01
    9.0798568726e+01   -1.1124500275e+01
    9.0898002625e+01   -1.1165599823e+01
    9.0998703003e+01   -1.1207300186e+01
    9.1098129272e+01   -1.1248600006e+01
    9.1197578430e+01   -1.1289899826e+01
    9.1299072266e+01   -1.1332200050e+01
    9.1398910522e+01   -1.1373800278e+01
    9.1497810364e+01   -1.1415200233e+01
    9.1597610474e+01   -1.1456999779e+01
    9.1698753357e+01   -1.1499500275e+01
    9.1798583984e+01   -1.1541600227e+01
    9.1897865295e+01   -1.1583499908e+01
    9.1998123169e+01   -1.1625800133e+01
    9.2098678589e+01   -1.1668399811e+01
    9.2197540283e+01   -1.1710300446e+01
    9.2298370361e+01   -1.1753100395e+01
    9.2398117065e+01   -1.1795499802e+01
    9.2498939514e+01   -1.1838500023e+01
    9.2598602295e+01   -1.1881099701e+01
    9.2697456360e+01   -1.1923399925e+01
    9.2798309326e+01   -1.1966600418e+01
    9.2897972107e+01   -1.2009400368e+01
    9.2998962402e+01   -1.2052800179e+01
    9.3098892212e+01   -1.2095800400e+01
    9.3198997498e+01   -1.2138999939e+01
    9.3298439026e+01   -1.2181900024e+01
    9.3398330688e+01   -1.2225099564e+01
    9.3497573853e+01   -1.2268199921e+01
    9.3598655701e+01   -1.2312100410e+01
    9.3698608398e+01   -1.2355699539e+01
    9.3797752380e+01   -1.2399000168e+01
    9.3899002075e+01   -1.2443400383e+01
    9.3998741150e+01   -1.2487099648e+01
    9.4098075867e+01   -1.2530799866e+01
    9.4198997498e+01   -1.2575200081e+01
    9.4298240662e+01   -1.2619000435e+01
    9.4398742676e+01   -1.2663499832e+01
    9.4498855591e+01   -1.2708000183e+01
    9.4599044800e+01   -1.2752599716e+01
    9.4698997498e+01   -1.2797200203e+01
    9.4798210144e+01   -1.2841699600e+01
    9.4897445679e+01   -1.2886199951e+01
    9.4998138428e+01   -1.2931599617e+01
    9.5097686768e+01   -1.2976499557e+01
    9.5198081970e+01   -1.3021900177e+01
    9.5298728943e+01   -1.3067600250e+01
    9.5398635864e+01   -1.3112999916e+01
    9.5498374939e+01   -1.3158599854e+01
    9.5597663879e+01   -1.3204000473e+01
    9.5698524475e+01   -1.3250399590e+01
    9.5797790527e+01   -1.3296099663e+01
    9.5898986816e+01   -1.3342800140e+01
    9.5998985291e+01   -1.3389200211e+01
    9.6098060608e+01   -1.3435099602e+01
    9.6197578430e+01   -1.3481399536e+01
    9.6297988892e+01   -1.3528200150e+01
    9.6398582458e+01   -1.3575200081e+01
    9.6498344421e+01   -1.3621899605e+01
    9.6597564697e+01   -1.3668499947e+01
    9.6698661804e+01   -1.3715999603e+01
    9.6797798157e+01   -1.3762800217e+01
    9.6898208618e+01   -1.3810199738e+01
    9.6997932434e+01   -1.3857299805e+01
    9.7097503662e+01   -1.3904500008e+01
    9.7198707581e+01   -1.3952500343e+01
    9.7297836304e+01   -1.3999500275e+01
    9.7398887634e+01   -1.4047599792e+01
    9.7497428894e+01   -1.4094499588e+01
    9.7598175049e+01   -1.4142600060e+01
    9.7698791504e+01   -1.4190699577e+01
    9.7798393250e+01   -1.4238400459e+01
    9.7897941589e+01   -1.4286199570e+01
    9.7998611450e+01   -1.4334500313e+01
    9.8097488403e+01   -1.4381999969e+01
    9.8198631287e+01   -1.4430700302e+01
    9.8297607422e+01   -1.4478400230e+01
    9.8398071289e+01   -1.4526800156e+01
    9.8498641968e+01   -1.4575400352e+01
    9.8597709656e+01   -1.4623299599e+01
    9.8698402405e+01   -1.4672100067e+01
    9.8798988342e+01   -1.4720899582e+01
    9.8899047852e+01   -1.4769499779e+01
    9.8998474121e+01   -1.4817899704e+01
    9.9098030090e+01   -1.4866399765e+01
    9.9198913574e+01   -1.4915599823e+01
    9.9298187256e+01   -1.4964099884e+01
    9.9397727966e+01   -1.5012800217e+01
    9.9497390747e+01   -1.5061699867e+01
    9.9598632812e+01   -1.5111399651e+01
    9.9697845459e+01   -1.5160300255e+01
    9.9798309326e+01   -1.5209899902e+01
    9.9898513794e+01   -1.5259400368e+01
    9.9997566223e+01   -1.5308400154e+01
    1.0009834290e+02   -1.5358400345e+01
    1.0019773865e+02   -1.5407799721e+01
    1.0029878998e+02   -1.5458100319e+01
    1.0039791870e+02   -1.5507499695e+01
    1.0049799347e+02   -1.5557499886e+01
    1.0059751129e+02   -1.5607399940e+01
    1.0069835663e+02   -1.5657999992e+01
    1.0079770660e+02   -1.5708000183e+01
    1.0089897919e+02   -1.5758999825e+01
    1.0099813843e+02   -1.5809100151e+01
    1.0109767151e+02   -1.5859399796e+01
    1.0119863129e+02   -1.5910400391e+01
    1.0129815674e+02   -1.5960900307e+01
    1.0139785004e+02   -1.6011499405e+01
    1.0149839783e+02   -1.6062599182e+01
    1.0159835815e+02   -1.6113500595e+01
    1.0169811249e+02   -1.6164400101e+01
    1.0179760742e+02   -1.6215299606e+01
    1.0189794922e+02   -1.6266700745e+01
    1.0199787140e+02   -1.6318000793e+01
    1.0209844208e+02   -1.6369600296e+01
    1.0219899750e+02   -1.6421300888e+01
    1.0229805756e+02   -1.6472299576e+01
    1.0239761353e+02   -1.6523599625e+01
    1.0249828339e+02   -1.6575599670e+01
    1.0259786224e+02   -1.6627099991e+01
    1.0269793701e+02   -1.6679000854e+01
    1.0279759979e+02   -1.6730699539e+01
    1.0289862823e+02   -1.6783199310e+01
    1.0299786377e+02   -1.6834800720e+01
    1.0309763336e+02   -1.6886800766e+01
    1.0319763947e+02   -1.6938899994e+01
    1.0329869080e+02   -1.6991600037e+01
    1.0339829254e+02   -1.7043699265e+01
    1.0349752045e+02   -1.7095800400e+01
    1.0359850311e+02   -1.7148799896e+01
    1.0369854736e+02   -1.7201499939e+01
    1.0379776001e+02   -1.7253900528e+01
    1.0389884949e+02   -1.7307300568e+01
    1.0399832153e+02   -1.7360000610e+01
    1.0409761810e+02   -1.7412599564e+01
    1.0419864655e+02   -1.7466299057e+01
    1.0429798889e+02   -1.7519199371e+01
    1.0439884186e+02   -1.7572999954e+01
    1.0449725342e+02   -1.7625699997e+01
    1.0459738159e+02   -1.7679399490e+01
    1.0469876099e+02   -1.7733900070e+01
    1.0479804993e+02   -1.7787500381e+01
    1.0489736176e+02   -1.7841100693e+01
    1.0499845886e+02   -1.7895900726e+01
    1.0509780121e+02   -1.7949800491e+01
    1.0519824982e+02   -1.8004400253e+01
    1.0529734039e+02   -1.8058500290e+01
    1.0539868164e+02   -1.8113800049e+01
    1.0549820709e+02   -1.8168399811e+01
    1.0559748840e+02   -1.8222999573e+01
    1.0569841766e+02   -1.8278600693e+01
    1.0579753113e+02   -1.8333400726e+01
    1.0589762878e+02   -1.8388799667e+01
    1.0599735260e+02   -1.8444200516e+01
    1.0609765625e+02   -1.8500000000e+01
    1.0619872284e+02   -1.8556299210e+01
    1.0629737854e+02   -1.8611400604e+01
    1.0639750671e+02   -1.8667400360e+01
    1.0649858856e+02   -1.8724100113e+01
    1.0659793091e+02   -1.8779899597e+01
    1.0669734192e+02   -1.8835899353e+01
    1.0679827118e+02   -1.8892799377e+01
    1.0689855194e+02   -1.8949499130e+01
    1.0699799347e+02   -1.9005699158e+01
    1.0709887695e+02   -1.9062900543e+01
    1.0719808960e+02   -1.9119199753e+01
    1.0729727936e+02   -1.9175500870e+01
    1.0739816284e+02   -1.9232900620e+01
    1.0749823761e+02   -1.9289899826e+01
    1.0759735870e+02   -1.9346500397e+01
    1.0769805145e+02   -1.9404100418e+01
    1.0779737091e+02   -1.9461000443e+01
    1.0789832306e+02   -1.9518899918e+01
    1.0799729919e+02   -1.9575700760e+01
    1.0809792328e+02   -1.9633499146e+01
    1.0819731903e+02   -1.9690700531e+01
    1.0829875946e+02   -1.9749200821e+01
    1.0839759064e+02   -1.9806200027e+01
    1.0849822235e+02   -1.9864400864e+01
    1.0859729767e+02   -1.9921800613e+01
    1.0869792938e+02   -1.9980100632e+01
    1.0879718018e+02   -2.0037700653e+01
    1.0889888763e+02   -2.0096900940e+01
    1.0899825287e+02   -2.0154699326e+01
    1.0909754181e+02   -2.0212600708e+01
    1.0919841003e+02   -2.0271400452e+01
    1.0929756927e+02   -2.0329399109e+01
    1.0939753723e+02   -2.0387899399e+01
    1.0949871063e+02   -2.0447299957e+01
    1.0959799194e+02   -2.0505599976e+01
    1.0969882202e+02   -2.0565000534e+01
    1.0979721832e+02   -2.0623100281e+01
    1.0989875793e+02   -2.0683099747e+01
    1.0999787140e+02   -2.0741800308e+01
    1.1009870911e+02   -2.0801500320e+01
    1.1019789124e+02   -2.0860399246e+01
    1.1029884338e+02   -2.0920499802e+01
    1.1039797974e+02   -2.0979499817e+01
    1.1049723816e+02   -2.1038799286e+01
    1.1059748077e+02   -2.1098800659e+01
    1.1069818878e+02   -2.1159200668e+01
    1.1079756927e+02   -2.1218799591e+01
    1.1089885712e+02   -2.1279699326e+01
    1.1099804688e+02   -2.1339399338e+01
    1.1109879303e+02   -2.1400199890e+01
    1.1119789886e+02   -2.1459999084e+01
    1.1129876709e+02   -2.1520900726e+01
    1.1139830017e+02   -2.1581199646e+01
    1.1149875641e+02   -2.1642099380e+01
    1.1159799957e+02   -2.1702400208e+01
    1.1169873810e+02   -2.1763700485e+01
    1.1179791260e+02   -2.1824100494e+01
    1.1189804840e+02   -2.1885200500e+01
    1.1199755859e+02   -2.1945999146e+01
    1.1209803009e+02   -2.2007499695e+01
    1.1219847107e+02   -2.2069000244e+01
    1.1229734802e+02   -2.2129600525e+01
    1.1239826202e+02   -2.2191600800e+01
    1.1249878693e+02   -2.2253499985e+01
    1.1259828949e+02   -2.2314800262e+01
    1.1269821930e+02   -2.2376499176e+01
    1.1279791260e+02   -2.2438199997e+01
    1.1289859772e+02   -2.2500499725e+01
    1.1299759674e+02   -2.2561800003e+01
    1.1309866333e+02   -2.2624399185e+01
    1.1319850159e+02   -2.2686399460e+01
    1.1329772186e+02   -2.2748100281e+01
    1.1339862823e+02   -2.2811000824e+01
    1.1349777222e+02   -2.2872900009e+01
    1.1359857941e+02   -2.2936000824e+01
    1.1369802094e+02   -2.2998300552e+01
    1.1379718781e+02   -2.3060699463e+01
    1.1389807129e+02   -2.3124200821e+01
    1.1399727631e+02   -2.3186700821e+01
    1.1409815216e+02   -2.3250499725e+01
    1.1419738770e+02   -2.3313299179e+01
    1.1429837799e+02   -2.3377300262e+01
    1.1439730072e+02   -2.3440099716e+01
    1.1449720764e+02   -2.3503799438e+01
    1.1459716797e+02   -2.3567600250e+01
    1.1469831848e+02   -2.3632400513e+01
    1.1479756165e+02   -2.3696100235e+01
    1.1489849854e+02   -2.3761100769e+01
    1.1499820709e+02   -2.3825300217e+01
    1.1509728241e+02   -2.3889299393e+01
    1.1519814301e+02   -2.3954599380e+01
    1.1529728699e+02   -2.4018899918e+01
    1.1539869690e+02   -2.4084899902e+01
    1.1549806976e+02   -2.4149700165e+01
    1.1559735107e+02   -2.4214599609e+01
    1.1569825745e+02   -2.4280799866e+01
    1.1579724884e+02   -2.4345899582e+01
    1.1589794922e+02   -2.4412300110e+01
    1.1599851227e+02   -2.4478700638e+01
    1.1609796906e+02   -2.4544500351e+01
    1.1619730377e+02   -2.4610399246e+01
    1.1629730988e+02   -2.4676799774e+01
    1.1639865112e+02   -2.4744300842e+01
    1.1649848938e+02   -2.4810899734e+01
    1.1659783936e+02   -2.4877300262e+01
    1.1669870758e+02   -2.4944900513e+01
    1.1679785156e+02   -2.5011499405e+01
    1.1689777374e+02   -2.5078699112e+01
    1.1699874878e+02   -2.5146699905e+01
    1.1709776306e+02   -2.5213399887e+01
    1.1719838715e+02   -2.5281400681e+01
    1.1729730225e+02   -2.5348300934e+01
    1.1739804840e+02   -2.5416500092e+01
    1.1749797058e+02   -2.5484399796e+01
    1.1759831238e+02   -2.5552600861e+01
    1.1769725800e+02   -2.5620100021e+01
    1.1779801941e+02   -2.5688800812e+01
    1.1789868927e+02   -2.5757699966e+01
    1.1799755859e+02   -2.5825399399e+01
    1.1809806061e+02   -2.5894300461e+01
    1.1819732666e+02   -2.5962499619e+01
    1.1829740143e+02   -2.6031299591e+01
    1.1839772797e+02   -2.6100400925e+01
    1.1849816895e+02   -2.6169700623e+01
    1.1859873962e+02   -2.6239200592e+01
    1.1869751740e+02   -2.6307600021e+01
    1.1879865265e+02   -2.6377700806e+01
    1.1889803314e+02   -2.6446699142e+01
    1.1899707031e+02   -2.6515499115e+01
    1.1909777069e+02   -2.6585599899e+01
    1.1919844055e+02   -2.6655799866e+01
    1.1929756927e+02   -2.6725000381e+01
    1.1939790344e+02   -2.6795200348e+01
    1.1949729156e+02   -2.6864900589e+01
    1.1959799957e+02   -2.6935600281e+01
    1.1969866180e+02   -2.7006399155e+01
    1.1979846954e+02   -2.7076799393e+01
    1.1989839935e+02   -2.7147399902e+01
    1.1999738312e+02   -2.7217300415e+01
    1.2009808350e+02   -2.7288600922e+01
    1.2019773865e+02   -2.7359300613e+01
    1.2029847717e+02   -2.7430900574e+01
    1.2039740753e+02   -2.7501300812e+01
    1.2049803162e+02   -2.7572999954e+01
    1.2059742737e+02   -2.7644100189e+01
    1.2069798279e+02   -2.7715999603e+01
    1.2079718018e+02   -2.7787200928e+01
    1.2089823151e+02   -2.7859699249e+01
    1.2099719238e+02   -2.7930799484e+01
    1.2109765625e+02   -2.8003099442e+01
    1.2119815826e+02   -2.8075500488e+01
    1.2129705811e+02   -2.8146900177e+01
    1.2139801025e+02   -2.8219900131e+01
    1.2149819183e+02   -2.8292400360e+01
    1.2159750366e+02   -2.8364400864e+01
    1.2169822693e+02   -2.8437599182e+01
    1.2179718781e+02   -2.8509700775e+01
    1.2189714050e+02   -2.8582500458e+01
    1.2199787140e+02   -2.8656000137e+01
    1.2209808350e+02   -2.8729200363e+01
    1.2219827271e+02   -2.8802499771e+01
    1.2229856110e+02   -2.8875999451e+01
    1.2239752197e+02   -2.8948600769e+01
    1.2249797058e+02   -2.9022499084e+01
    1.2259732056e+02   -2.9095600128e+01
    1.2269754028e+02   -2.9169599533e+01
    1.2279802704e+02   -2.9243799210e+01
    1.2289845276e+02   -2.9318099976e+01
    1.2299719238e+02   -2.9391199112e+01
    1.2309793854e+02   -2.9465900421e+01
    1.2319763184e+02   -2.9539899826e+01
    1.2329828644e+02   -2.9614799500e+01
    1.2339723206e+02   -2.9688499451e+01
    1.2349777222e+02   -2.9763700485e+01
    1.2359832001e+02   -2.9839000702e+01
    1.2369721985e+02   -2.9913200378e+01
    1.2379785919e+02   -2.9989000320e+01
    1.2389851379e+02   -3.0064800262e+01
    1.2399751282e+02   -3.0139600754e+01
    1.2409815216e+02   -3.0215700150e+01
    1.2419718170e+02   -3.0290700912e+01
    1.2429795837e+02   -3.0367300034e+01
    1.2439791107e+02   -3.0443300247e+01
    1.2449751282e+02   -3.0519300461e+01
    1.2459761047e+02   -3.0595899582e+01
    1.2469860077e+02   -3.0673400879e+01
    1.2479763794e+02   -3.0749500275e+01
    1.2489837646e+02   -3.0827199936e+01
    1.2499784088e+02   -3.0903999329e+01
    1.2509841919e+02   -3.0981800079e+01
    1.2519795227e+02   -3.1059000015e+01
    1.2529863739e+02   -3.1137199402e+01
    1.2539840698e+02   -3.1215000153e+01
    1.2549758148e+02   -3.1292499542e+01
    1.2559835815e+02   -3.1371400833e+01
    1.2569743347e+02   -3.1449300766e+01
    1.2579795837e+02   -3.1528499603e+01
    1.2589849854e+02   -3.1607799530e+01
    1.2599730682e+02   -3.1686000824e+01
    1.2609815979e+02   -3.1765899658e+01
    1.2619728088e+02   -3.1844600677e+01
    1.2629692841e+02   -3.1923900604e+01
    1.2639739227e+02   -3.2004001617e+01
    1.2649748993e+02   -3.2083999634e+01
    1.2659832001e+02   -3.2164699554e+01
    1.2669731903e+02   -3.2244201660e+01
    1.2679792786e+02   -3.2325099945e+01
    1.2689849091e+02   -3.2406101227e+01
    1.2699733734e+02   -3.2485801697e+01
    1.2709779358e+02   -3.2567001343e+01
    1.2719818115e+02   -3.2648300171e+01
    1.2729853058e+02   -3.2729598999e+01
    1.2739724731e+02   -3.2809799194e+01
    1.2749758148e+02   -3.2891498566e+01
    1.2759700012e+02   -3.2972599030e+01
    1.2769730377e+02   -3.3054599762e+01
    1.2779781342e+02   -3.3136901855e+01
    1.2789823914e+02   -3.3219299316e+01
    1.2799846649e+02   -3.3301601410e+01
    1.2809695435e+02   -3.3382598877e+01
    1.2819735718e+02   -3.3465301514e+01
    1.2829838562e+02   -3.3548698425e+01
    1.2839834595e+02   -3.3631301880e+01
    1.2849844360e+02   -3.3714298248e+01
    1.2859716797e+02   -3.3796199799e+01
    1.2869725037e+02   -3.3879299164e+01
    1.2879832458e+02   -3.3963401794e+01
    1.2889860535e+02   -3.4047000885e+01
    1.2899740601e+02   -3.4129501343e+01
    1.2909783936e+02   -3.4213401794e+01
    1.2919859314e+02   -3.4297798157e+01
    1.2929730225e+02   -3.4380500793e+01
    1.2939770508e+02   -3.4464801788e+01
    1.2949868774e+02   -3.4549800873e+01
    1.2959751892e+02   -3.4633201599e+01
    1.2969787598e+02   -3.4717899323e+01
    1.2979809570e+02   -3.4802700043e+01
    1.2989840698e+02   -3.4887699127e+01
    1.2999867249e+02   -3.4972801208e+01
    1.3009730530e+02   -3.5056598663e+01
    1.3019839478e+02   -3.5142700195e+01
    1.3029724121e+02   -3.5226898193e+01
    1.3039744568e+02   -3.5312500000e+01
    1.3049769592e+02   -3.5398300171e+01
    1.3059817505e+02   -3.5484401703e+01
    1.3069857788e+02   -3.5570598602e+01
    1.3079743958e+02   -3.5655601501e+01
    1.3089842224e+02   -3.5742500305e+01
    1.3099862671e+02   -3.5828899384e+01
    1.3109870911e+02   -3.5915298462e+01
    1.3119718933e+02   -3.6000400543e+01
    1.3129754639e+02   -3.6087200165e+01
    1.3139839172e+02   -3.6174701691e+01
    1.3149821472e+02   -3.6261299133e+01
    1.3159819031e+02   -3.6348300934e+01
    1.3169831848e+02   -3.6435600281e+01
    1.3179718018e+02   -3.6521900177e+01
    1.3189866638e+02   -3.6610599518e+01
    1.3199807739e+02   -3.6697601318e+01
    1.3209796143e+02   -3.6785099030e+01
    1.3219781494e+02   -3.6872798920e+01
    1.3229782104e+02   -3.6960700989e+01
    1.3239814758e+02   -3.7048999786e+01
    1.3249740601e+02   -3.7136600494e+01
    1.3259811401e+02   -3.7225601196e+01
    1.3269793701e+02   -3.7313999176e+01
    1.3279815674e+02   -3.7402900696e+01
    1.3289840698e+02   -3.7491901398e+01
    1.3299867249e+02   -3.7581001282e+01
    1.3309739685e+02   -3.7668899536e+01
    1.3319863892e+02   -3.7759201050e+01
    1.3329887390e+02   -3.7848800659e+01
    1.3339753723e+02   -3.7937198639e+01
    1.3349780273e+02   -3.8027198792e+01
    1.3359806824e+02   -3.8117401123e+01
    1.3369839478e+02   -3.8208000183e+01
    1.3379867554e+02   -3.8298599243e+01
    1.3389851379e+02   -3.8388999939e+01
    1.3399891663e+02   -3.8480201721e+01
    1.3409765625e+02   -3.8569900513e+01
    1.3419812012e+02   -3.8661499023e+01
    1.3429856873e+02   -3.8753200531e+01
    1.3439782715e+02   -3.8844001770e+01
    1.3449870300e+02   -3.8936500549e+01
    1.3459771729e+02   -3.9027500153e+01
    1.3469856262e+02   -3.9120498657e+01
    1.3479890442e+02   -3.9213199615e+01
    1.3489761353e+02   -3.9304599762e+01
    1.3499873352e+02   -3.9398300171e+01
    1.3509901428e+02   -3.9491500854e+01
    1.3519869995e+02   -3.9584400177e+01
    1.3529754639e+02   -3.9676601410e+01
    1.3539869690e+02   -3.9771198273e+01
    1.3549760437e+02   -3.9863998413e+01
    1.3559799194e+02   -3.9958400726e+01
    1.3569842529e+02   -4.0053001404e+01
    1.3579827881e+02   -4.0147399902e+01
    1.3589862061e+02   -4.0242298126e+01
    1.3599896240e+02   -4.0337501526e+01
    1.3609774780e+02   -4.0431301117e+01
    1.3619810486e+02   -4.0526901245e+01
    1.3629826355e+02   -4.0622398376e+01
    1.3639825439e+02   -4.0717899323e+01
    1.3649757385e+02   -4.0812999725e+01
    1.3659808350e+02   -4.0909400940e+01
    1.3669847107e+02   -4.1005901337e+01
    1.3679878235e+02   -4.1102600098e+01
    1.3689747620e+02   -4.1197799683e+01
    1.3699780273e+02   -4.1294700623e+01
    1.3709785461e+02   -4.1391498566e+01
    1.3719793701e+02   -4.1488498688e+01
    1.3729806519e+02   -4.1585800171e+01
    1.3739796448e+02   -4.1682998657e+01
    1.3749807739e+02   -4.1780498505e+01
    1.3759907532e+02   -4.1879199982e+01
    1.3769883728e+02   -4.1976799011e+01
    1.3779774475e+02   -4.2073799133e+01
    1.3789756775e+02   -4.2171798706e+01
    1.3799891663e+02   -4.2271499634e+01
    1.3809855652e+02   -4.2369598389e+01
    1.3819862366e+02   -4.2468299866e+01
    1.3829768372e+02   -4.2566200256e+01
    1.3839877319e+02   -4.2666198730e+01
    1.3849853516e+02   -4.2764999390e+01
    1.3859878540e+02   -4.2864601135e+01
    1.3869836426e+02   -4.2963600159e+01
    1.3879866028e+02   -4.3063400269e+01
    1.3889797974e+02   -4.3162399292e+01
    1.3899824524e+02   -4.3262599945e+01
    1.3909844971e+02   -4.3362701416e+01
    1.3919772339e+02   -4.3462100983e+01
    1.3929809570e+02   -4.3562698364e+01
    1.3939799500e+02   -4.3663101196e+01
    1.3949855042e+02   -4.3764198303e+01
    1.3959912109e+02   -4.3865600586e+01
    1.3969908142e+02   -4.3966499329e+01
    1.3979875183e+02   -4.4067298889e+01
    1.3989852905e+02   -4.4168300629e+01
    1.3999824524e+02   -4.4269401550e+01
    1.4009802246e+02   -4.4370700836e+01
    1.4019888306e+02   -4.4473201752e+01
    1.4029925537e+02   -4.4575401306e+01
    1.4039895630e+02   -4.4677101135e+01
    1.4049870300e+02   -4.4778900146e+01
    1.4059858704e+02   -4.4881099701e+01
    1.4069889832e+02   -4.4983798981e+01
    1.4079934692e+02   -4.5086898804e+01
    1.4089869690e+02   -4.5188899994e+01
    1.4099873352e+02   -4.5291801453e+01
    1.4109840393e+02   -4.5394401550e+01
    1.4119822693e+02   -4.5497200012e+01
    1.4129843140e+02   -4.5600700378e+01
    1.4139924622e+02   -4.5704898834e+01
    1.4149940491e+02   -4.5808601379e+01
    1.4159899902e+02   -4.5911899567e+01
    1.4169871521e+02   -4.6015499115e+01
    1.4179858398e+02   -4.6119499207e+01
    1.4189810181e+02   -4.6223201752e+01
    1.4199940491e+02   -4.6328899384e+01
    1.4209890747e+02   -4.6432800293e+01
    1.4219841003e+02   -4.6536899567e+01
    1.4229815674e+02   -4.6641498566e+01
    1.4239845276e+02   -4.6746799469e+01
    1.4249946594e+02   -4.6853000641e+01
    1.4259826660e+02   -4.6957099915e+01
    1.4269929504e+02   -4.7063701630e+01
    1.4279949951e+02   -4.7169601440e+01
    1.4289939880e+02   -4.7275299072e+01
    1.4299945068e+02   -4.7381401062e+01
    1.4309793091e+02   -4.7485900879e+01
    1.4319804382e+02   -4.7592399597e+01
    1.4329939270e+02   -4.7700401306e+01
    1.4339944458e+02   -4.7807201385e+01
    1.4349937439e+02   -4.7914199829e+01
    1.4359838867e+02   -4.8020401001e+01
    1.4369842529e+02   -4.8127899170e+01
    1.4379821777e+02   -4.8235401154e+01
    1.4389837646e+02   -4.8343498230e+01
    1.4399838257e+02   -4.8451599121e+01
    1.4409854126e+02   -4.8560100555e+01
    1.4419802856e+02   -4.8667999268e+01
    1.4429800415e+02   -4.8776699066e+01
    1.4439950562e+02   -4.8887199402e+01
    1.4449960327e+02   -4.8996398926e+01
    1.4459878540e+02   -4.9104900360e+01
    1.4469810486e+02   -4.9213699341e+01
    1.4479824829e+02   -4.9323600769e+01
    1.4489863586e+02   -4.9433998108e+01
    1.4499844360e+02   -4.9543899536e+01
    1.4509855652e+02   -4.9654399872e+01
    1.4519798279e+02   -4.9764301300e+01
    1.4529832458e+02   -4.9875400543e+01
    1.4539889526e+02   -4.9986900330e+01
    1.4549913025e+02   -5.0098400116e+01
    1.4559898376e+02   -5.0209598541e+01
    1.4569894409e+02   -5.0321201324e+01
    1.4579841614e+02   -5.0432399750e+01
    1.4589828491e+02   -5.0544200897e+01
    1.4599812317e+02   -5.0656200409e+01
    1.4609942627e+02   -5.0770000458e+01
    1.4619918823e+02   -5.0882198334e+01
    1.4629907227e+02   -5.0994800568e+01
    1.4639834595e+02   -5.1106800079e+01
    1.4649894714e+02   -5.1220500946e+01
    1.4659930420e+02   -5.1334201813e+01
    1.4669927979e+02   -5.1447601318e+01
    1.4679940796e+02   -5.1561298370e+01
    1.4689947510e+02   -5.1675098419e+01
    1.4699952698e+02   -5.1789100647e+01
    1.4709942627e+02   -5.1902999878e+01
    1.4719911194e+02   -5.2016899109e+01
    1.4729884338e+02   -5.2131000519e+01
    1.4739976501e+02   -5.2246601105e+01
    1.4749906921e+02   -5.2360599518e+01
    1.4759840393e+02   -5.2474800110e+01
    1.4769970703e+02   -5.2591400146e+01
    1.4779841614e+02   -5.2705299377e+01
    1.4789926147e+02   -5.2821701050e+01
    1.4799838257e+02   -5.2936298370e+01
    1.4809913635e+02   -5.3052898407e+01
    1.4819918823e+02   -5.3168899536e+01
    1.4829852295e+02   -5.3284198761e+01
    1.4839909363e+02   -5.3401100159e+01
    1.4849845886e+02   -5.3516700745e+01
    1.4859901428e+02   -5.3633899689e+01
    1.4869975281e+02   -5.3751499176e+01
    1.4879985046e+02   -5.3868400574e+01
    1.4889826965e+02   -5.3983501434e+01
    1.4899830627e+02   -5.4100700378e+01
    1.4909826660e+02   -5.4217800140e+01
    1.4919912720e+02   -5.4336200714e+01
    1.4929981995e+02   -5.4454601288e+01
    1.4939924622e+02   -5.4571601868e+01
    1.4949879456e+02   -5.4688999176e+01
    1.4959976196e+02   -5.4808200836e+01
    1.4969953918e+02   -5.4926101685e+01
    1.4979870605e+02   -5.5043498993e+01
    1.4989965820e+02   -5.5163101196e+01
    1.4999891663e+02   -5.5280799866e+01
    1.5009838867e+02   -5.5398899078e+01
    1.5019891357e+02   -5.5518398285e+01
    1.5029913330e+02   -5.5637699127e+01
    1.5039889526e+02   -5.5756599426e+01
    1.5049899292e+02   -5.5875999451e+01
    1.5059843445e+02   -5.5994800568e+01
    1.5069836426e+02   -5.6114299774e+01
    1.5079855347e+02   -5.6234199524e+01
    1.5089982605e+02   -5.6355598450e+01
    1.5099908447e+02   -5.6474700928e+01
    1.5109852600e+02   -5.6594100952e+01
    1.5119973755e+02   -5.6715801239e+01
    1.5129978943e+02   -5.6836200714e+01
    1.5139848328e+02   -5.6955200195e+01
    1.5149995422e+02   -5.7077598572e+01
    1.5159938049e+02   -5.7197799683e+01
    1.5169859314e+02   -5.7317901611e+01
    1.5179953003e+02   -5.7440200806e+01
    1.5189860535e+02   -5.7560398102e+01
    1.5199931335e+02   -5.7682701111e+01
    1.5209863281e+02   -5.7803501129e+01
    1.5219967651e+02   -5.7926601410e+01
    1.5229913330e+02   -5.8047901154e+01
    1.5239923096e+02   -5.8170101166e+01
    1.5249870300e+02   -5.8291801453e+01
    1.5259909058e+02   -5.8414798737e+01
    1.5269920349e+02   -5.8537601471e+01
    1.5279948425e+02   -5.8660800934e+01
    1.5289895630e+02   -5.8783100128e+01
    1.5299873352e+02   -5.8905998230e+01
    1.5309861755e+02   -5.9029201508e+01
    1.5320013428e+02   -5.9154598236e+01
    1.5329937744e+02   -5.9277400970e+01
    1.5339901733e+02   -5.9400901794e+01
    1.5349862671e+02   -5.9524600983e+01
    1.5359895325e+02   -5.9649398804e+01
    1.5369897461e+02   -5.9774101257e+01
    1.5379997253e+02   -5.9900100708e+01
    1.5389973450e+02   -6.0024799347e+01
    1.5399942017e+02   -6.0149600983e+01
    1.5409916687e+02   -6.0274700165e+01
    1.5419989014e+02   -6.0401100159e+01
    1.5429939270e+02   -6.0526100159e+01
    1.5439872742e+02   -6.0651199341e+01
    1.5450015259e+02   -6.0778999329e+01
    1.5459936523e+02   -6.0904300690e+01
    1.5469862366e+02   -6.1029800415e+01
    1.5479869080e+02   -6.1156398773e+01
    1.5489889526e+02   -6.1283401489e+01
    1.5499986267e+02   -6.1411598206e+01
    1.5510018921e+02   -6.1539001465e+01
    1.5519934082e+02   -6.1665100098e+01
    1.5529936218e+02   -6.1792499542e+01
    1.5539950562e+02   -6.1920200348e+01
    1.5549931335e+02   -6.2047698975e+01
    1.5559864807e+02   -6.2174701691e+01
    1.5569966125e+02   -6.2304000854e+01
    1.5579980469e+02   -6.2432399750e+01
    1.5589907837e+02   -6.2559799194e+01
    1.5599989319e+02   -6.2689300537e+01
    1.5609898376e+02   -6.2816699982e+01
    1.5619949341e+02   -6.2946098328e+01
    1.5629893494e+02   -6.3074199677e+01
    1.5640017700e+02   -6.3204799652e+01
    1.5650030518e+02   -6.3334098816e+01
    1.5659988403e+02   -6.3462898254e+01
    1.5669958496e+02   -6.3591899872e+01
    1.5679930115e+02   -6.3721099854e+01
    1.5689979553e+02   -6.3851501465e+01
    1.5699882507e+02   -6.3979999542e+01
    1.5709938049e+02   -6.4110702515e+01
    1.5719938660e+02   -6.4240798950e+01
    1.5729985046e+02   -6.4371597290e+01
    1.5740026855e+02   -6.4502601624e+01
    1.5749960327e+02   -6.4632301331e+01
    1.5759928894e+02   -6.4762603760e+01
    1.5770018005e+02   -6.4894599915e+01
    1.5779916382e+02   -6.5024299622e+01
    1.5789964294e+02   -6.5156097412e+01
    1.5800004578e+02   -6.5287902832e+01
    1.5810040283e+02   -6.5419799805e+01
    1.5820005798e+02   -6.5550903320e+01
    1.5829896545e+02   -6.5681198120e+01
    1.5839921570e+02   -6.5813301086e+01
    1.5849998474e+02   -6.5946197510e+01
    1.5859967041e+02   -6.6077903748e+01
    1.5870037842e+02   -6.6210998535e+01
    1.5879989624e+02   -6.6342697144e+01
    1.5889967346e+02   -6.6474899292e+01
    1.5899940491e+02   -6.6607002258e+01
    1.5909904480e+02   -6.6739303589e+01
    1.5919958496e+02   -6.6872802734e+01
    1.5929911804e+02   -6.7005096436e+01
    1.5939991760e+02   -6.7139198303e+01
    1.5949905396e+02   -6.7271301270e+01
    1.5959948730e+02   -6.7405197144e+01
    1.5969940186e+02   -6.7538597107e+01
    1.5980003357e+02   -6.7673103333e+01
    1.5989930725e+02   -6.7805801392e+01
    1.5999998474e+02   -6.7940498352e+01
    1.6010011292e+02   -6.8074600220e+01
    1.6019888306e+02   -6.8206901550e+01
    1.6029980469e+02   -6.8342300415e+01
    1.6040043640e+02   -6.8477302551e+01
    1.6049995422e+02   -6.8611000061e+01
    1.6059945679e+02   -6.8744697571e+01
    1.6070010376e+02   -6.8880096436e+01
    1.6079989624e+02   -6.9014503479e+01
    1.6090049744e+02   -6.9150001526e+01
    1.6100001526e+02   -6.9284103394e+01
    1.6109985352e+02   -6.9418800354e+01
    1.6119900513e+02   -6.9552696228e+01
    1.6130030823e+02   -6.9689598083e+01
    1.6139974976e+02   -6.9824096680e+01
    1.6149926758e+02   -6.9958801270e+01
    1.6159988403e+02   -7.0095100403e+01
    1.6170040894e+02   -7.0231399536e+01
    1.6179924011e+02   -7.0365600586e+01
    1.6189978027e+02   -7.0502197266e+01
    1.6199972534e+02   -7.0638099670e+01
    1.6209907532e+02   -7.0773300171e+01
    1.6220005798e+02   -7.0910896301e+01
    1.6229914856e+02   -7.1045997620e+01
    1.6240036011e+02   -7.1184097290e+01
    1.6249923706e+02   -7.1319198608e+01
    1.6259989929e+02   -7.1456901550e+01
    1.6269950867e+02   -7.1593299866e+01
    1.6279928589e+02   -7.1730003357e+01
    1.6290002441e+02   -7.1868202209e+01
    1.6299935913e+02   -7.2004600525e+01
    1.6310037231e+02   -7.2143501282e+01
    1.6319979858e+02   -7.2280296326e+01
    1.6330026245e+02   -7.2418701172e+01
    1.6339941406e+02   -7.2555496216e+01
    1.6350062561e+02   -7.2695297241e+01
    1.6359965515e+02   -7.2832199097e+01
    1.6370031738e+02   -7.2971496582e+01
    1.6379924011e+02   -7.3108596802e+01
    1.6389910889e+02   -7.3247100830e+01
    1.6400036621e+02   -7.3387702942e+01
    1.6409971619e+02   -7.3525703430e+01
    1.6419929504e+02   -7.3664199829e+01
    1.6430053711e+02   -7.3805099487e+01
    1.6439923096e+02   -7.3942497253e+01
    1.6449960327e+02   -7.4082397461e+01
    1.6460072327e+02   -7.4223396301e+01
    1.6469943237e+02   -7.4361198425e+01
    1.6479927063e+02   -7.4500701904e+01
    1.6490065002e+02   -7.4642402649e+01
    1.6500033569e+02   -7.4781799316e+01
    1.6509953308e+02   -7.4920600891e+01
    1.6520048523e+02   -7.5061996460e+01
    1.6529978943e+02   -7.5201103210e+01
    1.6539950562e+02   -7.5341003418e+01
    1.6550042725e+02   -7.5482498169e+01
    1.6559939575e+02   -7.5621498108e+01
    1.6570001221e+02   -7.5762901306e+01
    1.6580070496e+02   -7.5904403687e+01
    1.6590083313e+02   -7.6045303345e+01
    1.6599975586e+02   -7.6184501648e+01
    1.6610025024e+02   -7.6325897217e+01
    1.6620011902e+02   -7.6466598511e+01
    1.6630036926e+02   -7.6607902527e+01
    1.6639933777e+02   -7.6747398376e+01
    1.6650041199e+02   -7.6889999390e+01
    1.6659968567e+02   -7.7030097961e+01
    1.6670066833e+02   -7.7172698975e+01
    1.6679992676e+02   -7.7312896729e+01
    1.6689953613e+02   -7.7453796387e+01
    1.6699974060e+02   -7.7595497131e+01
    1.6709938049e+02   -7.7736602783e+01
    1.6719966125e+02   -7.7878601074e+01
    1.6729985046e+02   -7.8020599365e+01
    1.6740003967e+02   -7.8162696838e+01
    1.6750053406e+02   -7.8305397034e+01
    1.6760096741e+02   -7.8448097229e+01
    1.6769992065e+02   -7.8588798523e+01
    1.6780101013e+02   -7.8732597351e+01
    1.6789971924e+02   -7.8873199463e+01
    1.6800006104e+02   -7.9016098022e+01
    1.6809945679e+02   -7.9157798767e+01
    1.6819952393e+02   -7.9300598145e+01
    1.6829986572e+02   -7.9443801880e+01
    1.6840026855e+02   -7.9587196350e+01
    1.6849960327e+02   -7.9729202271e+01
    1.6860047913e+02   -7.9873397827e+01
    1.6869975281e+02   -8.0015502930e+01
    1.6880039978e+02   -8.0159599304e+01
    1.6889967346e+02   -8.0301803589e+01
    1.6900054932e+02   -8.0446403503e+01
    1.6909971619e+02   -8.0588600159e+01
    1.6919961548e+02   -8.0732002258e+01
    1.6930058289e+02   -8.0876998901e+01
    1.6939970398e+02   -8.1019401550e+01
    1.6950042725e+02   -8.1164199829e+01
    1.6959986877e+02   -8.1307296753e+01
    1.6969992065e+02   -8.1451301575e+01
    1.6980070496e+02   -8.1596397400e+01
    1.6989967346e+02   -8.1738998413e+01
    1.7000035095e+02   -8.1884002686e+01
    1.7010105896e+02   -8.2029197693e+01
    1.7019952393e+02   -8.2171096802e+01
    1.7030058289e+02   -8.2316802979e+01
    1.7040028381e+02   -8.2460601807e+01
    1.7049955750e+02   -8.2603797913e+01
    1.7059980774e+02   -8.2748497009e+01
    1.7070106506e+02   -8.2894699097e+01
    1.7080041504e+02   -8.3038101196e+01
    1.7089991760e+02   -8.3181800842e+01
    1.7100047302e+02   -8.3327102661e+01
    1.7110046387e+02   -8.3471496582e+01
    1.7119970703e+02   -8.3614898682e+01
    1.7130049133e+02   -8.3760597229e+01
    1.7140101624e+02   -8.3905998230e+01
    1.7149992371e+02   -8.4049003601e+01
    1.7160052490e+02   -8.4194702148e+01
    1.7170057678e+02   -8.4339500427e+01
    1.7180087280e+02   -8.4484703064e+01
    1.7190121460e+02   -8.4630096436e+01
    1.7200007629e+02   -8.4773300171e+01
    1.7210067749e+02   -8.4919197083e+01
    1.7219967651e+02   -8.5062698364e+01
    1.7230105591e+02   -8.5209800720e+01
    1.7240118408e+02   -8.5355102539e+01
    1.7250021362e+02   -8.5498901367e+01
    1.7260110474e+02   -8.5645401001e+01
    1.7270118713e+02   -8.5790901184e+01
    1.7280120850e+02   -8.5936302185e+01
    1.7289999390e+02   -8.6080001831e+01
    1.7300036621e+02   -8.6226097107e+01
    1.7310069275e+02   -8.6372100830e+01
    1.7320106506e+02   -8.6518402100e+01
    1.7330119324e+02   -8.6664299011e+01
    1.7339979553e+02   -8.6808197021e+01
    1.7350003052e+02   -8.6954498291e+01
    1.7360105896e+02   -8.7101997375e+01
    1.7370126343e+02   -8.7248497009e+01
    1.7379988098e+02   -8.7392601013e+01
    1.7390127563e+02   -8.7540901184e+01
    1.7400016785e+02   -8.7685600281e+01
    1.7410078430e+02   -8.7832901001e+01
    1.7419984436e+02   -8.7977897644e+01
    1.7430050659e+02   -8.8125297546e+01
    1.7440010071e+02   -8.8271102905e+01
    1.7450057983e+02   -8.8418296814e+01
    1.7460093689e+02   -8.8565399170e+01
    1.7470027161e+02   -8.8710899353e+01
    1.7480104065e+02   -8.8858596802e+01
    1.7490008545e+02   -8.9003799438e+01
    1.7500077820e+02   -8.9151496887e+01
    1.7510008240e+02   -8.9297096252e+01
    1.7520135498e+02   -8.9445602417e+01
    1.7530017090e+02   -8.9590499878e+01
    1.7540055847e+02   -8.9737800598e+01
    1.7550108337e+02   -8.9885299683e+01
    1.7560006714e+02   -9.0030502319e+01
    1.7570068359e+02   -9.0178100586e+01
    1.7580131531e+02   -9.0325798035e+01
    1.7590080261e+02   -9.0471801758e+01
    1.7600148010e+02   -9.0619499207e+01
    1.7610046387e+02   -9.0764801025e+01
    1.7620103455e+02   -9.0912399292e+01
    1.7630137634e+02   -9.1059600830e+01
    1.7640054321e+02   -9.1205101013e+01
    1.7650120544e+02   -9.1352798462e+01
    1.7660021973e+02   -9.1498100281e+01
    1.7670088196e+02   -9.1645797729e+01
    1.7680137634e+02   -9.1793197632e+01
    1.7690008545e+02   -9.1938102722e+01
    1.7700097656e+02   -9.2086196899e+01
    1.7710043335e+02   -9.2232200623e+01
    1.7720098877e+02   -9.2379898071e+01
    1.7730128479e+02   -9.2527198792e+01
    1.7740147400e+02   -9.2674400330e+01
    1.7750160217e+02   -9.2821601868e+01
    1.7760011292e+02   -9.2966499329e+01
    1.7770024109e+02   -9.3113700867e+01
    1.7780085754e+02   -9.3261703491e+01
    1.7790127563e+02   -9.3409500122e+01
    1.7800007629e+02   -9.3554901123e+01
    1.7810043335e+02   -9.3702697754e+01
    1.7819999695e+02   -9.3849197388e+01
    1.7830093384e+02   -9.3997901917e+01
    1.7840130615e+02   -9.4145698547e+01
    1.7850007629e+02   -9.4291297913e+01
    1.7860058594e+02   -9.4439399719e+01
    1.7870144653e+02   -9.4587997437e+01
    1.7880006409e+02   -9.4733398438e+01
    1.7890025330e+02   -9.4881202698e+01
    1.7900039673e+02   -9.5028800964e+01
    1.7910046387e+02   -9.5176498413e+01
    1.7920065308e+02   -9.5324302673e+01
    1.7930134583e+02   -9.5472900391e+01
    1.7940043640e+02   -9.5619102478e+01
    1.7950114441e+02   -9.5767799377e+01
    1.7960130310e+02   -9.5915702820e+01
    1.7970114136e+02   -9.6063102722e+01
    1.7980035400e+02   -9.6209503174e+01
    1.7990080261e+02   -9.6357803345e+01
    1.8000129700e+02   -9.6506103516e+01
    1.8010101318e+02   -9.6653297424e+01
    1.8020059204e+02   -9.6800201416e+01
    1.8030053711e+02   -9.6947601318e+01
    1.8040177917e+02   -9.7096900940e+01
    1.8050073242e+02   -9.7242797852e+01
    1.8060098267e+02   -9.7390502930e+01
    1.8070153809e+02   -9.7538696289e+01
    1.8080041504e+02   -9.7684303284e+01
    1.8090086365e+02   -9.7832199097e+01
    1.8100143433e+02   -9.7980300903e+01
    1.8110075378e+02   -9.8126403809e+01
    1.8120121765e+02   -9.8274200439e+01
    1.8130143738e+02   -9.8421600342e+01
    1.8140159607e+02   -9.8568901062e+01
    1.8150175476e+02   -9.8716201782e+01
    1.8160064697e+02   -9.8861503601e+01
    1.8170027161e+02   -9.9007896423e+01
    1.8180053711e+02   -9.9155197144e+01
    1.8190083313e+02   -9.9302497864e+01
    1.8200117493e+02   -9.9449798584e+01
    1.8210145569e+02   -9.9597099304e+01
    1.8220170593e+02   -9.9744201660e+01
    1.8230059814e+02   -9.9889297485e+01
    1.8240180969e+02   -1.0003800201e+02
    1.8250039673e+02   -1.0018199921e+02
    1.8260043335e+02   -1.0032900238e+02
    1.8270037842e+02   -1.0047599792e+02
    1.8280059814e+02   -1.0062300110e+02
    1.8290039062e+02   -1.0076899719e+02
    1.8300172424e+02   -1.0091699982e+02
    1.8310171509e+02   -1.0106400299e+02
    1.8320158386e+02   -1.0121099854e+02
    1.8330119324e+02   -1.0135700226e+02
    1.8340075684e+02   -1.0150299835e+02
    1.8350190735e+02   -1.0165100098e+02
    1.8360156250e+02   -1.0179699707e+02
    1.8370103455e+02   -1.0194300079e+02
    1.8380128479e+02   -1.0208999634e+02
    1.8390066528e+02   -1.0223600006e+02
    1.8400117493e+02   -1.0238400269e+02
    1.8410192871e+02   -1.0253199768e+02
    1.8420103455e+02   -1.0267700195e+02
    1.8430105591e+02   -1.0282399750e+02
    1.8440144348e+02   -1.0297100067e+02
    1.8450190735e+02   -1.0311799622e+02
    1.8460188293e+02   -1.0326499939e+02
    1.8470184326e+02   -1.0341200256e+02
    1.8480177307e+02   -1.0355799866e+02
    1.8490177917e+02   -1.0370500183e+02
    1.8500079346e+02   -1.0384999847e+02
    1.8510118103e+02   -1.0399700165e+02
    1.8520118713e+02   -1.0414299774e+02
    1.8530137634e+02   -1.0429000092e+02
    1.8540170288e+02   -1.0443699646e+02
    1.8550166321e+02   -1.0458300018e+02
    1.8560166931e+02   -1.0473000336e+02
    1.8570152283e+02   -1.0487599945e+02
    1.8580065918e+02   -1.0502100372e+02
    1.8590188599e+02   -1.0516899872e+02
    1.8600158691e+02   -1.0531500244e+02
    1.8610093689e+02   -1.0545999908e+02
    1.8620077515e+02   -1.0560500336e+02
    1.8630198669e+02   -1.0575299835e+02
    1.8640144348e+02   -1.0589800262e+02
    1.8650210571e+02   -1.0604499817e+02
    1.8660079956e+02   -1.0618800354e+02
    1.8670104980e+02   -1.0633399963e+02
    1.8680114746e+02   -1.0648000336e+02
    1.8690106201e+02   -1.0662500000e+02
    1.8700085449e+02   -1.0677100372e+02
    1.8710122681e+02   -1.0691699982e+02
    1.8720141602e+02   -1.0706199646e+02
    1.8730111694e+02   -1.0720700073e+02
    1.8740075684e+02   -1.0735199738e+02
    1.8750199890e+02   -1.0749900055e+02
    1.8760191345e+02   -1.0764399719e+02
    1.8770089722e+02   -1.0778700256e+02
    1.8780128479e+02   -1.0793299866e+02
    1.8790164185e+02   -1.0807900238e+02
    1.8800190735e+02   -1.0822399902e+02
    1.8810209656e+02   -1.0836900330e+02
    1.8820188904e+02   -1.0851399994e+02
    1.8830163574e+02   -1.0865799713e+02
    1.8840135193e+02   -1.0880300140e+02
    1.8850146484e+02   -1.0894799805e+02
    1.8860133362e+02   -1.0909200287e+02
    1.8870106506e+02   -1.0923699951e+02
    1.8880215454e+02   -1.0938300323e+02
    1.8890155029e+02   -1.0952700043e+02
    1.8900082397e+02   -1.0966999817e+02
    1.8910166931e+02   -1.0981600189e+02
    1.8920079041e+02   -1.0995899963e+02
    1.8930154419e+02   -1.1010500336e+02
    1.8940090942e+02   -1.1024900055e+02
    1.8950192261e+02   -1.1039399719e+02
    1.8960197449e+02   -1.1053900146e+02
    1.8970231628e+02   -1.1068399811e+02
    1.8980235291e+02   -1.1082800293e+02
    1.8990199280e+02   -1.1097200012e+02
    1.9000164795e+02   -1.1111599731e+02
    1.9010229492e+02   -1.1126100159e+02
    1.9020149231e+02   -1.1140399933e+02
    1.9030114746e+02   -1.1154699707e+02
    1.9040095520e+02   -1.1169100189e+02
    1.9050236511e+02   -1.1183699799e+02
    1.9060209656e+02   -1.1198000336e+02
    1.9070182800e+02   -1.1212300110e+02
    1.9080157471e+02   -1.1226699829e+02
    1.9090141296e+02   -1.1241000366e+02
    1.9100149536e+02   -1.1255300140e+02
    1.9110159302e+02   -1.1269699860e+02
    1.9120138550e+02   -1.1283899689e+02
    1.9130099487e+02   -1.1298200226e+02
    1.9140217590e+02   -1.1312699890e+02
    1.9150137329e+02   -1.1326799774e+02
    1.9160223389e+02   -1.1341200256e+02
    1.9170120239e+02   -1.1355400085e+02
    1.9180186462e+02   -1.1369699860e+02
    1.9190155029e+02   -1.1383899689e+02
    1.9200210571e+02   -1.1398200226e+02
    1.9210203552e+02   -1.1412400055e+02
    1.9220196533e+02   -1.1426599884e+02
    1.9230184937e+02   -1.1440799713e+02
    1.9240197754e+02   -1.1455000305e+02
    1.9250201416e+02   -1.1469200134e+02
    1.9260168457e+02   -1.1483300018e+02
    1.9270121765e+02   -1.1497399902e+02
    1.9280232239e+02   -1.1511699677e+02
    1.9290171814e+02   -1.1525800323e+02
    1.9300105286e+02   -1.1539800262e+02
    1.9310189819e+02   -1.1554100037e+02
    1.9320108032e+02   -1.1568099976e+02
    1.9330180359e+02   -1.1582299805e+02
    1.9340252686e+02   -1.1596499634e+02
    1.9350158691e+02   -1.1610500336e+02
    1.9360174561e+02   -1.1624600220e+02
    1.9370143127e+02   -1.1638700104e+02
    1.9380213928e+02   -1.1652899933e+02
    1.9390182495e+02   -1.1666899872e+02
    1.9400187683e+02   -1.1680999756e+02
    1.9410223389e+02   -1.1695099640e+02
    1.9420115662e+02   -1.1708999634e+02
    1.9430235291e+02   -1.1723300171e+02
    1.9440165710e+02   -1.1737200165e+02
[...]
    2.5130548096e+02   -1.6202200317e+02
    2.5140556335e+02   -1.6203700256e+02
    2.5150500488e+02   -1.6205099487e+02
    2.5160597229e+02   -1.6206599426e+02
    2.5170532227e+02   -1.6208099365e+02
    2.5180613708e+02   -1.6209500122e+02
    2.5190553284e+02   -1.6210899353e+02
    2.5200570679e+02   -1.6212399292e+02
    2.5210476685e+02   -1.6213800049e+02
    2.5220555115e+02   -1.6215100098e+02
    2.5230470276e+02   -1.6216499329e+02
    2.5240509033e+02   -1.6217900085e+02
    2.5250524902e+02   -1.6219200134e+02
    2.5260606384e+02   -1.6220599365e+02
    2.5270576477e+02   -1.6221899414e+02
    2.5280520630e+02   -1.6223100281e+02
    2.5290475464e+02   -1.6224400330e+02
    2.5300595093e+02   -1.6225700378e+02
    2.5310609436e+02   -1.6226899719e+02
    2.5320559692e+02   -1.6228100586e+02
    2.5330505371e+02   -1.6229299927e+02
    2.5340594482e+02   -1.6230499268e+02
    2.5350544739e+02   -1.6231700134e+02
    2.5360604858e+02   -1.6232800293e+02
    2.5370535278e+02   -1.6233900452e+02
    2.5380526733e+02   -1.6235000610e+02
    2.5390547180e+02   -1.6236000061e+02
    2.5400564575e+02   -1.6237100220e+02
    2.5410580444e+02   -1.6238099670e+02
    2.5420594788e+02   -1.6239100647e+02
    2.5430604553e+02   -1.6240100098e+02
    2.5440631104e+02   -1.6241000366e+02
    2.5450515747e+02   -1.6241900635e+02
    2.5460601807e+02   -1.6242799377e+02
    2.5470509338e+02   -1.6243699646e+02
    2.5480586243e+02   -1.6244500732e+02
    2.5490501404e+02   -1.6245399475e+02
    2.5500595093e+02   -1.6246200562e+02
    2.5510525513e+02   -1.6247000122e+02
    2.5520550537e+02   -1.6247700500e+02
    2.5530529785e+02   -1.6248500061e+02
    2.5540565491e+02   -1.6249200439e+02
    2.5550486755e+02   -1.6249899292e+02
    2.5560517883e+02   -1.6250599670e+02
    2.5570542908e+02   -1.6251199341e+02
    2.5580558777e+02   -1.6251899719e+02
    2.5590563965e+02   -1.6252499390e+02
    2.5600558472e+02   -1.6253100586e+02
    2.5610534668e+02   -1.6253700256e+02
    2.5620498657e+02   -1.6254200745e+02
    2.5630621338e+02   -1.6254699707e+02
    2.5640496826e+02   -1.6255200195e+02
    2.5650531006e+02   -1.6255700684e+02
    2.5660574341e+02   -1.6256199646e+02
    2.5670626831e+02   -1.6256700134e+02
    2.5680499268e+02   -1.6257099915e+02
    2.5690524292e+02   -1.6257499695e+02
    2.5700595093e+02   -1.6257899475e+02
    2.5710598755e+02   -1.6258299255e+02
    2.5720565796e+02   -1.6258700562e+02
    2.5730535889e+02   -1.6259100342e+02
    2.5740637207e+02   -1.6259399414e+02
    2.5750570679e+02   -1.6259700012e+02
    2.5760626221e+02   -1.6260000610e+02
    2.5770608521e+02   -1.6260299683e+02
    2.5780584717e+02   -1.6260600281e+02
    2.5790557861e+02   -1.6260800171e+02
    2.5800524902e+02   -1.6261099243e+02
    2.5810641479e+02   -1.6261300659e+02
    2.5820599365e+02   -1.6261399841e+02
    2.5830551147e+02   -1.6261599731e+02
    2.5840499878e+02   -1.6261700439e+02
    2.5850607300e+02   -1.6261900330e+02
    2.5860537720e+02   -1.6261900330e+02
    2.5870535278e+02   -1.6261999512e+02
    2.5880538940e+02   -1.6262100220e+02
    2.5890646362e+02   -1.6262100220e+02
    2.5900610352e+02   -1.6262100220e+02
    2.5910583496e+02   -1.6262100220e+02
    2.5920565796e+02   -1.6262100220e+02
    2.5930551147e+02   -1.6261999512e+02
    2.5940530396e+02   -1.6261900330e+02
    2.5950650024e+02   -1.6261799622e+02
    2.5960607910e+02   -1.6261700439e+02
    2.5970584106e+02   -1.6261500549e+02
    2.5980657959e+02   -1.6261300659e+02
    2.5990573120e+02   -1.6261099243e+02
    2.6000640869e+02   -1.6260899353e+02
    2.6010549927e+02   -1.6260600281e+02
    2.6020614624e+02   -1.6260299683e+02
    2.6030517578e+02   -1.6260000610e+02
    2.6040570068e+02   -1.6259700012e+02
    2.6050610352e+02   -1.6259300232e+02
    2.6060641479e+02   -1.6258900452e+02
    2.6070513916e+02   -1.6258500671e+02
    2.6080636597e+02   -1.6258000183e+02
    2.6090652466e+02   -1.6257499695e+02
    2.6100588989e+02   -1.6257000732e+02
    2.6110534668e+02   -1.6256500244e+02
    2.6120532227e+02   -1.6255999756e+02
    2.6130514526e+02   -1.6255400085e+02
    2.6140655518e+02   -1.6254800415e+02
    2.6150625610e+02   -1.6254200745e+02
    2.6160571289e+02   -1.6253599548e+02
    2.6170529175e+02   -1.6252900696e+02
    2.6180612183e+02   -1.6252299500e+02
    2.6190530396e+02   -1.6251600647e+02
    2.6200595093e+02   -1.6250799561e+02
    2.6210650635e+02   -1.6250100708e+02
    2.6220538330e+02   -1.6249299622e+02
    2.6230569458e+02   -1.6248500061e+02
    2.6240591431e+02   -1.6247599792e+02
    2.6250598145e+02   -1.6246800232e+02
    2.6260543823e+02   -1.6245899963e+02
    2.6270596313e+02   -1.6244999695e+02
    2.6280545044e+02   -1.6244099426e+02
    2.6290551758e+02   -1.6243200684e+02
    2.6300650024e+02   -1.6242300415e+02
    2.6310595703e+02   -1.6241299438e+02
    2.6320639038e+02   -1.6240299988e+02
    2.6330584717e+02   -1.6239300537e+02
    2.6340530396e+02   -1.6238299561e+02
    2.6350607300e+02   -1.6237199402e+02
    2.6360549927e+02   -1.6236199951e+02
    2.6370584106e+02   -1.6235099792e+02
    2.6380624390e+02   -1.6233999634e+02
    2.6390667725e+02   -1.6232899475e+02
    2.6400558472e+02   -1.6231700134e+02
    2.6410604858e+02   -1.6230499268e+02
    2.6420651245e+02   -1.6229299927e+02
    2.6430538940e+02   -1.6228100586e+02
    2.6440585327e+02   -1.6226899719e+02
    2.6450631714e+02   -1.6225599670e+02
    2.6460665894e+02   -1.6224400330e+02
    2.6470547485e+02   -1.6223100281e+02
    2.6480563354e+02   -1.6221699524e+02
    2.6490655518e+02   -1.6220399475e+02
    2.6500588989e+02   -1.6219000244e+02
    2.6510568237e+02   -1.6217599487e+02
    2.6520584106e+02   -1.6216200256e+02
    2.6530612183e+02   -1.6214799500e+02
    2.6540646362e+02   -1.6213299561e+02
    2.6550677490e+02   -1.6211799622e+02
    2.6560693359e+02   -1.6210299683e+02
    2.6570556641e+02   -1.6208799744e+02
    2.6580688477e+02   -1.6207200623e+02
    2.6590670776e+02   -1.6205599976e+02
    2.6600659180e+02   -1.6203999329e+02
    2.6610644531e+02   -1.6202400208e+02
    2.6620629883e+02   -1.6200700378e+02
    2.6630606079e+02   -1.6199000549e+02
    2.6640576172e+02   -1.6197300720e+02
    2.6650622559e+02   -1.6195500183e+02
    2.6660610962e+02   -1.6193699646e+02
    2.6670596313e+02   -1.6191900635e+02
    2.6680572510e+02   -1.6189999390e+02
    2.6690557861e+02   -1.6188200378e+02
    2.6700570679e+02   -1.6186300659e+02
    2.6710577393e+02   -1.6184300232e+02
    2.6720642090e+02   -1.6182400513e+02
    2.6730694580e+02   -1.6180400085e+02
    2.6740579224e+02   -1.6178399658e+02
    2.6750619507e+02   -1.6176300049e+02
    2.6760653687e+02   -1.6174299622e+02
    2.6770666504e+02   -1.6172200012e+02
    2.6780706787e+02   -1.6169999695e+02
    2.6790673828e+02   -1.6167900085e+02
    2.6800640869e+02   -1.6165699768e+02
    2.6810607910e+02   -1.6163499451e+02
    2.6820571899e+02   -1.6161300659e+02
    2.6830685425e+02   -1.6158999634e+02
    2.6840625000e+02   -1.6156799316e+02
    2.6850714111e+02   -1.6154499817e+02
    2.6860632324e+02   -1.6152099609e+02
    2.6870703125e+02   -1.6149800110e+02
    2.6880630493e+02   -1.6147399902e+02
    2.6890652466e+02   -1.6144999695e+02
    2.6900588989e+02   -1.6142599487e+02
    2.6910681152e+02   -1.6140100098e+02
    2.6920669556e+02   -1.6137699890e+02
    2.6930697632e+02   -1.6135200500e+02
    2.6940560913e+02   -1.6132699585e+02
    2.6950576782e+02   -1.6130200195e+02
    2.6960568237e+02   -1.6127600098e+02
    2.6970681763e+02   -1.6125000000e+02
    2.6980648804e+02   -1.6122500610e+02
    2.6990628052e+02   -1.6119900513e+02
    2.7000576782e+02   -1.6117199707e+02
    2.7010620117e+02   -1.6114500427e+02
    2.7020629883e+02   -1.6111799622e+02
    2.7030630493e+02   -1.6109100342e+02
    2.7040628052e+02   -1.6106399536e+02
    2.7050619507e+02   -1.6103599548e+02
    2.7060601807e+02   -1.6100799561e+02
    2.7070578003e+02   -1.6097999573e+02
    2.7080706787e+02   -1.6095100403e+02
    2.7090676880e+02   -1.6092199707e+02
    2.7100698853e+02   -1.6089300537e+02
    2.7110592651e+02   -1.6086399841e+02
    2.7120596313e+02   -1.6083399963e+02
    2.7130661011e+02   -1.6080400085e+02
    2.7140722656e+02   -1.6077299500e+02
    2.7150613403e+02   -1.6074299622e+02
    2.7160626221e+02   -1.6071200562e+02
    2.7170651245e+02   -1.6068099976e+02
    2.7180718994e+02   -1.6064900208e+02
    2.7190618896e+02   -1.6061700439e+02
    2.7200680542e+02   -1.6058500671e+02
    2.7210690308e+02   -1.6055200195e+02
    2.7220623779e+02   -1.6052000427e+02
    2.7230722046e+02   -1.6048599243e+02
    2.7240655518e+02   -1.6045300293e+02
    2.7250738525e+02   -1.6041799927e+02
    2.7260650635e+02   -1.6038400269e+02
    2.7270712280e+02   -1.6034899902e+02
    2.7280599976e+02   -1.6031500244e+02
    2.7290640259e+02   -1.6027900696e+02
    2.7300668335e+02   -1.6024299622e+02
    2.7310690308e+02   -1.6020700073e+02
    2.7320675659e+02   -1.6017100525e+02
    2.7330718994e+02   -1.6013400269e+02
    2.7340585327e+02   -1.6009800720e+02
    2.7350604248e+02   -1.6005999756e+02
    2.7360620117e+02   -1.6002200317e+02
    2.7370629883e+02   -1.5998399353e+02
    2.7380636597e+02   -1.5994599915e+02
    2.7390695190e+02   -1.5990699768e+02
    2.7400598145e+02   -1.5986900330e+02
    2.7410662842e+02   -1.5982899475e+02
    2.7420721436e+02   -1.5978900146e+02
    2.7430615234e+02   -1.5975000000e+02
    2.7440667725e+02   -1.5970899963e+02
    2.7450717163e+02   -1.5966799927e+02
    2.7460595703e+02   -1.5962800598e+02
    2.7470620728e+02   -1.5958700562e+02
    2.7480636597e+02   -1.5954499817e+02
    2.7490643311e+02   -1.5950399780e+02
    2.7500640869e+02   -1.5946099854e+02
    2.7510632324e+02   -1.5941900635e+02
    2.7520620728e+02   -1.5937699890e+02
    2.7530734253e+02   -1.5933299255e+02
    2.7540643311e+02   -1.5928999329e+02
    2.7550708008e+02   -1.5924699402e+02
    2.7560610962e+02   -1.5920300293e+02
    2.7570645142e+02   -1.5915899658e+02
    2.7580645752e+02   -1.5911500549e+02
    2.7590649414e+02   -1.5907000732e+02
    2.7600671387e+02   -1.5902499390e+02
    2.7610736084e+02   -1.5897999573e+02
    2.7620748901e+02   -1.5893400574e+02
    2.7630679321e+02   -1.5888800049e+02
    2.7640612793e+02   -1.5884199524e+02
    2.7650708008e+02   -1.5879499817e+02
    2.7660644531e+02   -1.5874800110e+02
    2.7670742798e+02   -1.5870100403e+02
    2.7680679321e+02   -1.5865299988e+02
    2.7690615845e+02   -1.5860499573e+02
    2.7700708008e+02   -1.5855700684e+02
    2.7710641479e+02   -1.5850799561e+02
    2.7720739746e+02   -1.5845799255e+02
    2.7730606079e+02   -1.5841000366e+02
    2.7740673828e+02   -1.5835899353e+02
    2.7750634766e+02   -1.5830900574e+02
    2.7760760498e+02   -1.5825799561e+02
    2.7770727539e+02   -1.5820700073e+02
    2.7780697632e+02   -1.5815600586e+02
    2.7790664673e+02   -1.5810499573e+02
    2.7800753784e+02   -1.5805200195e+02
    2.7810671997e+02   -1.5800000000e+02
    2.7820748901e+02   -1.5794700623e+02
    2.7830654907e+02   -1.5789399719e+02
    2.7840679932e+02   -1.5783999634e+02
    2.7850698853e+02   -1.5778599548e+02
    2.7860711670e+02   -1.5773199463e+02
    2.7870718384e+02   -1.5767700195e+02
    2.7880718994e+02   -1.5762100220e+02
    2.7890713501e+02   -1.5756599426e+02
    2.7900692749e+02   -1.5750999451e+02
    2.7910662842e+02   -1.5745399475e+02
    2.7920626831e+02   -1.5739700317e+02
    2.7930740356e+02   -1.5733999634e+02
    2.7940686035e+02   -1.5728300476e+02
    2.7950668335e+02   -1.5722500610e+02
    2.7960632324e+02   -1.5716799927e+02
    2.7970764160e+02   -1.5710800171e+02
    2.7980725098e+02   -1.5705000305e+02
    2.7990673828e+02   -1.5699099731e+02
    2.8000778198e+02   -1.5693099976e+02
    2.8010717773e+02   -1.5687199402e+02
    2.8020651245e+02   -1.5681300354e+02
    2.8030755615e+02   -1.5675199890e+02
    2.8040768433e+02   -1.5669099426e+02
    2.8050738525e+02   -1.5663000488e+02
    2.8060699463e+02   -1.5656900024e+02
    2.8070639038e+02   -1.5650799561e+02
    2.8080725098e+02   -1.5644500732e+02
    2.8090640259e+02   -1.5638299561e+02
    2.8100704956e+02   -1.5632000732e+02
    2.8110763550e+02   -1.5625700378e+02
    2.8120654297e+02   -1.5619500732e+02
    2.8130697632e+02   -1.5613099670e+02
    2.8140783691e+02   -1.5606599426e+02
    2.8150747681e+02   -1.5600300598e+02
    2.8160708618e+02   -1.5593800354e+02
    2.8170669556e+02   -1.5587399292e+02
    2.8180633545e+02   -1.5580900574e+02
    2.8190771484e+02   -1.5574299622e+02
    2.8200744629e+02   -1.5567799377e+02
    2.8210717773e+02   -1.5561199951e+02
    2.8220690918e+02   -1.5554600525e+02
    2.8230654907e+02   -1.5547900391e+02
    2.8240698242e+02   -1.5541200256e+02
    2.8250729370e+02   -1.5534500122e+02
    2.8260760498e+02   -1.5527699280e+02
    2.8270794678e+02   -1.5520899963e+02
    2.8280661011e+02   -1.5514100647e+02
    2.8290682983e+02   -1.5507200623e+02
    2.8300695801e+02   -1.5500300598e+02
    2.8310702515e+02   -1.5493400574e+02
    2.8320706177e+02   -1.5486399841e+02
    2.8330722046e+02   -1.5479400635e+02
    2.8340652466e+02   -1.5472500610e+02
    2.8350738525e+02   -1.5465400696e+02
    2.8360653687e+02   -1.5458299255e+02
    2.8370748901e+02   -1.5451100159e+02
    2.8380703735e+02   -1.5444000244e+02
    2.8390747070e+02   -1.5436799622e+02
    2.8400787354e+02   -1.5429600525e+02
    2.8410653687e+02   -1.5422399902e+02
    2.8420681763e+02   -1.5415100098e+02
    2.8430703735e+02   -1.5407800293e+02
    2.8440795898e+02   -1.5400300598e+02
    2.8450729370e+02   -1.5392999268e+02
    2.8460659790e+02   -1.5385600281e+02
    2.8470745850e+02   -1.5378100586e+02
    2.8480654907e+02   -1.5370700073e+02
    2.8490716553e+02   -1.5363099670e+02
    2.8500765991e+02   -1.5355499268e+02
    2.8510803223e+02   -1.5347900391e+02
    2.8520660400e+02   -1.5340400696e+02
    2.8530667114e+02   -1.5332800293e+02
    2.8540817261e+02   -1.5325000000e+02
    2.8550711060e+02   -1.5317399597e+02
    2.8560745239e+02   -1.5309599304e+02
    2.8570748901e+02   -1.5301899719e+02
    2.8580804443e+02   -1.5294099426e+02
    2.8590698242e+02   -1.5286300659e+02
    2.8600778198e+02   -1.5278500366e+02
    2.8610791016e+02   -1.5270599365e+02
    2.8620800781e+02   -1.5262699890e+02
    2.8630804443e+02   -1.5254800415e+02
    2.8640802002e+02   -1.5246800232e+02
    2.8650738525e+02   -1.5238900757e+02
    2.8660745239e+02   -1.5230900574e+02
    2.8670742798e+02   -1.5222900391e+02
    2.8680737305e+02   -1.5214900208e+02
    2.8690719604e+02   -1.5206799316e+02
    2.8700689697e+02   -1.5198699951e+02
    2.8710812378e+02   -1.5190499878e+02
    2.8720764160e+02   -1.5182400513e+02
    2.8730712891e+02   -1.5174299622e+02
    2.8740823364e+02   -1.5166000366e+02
    2.8750814819e+02   -1.5157800293e+02
    2.8760690308e+02   -1.5149699402e+02
    2.8770733643e+02   -1.5141400146e+02
    2.8780789185e+02   -1.5133099365e+02
    2.8790676880e+02   -1.5124800110e+02
    2.8800814819e+02   -1.5116400146e+02
    2.8810723877e+02   -1.5108099365e+02
    2.8820794678e+02   -1.5099699402e+02
    2.8830789185e+02   -1.5091299438e+02
    2.8840673828e+02   -1.5083000183e+02
    2.8850827026e+02   -1.5074400330e+02
    2.8860733032e+02   -1.5066000366e+02
    2.8870803833e+02   -1.5057400513e+02
    2.8880712891e+02   -1.5049000549e+02
    2.8890786743e+02   -1.5040299988e+02
    2.8900695801e+02   -1.5031799316e+02
    2.8910763550e+02   -1.5023100281e+02
    2.8920828247e+02   -1.5014500427e+02
    2.8930725098e+02   -1.5005900574e+02
    2.8940780640e+02   -1.4997099304e+02
    2.8950836182e+02   -1.4988400269e+02
    2.8960733032e+02   -1.4979699707e+02
    2.8970837402e+02   -1.4970899963e+02
    2.8980752563e+02   -1.4962199402e+02
    2.8990820312e+02   -1.4953300476e+02
    2.9000750732e+02   -1.4944500732e+02
    2.9010842896e+02   -1.4935600281e+02
    2.9020767212e+02   -1.4926800537e+02
    2.9030685425e+02   -1.4917900085e+02
    2.9040765381e+02   -1.4908900452e+02
    2.9050735474e+02   -1.4900000000e+02
    2.9060848999e+02   -1.4890899658e+02
    2.9070785522e+02   -1.4881900024e+02
    2.9080706787e+02   -1.4872999573e+02
    2.9090774536e+02   -1.4863900757e+02
    2.9100830078e+02   -1.4854699707e+02
    2.9110702515e+02   -1.4845700073e+02
    2.9120724487e+02   -1.4836599731e+02
    2.9130725098e+02   -1.4827400208e+02
    2.9140713501e+02   -1.4818299866e+02
    2.9150851440e+02   -1.4808999634e+02
    2.9160806274e+02   -1.4799800110e+02
    2.9170712280e+02   -1.4790699768e+02
    2.9180786133e+02   -1.4781399536e+02
    2.9190856934e+02   -1.4772099304e+02
    2.9200750732e+02   -1.4762899780e+02
    2.9210809326e+02   -1.4753599548e+02
    2.9220715332e+02   -1.4744400024e+02
    2.9230789185e+02   -1.4735000610e+02
    2.9240832520e+02   -1.4725599670e+02
    2.9250735474e+02   -1.4716299438e+02
    2.9260784912e+02   -1.4706900024e+02
    2.9270825195e+02   -1.4697500610e+02
    2.9280862427e+02   -1.4688099670e+02
    2.9290728760e+02   -1.4678799438e+02
    2.9300747681e+02   -1.4669299316e+02
    2.9310754395e+02   -1.4659899902e+02
    2.9320748901e+02   -1.4650399780e+02
    2.9330740356e+02   -1.4640899658e+02
    2.9340728760e+02   -1.4631500244e+02
    2.9350720215e+02   -1.4622000122e+02
    2.9360757446e+02   -1.4612399292e+02
    2.9370809937e+02   -1.4602799988e+02
    2.9380786133e+02   -1.4593299866e+02
    2.9390768433e+02   -1.4583700562e+02
    2.9400762939e+02   -1.4574200439e+02
    2.9410775757e+02   -1.4564500427e+02
    2.9420758057e+02   -1.4554899597e+02
    2.9430740356e+02   -1.4545300293e+02
    2.9440719604e+02   -1.4535699463e+02
    2.9450872803e+02   -1.4525799561e+02
    2.9460760498e+02   -1.4516200256e+02
    2.9470721436e+02   -1.4506500244e+02
    2.9480838013e+02   -1.4496699524e+02
    2.9490792847e+02   -1.4486999512e+02
    2.9500738525e+02   -1.4477200317e+02
    2.9510848999e+02   -1.4467300415e+02
    2.9520791626e+02   -1.4457499695e+02
    2.9530722046e+02   -1.4447799683e+02
    2.9540808105e+02   -1.4437800598e+02
    2.9550723267e+02   -1.4427999878e+02
    2.9560806274e+02   -1.4417999268e+02
    2.9570745850e+02   -1.4408099365e+02
    2.9580862427e+02   -1.4398100281e+02
    2.9590881348e+02   -1.4388099670e+02
    2.9600726318e+02   -1.4378300476e+02
    2.9610736084e+02   -1.4368299866e+02
    2.9620742798e+02   -1.4358299255e+02
    2.9630746460e+02   -1.4348199463e+02
    2.9640737915e+02   -1.4338200378e+02
    2.9650869751e+02   -1.4327999878e+02
    2.9660818481e+02   -1.4317900085e+02
    2.9670758057e+02   -1.4307899475e+02
    2.9680847168e+02   -1.4297700500e+02
    2.9690756226e+02   -1.4287600708e+02
    2.9700811768e+02   -1.4277400208e+02
    2.9710855103e+02   -1.4267199707e+02
    2.9720883179e+02   -1.4257000732e+02
    2.9730737305e+02   -1.4246899414e+02
    2.9740747070e+02   -1.4236700439e+02
    2.9750750732e+02   -1.4226499939e+02
    2.9760748291e+02   -1.4216299438e+02
    2.9770886230e+02   -1.4205900574e+02
    2.9780856323e+02   -1.4195700073e+02
    2.9790829468e+02   -1.4185499573e+02
    2.9800769043e+02   -1.4175199890e+02
    2.9810821533e+02   -1.4164900208e+02
    2.9820874023e+02   -1.4154600525e+02
    2.9830737305e+02   -1.4144400024e+02
    2.9840737915e+02   -1.4134100342e+02
    2.9850802612e+02   -1.4123699951e+02
    2.9860736084e+02   -1.4113400269e+02
    2.9870864868e+02   -1.4102900696e+02
    2.9880749512e+02   -1.4092700195e+02
    2.9890789795e+02   -1.4082299805e+02
    2.9900830078e+02   -1.4071800232e+02
    2.9910870361e+02   -1.4061399841e+02
    2.9920745850e+02   -1.4051100159e+02
    2.9930783081e+02   -1.4040600586e+02
    2.9940823364e+02   -1.4030200195e+02
    2.9950863647e+02   -1.4019700623e+02
    2.9960751343e+02   -1.4009300232e+02
    2.9970837402e+02   -1.3998800659e+02
    2.9980886841e+02   -1.3988200378e+02
    2.9990774536e+02   -1.3977799988e+02
endcurve
