Curveplot
LS-DYNA keyword deck by LS-PrePost
Abscissa
Ordinate
XY data
CHOP_EAMX_mo-1 #pts=3000
* Minval=     0.0000000000e+00 at time=         0.0000000000
* Maxval=     1.1371697998e+02 at time=       253.4059448242
    0.0000000000e+00    0.0000000000e+00
    9.9464751780e-02    1.5549300006e-03
    1.9892950356e-01    3.1098600011e-03
    2.9839426279e-01    4.6648001298e-03
    3.9954483509e-01    6.2460801564e-03
    4.9942851067e-01    7.8075695783e-03
    5.9996843338e-01    9.3792956322e-03
    6.9903308153e-01    1.0927956551e-02
    7.9898971319e-01    1.2490567751e-02
    8.9870619774e-01    1.4049497433e-02
    9.9832719564e-01    1.5606818721e-02
    1.0987064838e+00    1.7176134512e-02
    1.1984105110e+00    1.8734741956e-02
    1.2990113497e+00    2.0307421684e-02
    1.3987237215e+00    2.1866139024e-02
    1.4983510971e+00    2.3423504084e-02
    1.5998450518e+00    2.5010108948e-02
    1.6997693777e+00    2.6572301984e-02
    1.7992914915e+00    2.8128489852e-02
    1.8987305164e+00    2.9683737084e-02
    1.9995558262e+00    3.1260628253e-02
    2.0989930630e+00    3.2815519720e-02
    2.1988964081e+00    3.4376993775e-02
    2.2983624935e+00    3.5931013525e-02
    2.3995113373e+00    3.7510622293e-02
    2.4991292953e+00    3.9065763354e-02
    2.5988953114e+00    4.0623042732e-02
    2.6990334988e+00    4.2186468840e-02
    2.7999768257e+00    4.3763056397e-02
    2.8986215591e+00    4.5304797590e-02
    2.9999651909e+00    4.6890161932e-02
    3.0982911587e+00    4.8429608345e-02
    3.1994810104e+00    5.0015348941e-02
    3.2985146046e+00    5.1568545401e-02
    3.3995308876e+00    5.3153824061e-02
    3.4992942810e+00    5.4720103741e-02
    3.5992443562e+00    5.6289739907e-02
    3.6997017860e+00    5.7867676020e-02
    3.7997844219e+00    5.9440158308e-02
    3.8996450901e+00    6.1009615660e-02
    3.9991934299e+00    6.2574833632e-02
    4.0987963676e+00    6.4141429961e-02
    4.1988434792e+00    6.5715372562e-02
    4.2990441322e+00    6.7291781306e-02
    4.3993158340e+00    6.8869024515e-02
    4.4997820854e+00    7.0448540151e-02
    4.5993552208e+00    7.2013020515e-02
    4.6989359856e+00    7.3576718569e-02
    4.7984833717e+00    7.5138896704e-02
    4.8998222351e+00    7.6728366315e-02
    4.9990921021e+00    7.8284658492e-02
    5.0988354683e+00    7.9847387969e-02
    5.1993360519e+00    8.1420384347e-02
    5.2995219231e+00    8.2986190915e-02
    5.3999071121e+00    8.4552042186e-02
    5.4998264313e+00    8.6107008159e-02
    5.5985350609e+00    8.7639093399e-02
    5.6994929314e+00    8.9201927185e-02
    5.7988901138e+00    9.0736500919e-02
    5.8996505737e+00    9.2288404703e-02
    5.9994015694e+00    9.3821167946e-02
    6.0993700027e+00    9.5353864133e-02
    6.1991348267e+00    9.6879765391e-02
    6.2990393639e+00    9.8404094577e-02
    6.3993287086e+00    9.9930688739e-02
    6.4993214607e+00    1.0144829750e-01
    6.5992870331e+00    1.0296204686e-01
    6.6991810799e+00    1.0447038710e-01
    6.7992568016e+00    1.0597980022e-01
    6.8996944427e+00    1.0749171674e-01
    6.9985542297e+00    1.0897764564e-01
    7.0983304977e+00    1.1047619581e-01
    7.1995105743e+00    1.1199369282e-01
    7.2986025810e+00    1.1347689480e-01
    7.3996238708e+00    1.1498558521e-01
    7.4986691475e+00    1.1646216363e-01
    7.5986065865e+00    1.1794752628e-01
    7.6987509727e+00    1.1943340302e-01
    7.7989277840e+00    1.2091639638e-01
    7.8990669250e+00    1.2239607424e-01
    7.9994649887e+00    1.2387859076e-01
    8.0992126465e+00    1.2534889579e-01
    8.1989650726e+00    1.2681740522e-01
    8.2987585068e+00    1.2828488648e-01
    8.3991155624e+00    1.2975868583e-01
    8.4986467361e+00    1.3121800125e-01
    8.5988225937e+00    1.3268445432e-01
    8.6984376907e+00    1.3414160907e-01
    8.7989006042e+00    1.3560847938e-01
    8.8993473053e+00    1.3707432151e-01
    8.9996347427e+00    1.3853733242e-01
    9.0994272232e+00    1.3999162614e-01
    9.1991558075e+00    1.4144329727e-01
    9.2995166779e+00    1.4290201664e-01
    9.3997058868e+00    1.4435619116e-01
    9.4993000031e+00    1.4579825103e-01
    9.5994148254e+00    1.4724512398e-01
    9.6993246078e+00    1.4868722856e-01
    9.7999086380e+00    1.5013705194e-01
    9.8996906281e+00    1.5157480538e-01
    9.9983539581e+00    1.5299507976e-01
    1.0098776817e+01    1.5689924359e-01
    1.0199974060e+01    1.6087308526e-01
    1.0299807549e+01    1.6479068995e-01
    1.0399882317e+01    1.6871556640e-01
    1.0499086380e+01    1.7260389030e-01
    1.0599964142e+01    1.7655532062e-01
    1.0698753357e+01    1.8042328954e-01
    1.0799943924e+01    1.8438214064e-01
    1.0899674416e+01    1.8828266859e-01
    1.0999250412e+01    1.9217720628e-01
    1.1098734856e+01    1.9606550038e-01
    1.1198295593e+01    1.9995574653e-01
    1.1298688889e+01    2.0387513936e-01
    1.1398441315e+01    2.0776619017e-01
    1.1499759674e+01    2.1171520650e-01
    1.1599696159e+01    2.1560595930e-01
    1.1699482918e+01    2.1948912740e-01
    1.1798439026e+01    2.2333754599e-01
    1.1899127007e+01    2.2725147009e-01
    1.1999129295e+01    2.3113785684e-01
    1.2098378181e+01    2.3499241471e-01
    1.2199556351e+01    2.3891882598e-01
    1.2299053192e+01    2.4277667701e-01
    1.2398647308e+01    2.4663364887e-01
    1.2498376846e+01    2.5049382448e-01
    1.2599818230e+01    2.5441592932e-01
    1.2699797630e+01    2.5828078389e-01
    1.2798932076e+01    2.6211154461e-01
    1.2898642540e+01    2.6596549153e-01
    1.2998365402e+01    2.6982039213e-01
    1.3099049568e+01    2.7371352911e-01
    1.3199813843e+01    2.7761003375e-01
    1.3299559593e+01    2.8146708012e-01
    1.3399120331e+01    2.8531640768e-01
    1.3498905182e+01    2.8917166591e-01
    1.3599467278e+01    2.9305565357e-01
    1.3699761391e+01    2.9692769051e-01
    1.3798336029e+01    3.0073302984e-01
    1.3899527550e+01    3.0463877320e-01
    1.3999031067e+01    3.0847823620e-01
    1.4098828316e+01    3.1232810020e-01
    1.4199101448e+01    3.1619402766e-01
    1.4298841476e+01    3.2003661990e-01
    1.4399201393e+01    3.2389819622e-01
    1.4498683929e+01    3.2771968842e-01
    1.4598467827e+01    3.3154737949e-01
    1.4699681282e+01    3.3542248607e-01
    1.4799235344e+01    3.3922821283e-01
    1.4898760796e+01    3.4302699566e-01
    1.4998624802e+01    3.4683310986e-01
    1.5098646164e+01    3.5063821077e-01
    1.5198759079e+01    3.5443910956e-01
    1.5299009323e+01    3.5823610425e-01
    1.5398717880e+01    3.6200082302e-01
    1.5498489380e+01    3.6575639248e-01
    1.5598818779e+01    3.6952129006e-01
    1.5699117661e+01    3.7327221036e-01
    1.5799583435e+01    3.7701809406e-01
    1.5899871826e+01    3.8074660301e-01
    1.5999478340e+01    3.8444000483e-01
    1.6099449158e+01    3.8813540339e-01
    1.6199344635e+01    3.9181712270e-01
    1.6298311234e+01    3.9545279741e-01
    1.6399280548e+01    3.9915081859e-01
    1.6499456406e+01    4.0280690789e-01
    1.6599891663e+01    4.0646111965e-01
    1.6699474335e+01    4.1007438302e-01
    1.6799285889e+01    4.1368559003e-01
    1.6899448395e+01    4.1730231047e-01
    1.6999370575e+01    4.2090290785e-01
    1.7098960876e+01    4.2448487878e-01
    1.7198543549e+01    4.2805960774e-01
    1.7298900604e+01    4.3165248632e-01
    1.7399660110e+01    4.3525129557e-01
    1.7499763489e+01    4.3881779909e-01
    1.7599826813e+01    4.4237339497e-01
    1.7698766708e+01    4.4588017464e-01
    1.7798652649e+01    4.4941371679e-01
    1.7899885178e+01    4.5298749208e-01
    1.7999441147e+01    4.5649591088e-01
    1.8099081039e+01    4.6000179648e-01
    1.8198738098e+01    4.6350139380e-01
    1.8298597336e+01    4.6700230241e-01
    1.8398353577e+01    4.7049188614e-01
    1.8499578476e+01    4.7402620316e-01
    1.8599134445e+01    4.7749587893e-01
    1.8698827744e+01    4.8096379638e-01
    1.8798677444e+01    4.8443150520e-01
    1.8898756027e+01    4.8790246248e-01
    1.8998662949e+01    4.9136447906e-01
    1.9098571777e+01    4.9482107162e-01
    1.9199846268e+01    4.9832057953e-01
    1.9299310684e+01    5.0175207853e-01
    1.9399698257e+01    5.0520819426e-01
    1.9499458313e+01    5.0863498449e-01
    1.9599454880e+01    5.1206469536e-01
    1.9698984146e+01    5.1547127962e-01
    1.9798959732e+01    5.1888805628e-01
    1.9899436951e+01    5.2231830359e-01
    1.9999118805e+01    5.2571636438e-01
    2.0099168777e+01    5.3179287910e-01
    2.0199909210e+01    5.3792881966e-01
    2.0299455643e+01    5.4398697615e-01
    2.0399011612e+01    5.5003678799e-01
    2.0499410629e+01    5.5613088608e-01
    2.0599679947e+01    5.6220871210e-01
    2.0699424744e+01    5.6824749708e-01
    2.0798988342e+01    5.7426810265e-01
    2.0898712158e+01    5.8029282093e-01
    2.1000001907e+01    5.8640700579e-01
    2.1099746704e+01    5.9242111444e-01
    2.1199533463e+01    5.9843194485e-01
    2.1299509048e+01    6.0444504023e-01
    2.1399370193e+01    6.1044222116e-01
    2.1499067307e+01    6.1641836166e-01
    2.1598766327e+01    6.2238556147e-01
    2.1698854446e+01    6.2836581469e-01
    2.1799589157e+01    6.3437801600e-01
    2.1898881912e+01    6.4029645920e-01
    2.1998535156e+01    6.4622968435e-01
    2.2098470688e+01    6.5217381716e-01
    2.2199756622e+01    6.5818941593e-01
    2.2299312592e+01    6.6409438848e-01
    2.2399084091e+01    6.7000257969e-01
    2.2498928070e+01    6.7590737343e-01
    2.2598659515e+01    6.8179601431e-01
    2.2699615479e+01    6.8775159121e-01
    2.2798957825e+01    6.9360613823e-01
    2.2899362564e+01    6.9952028990e-01
    2.2999063492e+01    7.0539128780e-01
    2.3098274231e+01    7.1123021841e-01
    2.3198720932e+01    7.1713912487e-01
    2.3299123764e+01    7.2304040194e-01
    2.3398838043e+01    7.2889530659e-01
    2.3498641968e+01    7.3474705219e-01
    2.3598989487e+01    7.4062412977e-01
    2.3698787689e+01    7.4646079540e-01
    2.3798978806e+01    7.5231337547e-01
    2.3898551941e+01    7.5812458992e-01
    2.3999811172e+01    7.6402842999e-01
    2.4099420547e+01    7.6982939243e-01
    2.4199401855e+01    7.7564269304e-01
    2.4299226761e+01    7.8143680096e-01
    2.4399587631e+01    7.8724914789e-01
    2.4499139786e+01    7.9300081730e-01
    2.4599426270e+01    7.9877907038e-01
    2.4699037552e+01    8.0450272560e-01
    2.4798646927e+01    8.1021231413e-01
    2.4899942398e+01    8.1600248814e-01
    2.4999668121e+01    8.2168787718e-01
    2.5099618912e+01    8.2737112045e-01
    2.5198926926e+01    8.3300006390e-01
    2.5298934937e+01    8.3864939213e-01
    2.5398624420e+01    8.4426039457e-01
    2.5499940872e+01    8.4994089603e-01
    2.5598714828e+01    8.5545623302e-01
    2.5698675156e+01    8.6101621389e-01
    2.5798614502e+01    8.6655449867e-01
    2.5899971008e+01    8.7215042114e-01
    2.5999608994e+01    8.7763202190e-01
    2.6098581314e+01    8.8305878639e-01
    2.6199052811e+01    8.8854777813e-01
    2.6298778534e+01    8.9397513866e-01
    2.6399559021e+01    8.9943873882e-01
    2.6499544144e+01    9.0483903885e-01
    2.6599950790e+01    9.1024470329e-01
    2.6699823380e+01    9.1559505463e-01
    2.6799711227e+01    9.2093873024e-01
    2.6899591446e+01    9.2625796795e-01
    2.6999383926e+01    9.3156397343e-01
    2.7098993301e+01    9.3685001135e-01
    2.7198612213e+01    9.4212198257e-01
    2.7298538208e+01    9.4739502668e-01
    2.7398777008e+01    9.5266807079e-01
    2.7498676300e+01    9.5791101456e-01
    2.7598691940e+01    9.6313703060e-01
    2.7699125290e+01    9.6837198734e-01
    2.7799142838e+01    9.7358000278e-01
    2.7898748398e+01    9.7875297070e-01
    2.7998449326e+01    9.8391300440e-01
    2.8099901199e+01    9.8915499449e-01
    2.8199600220e+01    9.9429392815e-01
    2.8299894333e+01    9.9946194887e-01
    2.8399692535e+01    1.0045861006e+00
    2.8499328613e+01    1.0096910000e+00
    2.8598970413e+01    1.0147849321e+00
    2.8699272156e+01    1.0198959112e+00
    2.8799259186e+01    1.0249830484e+00
    2.8898515701e+01    1.0300319195e+00
    2.9000066757e+01    1.0351859331e+00
    2.9099683762e+01    1.0402230024e+00
    2.9199268341e+01    1.0452619791e+00
    2.9299737930e+01    1.0503380299e+00
    2.9399843216e+01    1.0553779602e+00
    2.9499868393e+01    1.0603989363e+00
    2.9599601746e+01    1.0654040575e+00
    2.9699186325e+01    1.0703809261e+00
    2.9799734116e+01    1.0754009485e+00
    2.9898603439e+01    1.0803309679e+00
    3.0000049591e+01    1.0853860378e+00
    3.0100063324e+01    1.0963369608e+00
    3.0198907852e+01    1.1071480513e+00
    3.0298509598e+01    1.1180239916e+00
    3.0399875641e+01    1.1290940046e+00
    3.0500019073e+01    1.1399999857e+00
    3.0598609924e+01    1.1507289410e+00
    3.0698406219e+01    1.1615710258e+00
    3.0799718857e+01    1.1725699902e+00
    3.0899356842e+01    1.1833670139e+00
    3.0998962402e+01    1.1941530704e+00
    3.1098665237e+01    1.2049340010e+00
    3.1199056625e+01    1.2157690525e+00
    3.1299251556e+01    1.2265819311e+00
    3.1399110794e+01    1.2373359203e+00
    3.1498756409e+01    1.2480460405e+00
    3.1598405838e+01    1.2587380409e+00
    3.1699913025e+01    1.2696169615e+00
    3.1799804688e+01    1.2803128958e+00
    3.1899681091e+01    1.2909870148e+00
    3.1999052048e+01    1.3015980721e+00
    3.2099323273e+01    1.3122879267e+00
    3.2199371338e+01    1.3229379654e+00
    3.2298988342e+01    1.3335310221e+00
    3.2398632050e+01    1.3441169262e+00
    3.2498420715e+01    1.3546940088e+00
    3.2599910736e+01    1.3654289246e+00
    3.2699768066e+01    1.3759860992e+00
    3.2799617767e+01    1.3865339756e+00
    3.2899360657e+01    1.3970680237e+00
    3.2999015808e+01    1.4075790644e+00
    3.3098899841e+01    1.4181109667e+00
    3.3198604584e+01    1.4286309481e+00
    3.3298553467e+01    1.4391589165e+00
    3.3399997711e+01    1.4498319626e+00
    3.3499824524e+01    1.4603180885e+00
    3.3599815369e+01    1.4708160162e+00
    3.3699512482e+01    1.4812649488e+00
    3.3799373627e+01    1.4917179346e+00
    3.3899036407e+01    1.5021420717e+00
    3.3998699188e+01    1.5125439167e+00
    3.4098373413e+01    1.5229430199e+00
    3.4199874878e+01    1.5335149765e+00
    3.4299705505e+01    1.5438860655e+00
    3.4399768829e+01    1.5542690754e+00
    3.4498657227e+01    1.5644938946e+00
    3.4598381042e+01    1.5747931004e+00
    3.4699794769e+01    1.5852220058e+00
    3.4799514771e+01    1.5954660177e+00
    3.4899227142e+01    1.6056729555e+00
    3.4998603821e+01    1.6158239841e+00
    3.5098575592e+01    1.6260039806e+00
    3.5198608398e+01    1.6361629963e+00
    3.5298660278e+01    1.6462990046e+00
    3.5398582458e+01    1.6563819647e+00
    3.5500026703e+01    1.6665759087e+00
    3.5598468781e+01    1.6764299870e+00
    3.5698684692e+01    1.6864179373e+00
    3.5799022675e+01    1.6963829994e+00
    3.5898857117e+01    1.7062669992e+00
    3.5998668671e+01    1.7161079645e+00
    3.6098640442e+01    1.7259401083e+00
    3.6198802948e+01    1.7357530594e+00
    3.6299861908e+01    1.7456160784e+00
    3.6399528503e+01    1.7553141117e+00
    3.6499515533e+01    1.7649960518e+00
    3.6599578857e+01    1.7746621370e+00
    3.6699325562e+01    1.7842549086e+00
    3.6799152374e+01    1.7938359976e+00
    3.6899131775e+01    1.8033969402e+00
    3.6998886108e+01    1.8129220009e+00
    3.7098606110e+01    1.8224170208e+00
    3.7200000763e+01    1.8320549726e+00
    3.7299800873e+01    1.8415100574e+00
    3.7399890900e+01    1.8509699106e+00
    3.7499855042e+01    1.8603870869e+00
    3.7599784851e+01    1.8697769642e+00
    3.7699523926e+01    1.8791270256e+00
    3.7799243927e+01    1.8884450197e+00
    3.7898952484e+01    1.8977428675e+00
    3.7998653412e+01    1.9070229530e+00
    3.8098350525e+01    1.9162869453e+00
    3.8199798584e+01    1.9256929159e+00
    3.8299514771e+01    1.9349210262e+00
    3.8399158478e+01    1.9441339970e+00
    3.8498821259e+01    1.9533160925e+00
    3.8598445892e+01    1.9624799490e+00
    3.8699844360e+01    1.9717919827e+00
    3.8799057007e+01    1.9808750153e+00
    3.8898952484e+01    1.9900190830e+00
    3.8998905182e+01    1.9991480112e+00
    3.9098583221e+01    2.0082440376e+00
    3.9199935913e+01    2.0174748898e+00
    3.9299739838e+01    2.0265440941e+00
    3.9399703979e+01    2.0356070995e+00
    3.9499378204e+01    2.0446300507e+00
    3.9599060059e+01    2.0536310673e+00
    3.9698734283e+01    2.0626010895e+00
    3.9799339294e+01    2.0716481209e+00
    3.9899013519e+01    2.0805919170e+00
    3.9998680115e+01    2.0895109177e+00
    4.0098403931e+01    2.1060910225e+00
    4.0198535919e+01    2.1228170395e+00
    4.0299880981e+01    2.1397249699e+00
    4.0399543762e+01    2.1563320160e+00
    4.0499343872e+01    2.1729259491e+00
    4.0598827362e+01    2.1894431114e+00
    4.0698852539e+01    2.2060301304e+00
    4.0798526764e+01    2.2225148678e+00
    4.0899890900e+01    2.2392702103e+00
    4.0999519348e+01    2.2557120323e+00
    4.1099147797e+01    2.2721340656e+00
    4.1198783875e+01    2.2885308266e+00
    4.1298873901e+01    2.3049829006e+00
    4.1398681641e+01    2.3213469982e+00
    4.1499885559e+01    2.3379111290e+00
    4.1598258972e+01    2.3539910316e+00
    4.1699592590e+01    2.3705179691e+00
    4.1799850464e+01    2.3868439198e+00
    4.1898513794e+01    2.4028849602e+00
    4.1999584198e+01    2.4192931652e+00
    4.2099063873e+01    2.4354279041e+00
    4.2198543549e+01    2.4515399933e+00
    4.2299808502e+01    2.4679179192e+00
    4.2399459839e+01    2.4839990139e+00
    4.2499191284e+01    2.5000691414e+00
    4.2598945618e+01    2.5161218643e+00
    4.2699180603e+01    2.5322208405e+00
    4.2798889160e+01    2.5482251644e+00
    4.2899635315e+01    2.5643801689e+00
    4.2999271393e+01    2.5803439617e+00
    4.3098159790e+01    2.5961830616e+00
    4.3198822021e+01    2.6122889519e+00
    4.3298522949e+01    2.6282210350e+00
    4.3398273468e+01    2.6441509724e+00
    4.3499622345e+01    2.6603031158e+00
    4.3599685669e+01    2.6762270927e+00
    4.3698249817e+01    2.6918861866e+00
    4.3799583435e+01    2.7079629898e+00
    4.3899295807e+01    2.7237629890e+00
    4.3999069214e+01    2.7395401001e+00
    4.4098800659e+01    2.7553069592e+00
    4.4198482513e+01    2.7710299492e+00
    4.4299835205e+01    2.7869801521e+00
    4.4398761749e+01    2.8025190830e+00
    4.4498676300e+01    2.8181569576e+00
    4.4598949432e+01    2.8338220119e+00
    4.4698806763e+01    2.8493609428e+00
    4.4798488617e+01    2.8648331165e+00
    4.4899852753e+01    2.8805258274e+00
    4.4999008179e+01    2.8958292007e+00
    4.5099197388e+01    2.9112548828e+00
    4.5199680328e+01    2.9266679287e+00
    4.5299793243e+01    2.9419779778e+00
    4.5399318695e+01    2.9571421146e+00
    4.5499282837e+01    2.9723129272e+00
    4.5599781036e+01    2.9874918461e+00
    4.5699436188e+01    3.0024969578e+00
    4.5799232483e+01    3.0174558163e+00
    4.5898929596e+01    3.0323560238e+00
    4.5998806000e+01    3.0472240448e+00
    4.6099487305e+01    3.0621552467e+00
    4.6198360443e+01    3.0767769814e+00
    4.6298870087e+01    3.0915820599e+00
    4.6398773193e+01    3.1062469482e+00
    4.6498664856e+01    3.1208491325e+00
    4.6598819733e+01    3.1354398727e+00
    4.6698665619e+01    3.1499290466e+00
    4.6798358917e+01    3.1643519402e+00
    4.6898403168e+01    3.1787939072e+00
    4.6998260498e+01    3.1931719780e+00
    4.7099792480e+01    3.2077522278e+00
    4.7199512482e+01    3.2220299244e+00
    4.7299133301e+01    3.2362689972e+00
    4.7398738861e+01    3.2504699230e+00
    4.7498825073e+01    3.2646911144e+00
    4.7599601746e+01    3.2789771557e+00
    4.7699115753e+01    3.2930352688e+00
    4.7798767090e+01    3.3070898056e+00
    4.7898601532e+01    3.3211340904e+00
    4.7999797821e+01    3.3353419304e+00
    4.8099239349e+01    3.3492779732e+00
    4.8198898315e+01    3.3632252216e+00
    4.8298545837e+01    3.3771357536e+00
    4.8399639130e+01    3.3912248611e+00
    4.8499305725e+01    3.4050869942e+00
    4.8598670959e+01    3.4188699722e+00
    4.8698516846e+01    3.4327011108e+00
    4.8799671173e+01    3.4466781616e+00
    4.8899730682e+01    3.4604849815e+00
    4.8999511719e+01    3.4742290974e+00
    4.9099212646e+01    3.4879381657e+00
    4.9198623657e+01    3.5015938282e+00
    4.9298419952e+01    3.5152678490e+00
    4.9398452759e+01    3.5289552212e+00
    4.9499637604e+01    3.5427591801e+00
    4.9599388123e+01    3.5563259125e+00
    4.9698822021e+01    3.5698227882e+00
    4.9799747467e+01    3.5834949017e+00
    4.9899806976e+01    3.5970070362e+00
    4.9999237061e+01    3.6104161739e+00
    5.0098670959e+01    3.6332671642e+00
    5.0199291229e+01    3.6564438343e+00
    5.0298717499e+01    3.6792988777e+00
    5.0398162842e+01    3.7021231651e+00
    5.0498939514e+01    3.7252068520e+00
    5.0599620819e+01    3.7482199669e+00
    5.0699768066e+01    3.7710680962e+00
    5.0799293518e+01    3.7937302589e+00
    5.0898853302e+01    3.8163700104e+00
    5.0998249054e+01    3.8389301300e+00
    5.1099605560e+01    3.8619098663e+00
    5.1199153900e+01    3.8844401836e+00
    5.1299350739e+01    3.9070701599e+00
    5.1399227142e+01    3.9295799732e+00
    5.1498455048e+01    3.9518899918e+00
    5.1598487854e+01    3.9743499756e+00
    5.1699230194e+01    3.9969100952e+00
    5.1799263000e+01    4.0192799568e+00
    5.1899345398e+01    4.0416097641e+00
    5.1998989105e+01    4.0638103485e+00
    5.2098205566e+01    4.0858902931e+00
    5.2199108124e+01    4.1083097458e+00
    5.2298542023e+01    4.1303701401e+00
    5.2398197174e+01    4.1524295807e+00
    5.2499481201e+01    4.1748099327e+00
    5.2599246979e+01    4.1968202591e+00
    5.2699344635e+01    4.2188601494e+00
    5.2799541473e+01    4.2409000397e+00
    5.2898468018e+01    4.2626399994e+00
    5.2999664307e+01    4.2848596573e+00
    5.3098884583e+01    4.3066301346e+00
    5.3199352264e+01    4.3286499977e+00
    5.3299064636e+01    4.3504800797e+00
    5.3399028778e+01    4.3723201752e+00
    5.3498477936e+01    4.3940100670e+00
    5.3598152161e+01    4.4157199860e+00
    5.3699234009e+01    4.4376797676e+00
    5.3798679352e+01    4.4592599869e+00
    5.3898395538e+01    4.4808602333e+00
    5.3998210907e+01    4.5024399757e+00
    5.4099525452e+01    4.5243101120e+00
    5.4199005127e+01    4.5457401276e+00
    5.4298465729e+01    4.5671300888e+00
    5.4398651123e+01    4.5886096954e+00
    5.4498073578e+01    4.6098599434e+00
    5.4598510742e+01    4.6312699318e+00
    5.4698493958e+01    4.6525001526e+00
    5.4799705505e+01    4.6739296913e+00
    5.4899185181e+01    4.6949300766e+00
    5.4998458862e+01    4.7158298492e+00
    5.5098869324e+01    4.7368803024e+00
    5.5198421478e+01    4.7577095032e+00
    5.5298675537e+01    4.7786002159e+00
    5.5398860931e+01    4.7993903160e+00
    5.5498931885e+01    4.8200802803e+00
    5.5599720001e+01    4.8408198357e+00
    5.5699172974e+01    4.8611998558e+00
    5.5798778534e+01    4.8815402985e+00
    5.5898418427e+01    4.9018096924e+00
    5.5998451233e+01    4.9220695496e+00
    5.6099250793e+01    4.9424300194e+00
    5.6199199677e+01    4.9625396729e+00
    5.6298458099e+01    4.9824299812e+00
    5.6399513245e+01    5.0026197433e+00
    5.6499183655e+01    5.0224499702e+00
    5.6598861694e+01    5.0422096252e+00
    5.6698699951e+01    5.0619401932e+00
    5.6798175812e+01    5.0815296173e+00
    5.6898345947e+01    5.1012096405e+00
    5.6998332977e+01    5.1207900047e+00
    5.7098285675e+01    5.1403198242e+00
    5.7199680328e+01    5.1600999832e+00
    5.7299068451e+01    5.1794199944e+00
    5.7398483276e+01    5.1987094879e+00
    5.7498657227e+01    5.2180800438e+00
    5.7599300385e+01    5.2374897003e+00
    5.7698551178e+01    5.2565999031e+00
    5.7798160553e+01    5.2757101059e+00
    5.7898082733e+01    5.2948498726e+00
    5.7999015808e+01    5.3141398430e+00
    5.8098190308e+01    5.3330597878e+00
    5.8199565887e+01    5.3523697853e+00
    5.8298091888e+01    5.3710999489e+00
    5.8398857117e+01    5.3902297020e+00
    5.8498310089e+01    5.4090600014e+00
    5.8599094391e+01    5.4281001091e+00
    5.8698657990e+01    5.4468798637e+00
    5.8798557281e+01    5.4656701088e+00
    5.8898353577e+01    5.4844098091e+00
    5.8998191833e+01    5.5031299591e+00
    5.9098022461e+01    5.5218200684e+00
    5.9198860168e+01    5.5406599045e+00
    5.9298591614e+01    5.5592603683e+00
    5.9398792267e+01    5.5779099464e+00
    5.9498268127e+01    5.5963702202e+00
    5.9598152161e+01    5.6148600578e+00
    5.9699028015e+01    5.6334896088e+00
    5.9798957825e+01    5.6518902779e+00
    5.9898925781e+01    5.6702599525e+00
    5.9998096466e+01    5.6884403229e+00
    6.0098972321e+01    5.7180004120e+00
    6.0198276520e+01    5.7472600937e+00
    6.0299133301e+01    5.7769398689e+00
    6.0398368835e+01    5.8060698509e+00
    6.0498920441e+01    5.8355302811e+00
    6.0598987579e+01    5.8647799492e+00
    6.0699398041e+01    5.8940701485e+00
    6.0798805237e+01    5.9230003357e+00
    6.0898227692e+01    5.9518804550e+00
    6.0999065399e+01    5.9811201096e+00
    6.1098628998e+01    6.0099401474e+00
    6.1198814392e+01    6.0388898849e+00
    6.1299121857e+01    6.0678195953e+00
    6.1399040222e+01    6.0965700150e+00
    6.1498008728e+01    6.1249699593e+00
    6.1598419189e+01    6.1537299156e+00
    6.1698120117e+01    6.1822195053e+00
    6.1798183441e+01    6.2107601166e+00
    6.1899089813e+01    6.2394905090e+00
    6.1997974396e+01    6.2676000595e+00
    6.2098632812e+01    6.2961702347e+00
    6.2199283600e+01    6.3246793747e+00
    6.2298591614e+01    6.3527603149e+00
    6.2398288727e+01    6.3808999062e+00
    6.2499523163e+01    6.4094099998e+00
    6.2599418640e+01    6.4375000000e+00
    6.2697952271e+01    6.4651598930e+00
    6.2798286438e+01    6.4932699203e+00
    6.2898574829e+01    6.5213398933e+00
    6.2997989655e+01    6.5491499901e+00
    6.3097953796e+01    6.5770697594e+00
    6.3199584961e+01    6.6054396629e+00
    6.3299255371e+01    6.6332197189e+00
    6.3399276733e+01    6.6610403061e+00
    6.3498580933e+01    6.6886196136e+00
    6.3598197937e+01    6.7162203789e+00
    6.3698497772e+01    6.7439498901e+00
    6.3799430847e+01    6.7718095779e+00
    6.3899143219e+01    6.7992696762e+00
    6.3999095917e+01    6.8267498016e+00
    6.4098510742e+01    6.8540306091e+00
    6.4199485779e+01    6.8816804886e+00
    6.4298751831e+01    6.9087996483e+00
    6.4399353027e+01    6.9362001419e+00
    6.4499092102e+01    6.9632802010e+00
    6.4599304199e+01    6.9903993607e+00
    6.4699501038e+01    7.0174202919e+00
    6.4798828125e+01    7.0441198349e+00
    6.4898124695e+01    7.0707302094e+00
    6.4998863220e+01    7.0976300240e+00
    6.5099067688e+01    7.1243000031e+00
    6.5199142456e+01    7.1508498192e+00
    6.5297943115e+01    7.1769695282e+00
    6.5398216248e+01    7.2033600807e+00
    6.5498413086e+01    7.2296395302e+00
    6.5599433899e+01    7.2560100555e+00
    6.5698699951e+01    7.2818107605e+00
    6.5797973633e+01    7.3075304031e+00
    6.5898910522e+01    7.3336000443e+00
    6.5998947144e+01    7.3592500687e+00
    6.6098472595e+01    7.3847899437e+00
    6.6198242188e+01    7.4101996422e+00
    6.6297935486e+01    7.4355301857e+00
    6.6398002625e+01    7.4609098434e+00
    6.6499168396e+01    7.4864196777e+00
    6.6598495483e+01    7.5114402771e+00
    6.6698181152e+01    7.5364098549e+00
    6.6799133301e+01    7.5616102219e+00
    6.6899520874e+01    7.5866203308e+00
    6.6997894287e+01    7.6111001968e+00
    6.7097915649e+01    7.6359605789e+00
    6.7199249268e+01    7.6610398293e+00
    6.7298408508e+01    7.6855201721e+00
    6.7397857666e+01    7.7100000381e+00
    6.7498176575e+01    7.7346601486e+00
    6.7598976135e+01    7.7592802048e+00
    6.7697982788e+01    7.7835397720e+00
    6.7799400330e+01    7.8082304001e+00
    6.7899383545e+01    7.8325200081e+00
    6.7998321533e+01    7.8565402031e+00
    6.8098915100e+01    7.8809294701e+00
    6.8198638916e+01    7.9051403999e+00
    6.8298904419e+01    7.9293103218e+00
    6.8399398804e+01    7.9535994530e+00
    6.8498512268e+01    7.9773697853e+00
    6.8599021912e+01    8.0015602112e+00
    6.8698196411e+01    8.0253200531e+00
    6.8798377991e+01    8.0492601395e+00
    6.8899055481e+01    8.0732698441e+00
    6.8998924255e+01    8.0970802307e+00
    6.9098777771e+01    8.1208600998e+00
    6.9199478149e+01    8.1447401047e+00
    6.9299110413e+01    8.1683597565e+00
    6.9399406433e+01    8.1921100616e+00
    6.9498710632e+01    8.2155694962e+00
    6.9598670959e+01    8.2390499115e+00
    6.9697883606e+01    8.2623004913e+00
    6.9799194336e+01    8.2859992981e+00
    6.9898956299e+01    8.3092308044e+00
    6.9997909546e+01    8.3322505951e+00
    7.0098564148e+01    8.3666000366e+00
    7.0198677063e+01    8.4008903503e+00
    7.0299339294e+01    8.4353103638e+00
    7.0398384094e+01    8.4690504074e+00
    7.0498428345e+01    8.5031204224e+00
    7.0599357605e+01    8.5373506546e+00
    7.0698265076e+01    8.5708599091e+00
    7.0799247742e+01    8.6049995422e+00
    7.0898490906e+01    8.6384000778e+00
    7.0999168396e+01    8.6722602844e+00
    7.1098709106e+01    8.7056808472e+00
    7.1198440552e+01    8.7390899658e+00
    7.1298713684e+01    8.7726192474e+00
    7.1398773193e+01    8.8060102463e+00
    7.1499237061e+01    8.8394403458e+00
    7.1599029541e+01    8.8725204468e+00
    7.1699096680e+01    8.9056596756e+00
    7.1799247742e+01    8.9387207031e+00
    7.1897949219e+01    8.9713001251e+00
    7.1998474121e+01    9.0043601990e+00
    7.2098976135e+01    9.0373706818e+00
    7.2197792053e+01    9.0698604584e+00
    7.2298767090e+01    9.1028594971e+00
    7.2398544312e+01    9.1355304718e+00
    7.2497924805e+01    9.1679105759e+00
    7.2597839355e+01    9.2004203796e+00
    7.2698532104e+01    9.2331199646e+00
    7.2797851562e+01    9.2653303146e+00
    7.2899330139e+01    9.2981796265e+00
    7.2998680115e+01    9.3303108215e+00
    7.3098632812e+01    9.3625793457e+00
    7.3198600769e+01    9.3949098587e+00
    7.3298156738e+01    9.4269695282e+00
    7.3398269653e+01    9.4591598511e+00
    7.3499168396e+01    9.4915199280e+00
    7.3598701477e+01    9.5233802795e+00
    7.3699394226e+01    9.5555295944e+00
    7.3798507690e+01    9.5871295929e+00
    7.3898231506e+01    9.6188507080e+00
    7.3998115540e+01    9.6505603790e+00
    7.4099342346e+01    9.6826305389e+00
    7.4198501587e+01    9.7139511108e+00
    7.4299324036e+01    9.7456398010e+00
    7.4398574829e+01    9.7768697739e+00
    7.4498466492e+01    9.8081607819e+00
    7.4598838806e+01    9.8394298553e+00
    7.4699096680e+01    9.8706102371e+00
    7.4798225403e+01    9.9013309479e+00
    7.4899070740e+01    9.9324703217e+00
    7.4999382019e+01    9.9633197784e+00
    7.5098289490e+01    9.9936704636e+00
    7.5197906494e+01    1.0024059296e+01
    7.5298370361e+01    1.0054649353e+01
    7.5398590088e+01    1.0085069656e+01
    7.5498809814e+01    1.0115270615e+01
    7.5597846985e+01    1.0145111084e+01
    7.5698677063e+01    1.0175209045e+01
    7.5798011780e+01    1.0204839706e+01
    7.5898864746e+01    1.0234800339e+01
    7.5998992920e+01    1.0264520645e+01
    7.6098281860e+01    1.0293740273e+01
    7.6197845459e+01    1.0322990417e+01
    7.6299232483e+01    1.0352720261e+01
    7.6398193359e+01    1.0381609917e+01
    7.6499282837e+01    1.0410999298e+01
    7.6598464966e+01    1.0439829826e+01
    7.6697837830e+01    1.0468530655e+01
    7.6798622131e+01    1.0497509956e+01
    7.6898971558e+01    1.0526410103e+01
    7.6999008179e+01    1.0555029869e+01
    7.7098983765e+01    1.0583689690e+01
    7.7198654175e+01    1.0612070084e+01
    7.7299316406e+01    1.0640749931e+01
    7.7398513794e+01    1.0668920517e+01
    7.7498863220e+01    1.0697450638e+01
    7.7597900391e+01    1.0725419998e+01
    7.7698417664e+01    1.0753770828e+01
    7.7798255920e+01    1.0781919479e+01
    7.7898216248e+01    1.0809989929e+01
    7.7998725891e+01    1.0838180542e+01
    7.8099159241e+01    1.0866350174e+01
    7.8198577881e+01    1.0894220352e+01
    7.8299102783e+01    1.0922270775e+01
    7.8397781372e+01    1.0949729919e+01
    7.8498405457e+01    1.0977770805e+01
    7.8599090576e+01    1.1005720139e+01
    7.8698196411e+01    1.1033209801e+01
    7.8798538208e+01    1.1060940742e+01
    7.8899223328e+01    1.1088729858e+01
    7.8998992920e+01    1.1116189957e+01
    7.9098937988e+01    1.1143769264e+01
    7.9197990417e+01    1.1170920372e+01
    7.9299171448e+01    1.1198671341e+01
    7.9397720337e+01    1.1225629807e+01
    7.9499130249e+01    1.1253190041e+01
    7.9599044800e+01    1.1280350685e+01
    7.9698135376e+01    1.1307250977e+01
    7.9797996521e+01    1.1334269524e+01
    7.9899307251e+01    1.1361539841e+01
    7.9998176575e+01    1.1388170242e+01
    8.0098747253e+01    1.1426689148e+01
    8.0198181152e+01    1.1465028763e+01
    8.0298767090e+01    1.1503600121e+01
    8.0397712708e+01    1.1541590691e+01
    8.0498893738e+01    1.1580209732e+01
    8.0599304199e+01    1.1618518829e+01
    8.0698326111e+01    1.1656100273e+01
    8.0799285889e+01    1.1694469452e+01
    8.0898399353e+01    1.1731950760e+01
    8.0999038696e+01    1.1769950867e+01
    8.1098533630e+01    1.1807470322e+01
    8.1198959351e+01    1.1845170021e+01
    8.1299057007e+01    1.1882780075e+01
    8.1398963928e+01    1.1920150757e+01
    8.1497779846e+01    1.1957120895e+01
    8.1599166870e+01    1.1994910240e+01
    8.1698730469e+01    1.2031889915e+01
    8.1798835754e+01    1.2068960190e+01
    8.1899276733e+01    1.2106160164e+01
    8.1997909546e+01    1.2142589569e+01
    8.2098396301e+01    1.2179660797e+01
    8.2198867798e+01    1.2216770172e+01
    8.2298049927e+01    1.2253160477e+01
    8.2397987366e+01    1.2289880753e+01
    8.2498893738e+01    1.2326860428e+01
    8.2598670959e+01    1.2363279343e+01
    8.2699256897e+01    1.2400009155e+01
    8.2798698425e+01    1.2436201096e+01
    8.2898689270e+01    1.2472589493e+01
    8.2998016357e+01    1.2508730888e+01
    8.3097946167e+01    1.2544959068e+01
    8.3198799133e+01    1.2581579208e+01
    8.3298324585e+01    1.2617619514e+01
    8.3398475647e+01    1.2653810501e+01
    8.3497711182e+01    1.2689579010e+01
    8.3598815918e+01    1.2725938797e+01
    8.3698532104e+01    1.2761699677e+01
    8.3797630310e+01    1.2797161102e+01
    8.3899002075e+01    1.2833390236e+01
    8.3998886108e+01    1.2868980408e+01
    8.4098083496e+01    1.2904280663e+01
    8.4198913574e+01    1.2940039635e+01
    8.4298049927e+01    1.2975189209e+01
    8.4397842407e+01    1.3010339737e+01
    8.4497871399e+01    1.3045608521e+01
    8.4598182678e+01    1.3080780029e+01
    8.4698356628e+01    1.3115758896e+01
    8.4797630310e+01    1.3150289536e+01
    8.4898460388e+01    1.3185239792e+01
    8.4999137878e+01    1.3220109940e+01
    8.5098823547e+01    1.3254470825e+01
    8.5199111938e+01    1.3288841248e+01
    8.5297897339e+01    1.3322740555e+01
    8.5398010254e+01    1.3356800079e+01
    8.5497940063e+01    1.3390789032e+01
    8.5599052429e+01    1.3424990654e+01
    8.5698196411e+01    1.3458349228e+01
    8.5798408508e+01    1.3492050171e+01
    8.5897590637e+01    1.3525159836e+01
    8.5999221802e+01    1.3559089661e+01
    8.6098236084e+01    1.3592029572e+01
    8.6198234558e+01    1.3625159264e+01
    8.6297973633e+01    1.3658081055e+01
    8.6398239136e+01    1.3691129684e+01
    8.6497825623e+01    1.3723790169e+01
    8.6598640442e+01    1.3756759644e+01
    8.6697860718e+01    1.3789149284e+01
    8.6798599243e+01    1.3821960449e+01
    8.6899116516e+01    1.3854578972e+01
    8.6999008179e+01    1.3886919022e+01
    8.7098831177e+01    1.3919229507e+01
    8.7198524475e+01    1.3951431274e+01
    8.7297599792e+01    1.3983369827e+01
    8.7398666382e+01    1.4015911102e+01
    8.7498992920e+01    1.4048120499e+01
    8.7597908020e+01    1.4079820633e+01
    8.7698410034e+01    1.4111950874e+01
    8.7798126221e+01    1.4143770218e+01
    8.7897895813e+01    1.4175620079e+01
    8.7998588562e+01    1.4207620621e+01
    8.8099029541e+01    1.4239568710e+01
    8.8198051453e+01    1.4271039963e+01
    8.8297927856e+01    1.4302700043e+01
    8.8398300171e+01    1.4334439278e+01
    8.8498802185e+01    1.4366299629e+01
    8.8597846985e+01    1.4397460938e+01
    8.8698600769e+01    1.4429209709e+01
    8.8798103333e+01    1.4460499763e+01
    8.8898239136e+01    1.4491930962e+01
    8.8997764587e+01    1.4523110390e+01
    8.9097564697e+01    1.4554350853e+01
    8.9198410034e+01    1.4585780144e+01
    8.9297744751e+01    1.4616750717e+01
    8.9397682190e+01    1.4647748947e+01
    8.9497871399e+01    1.4678779602e+01
    8.9597648621e+01    1.4709660530e+01
    8.9698661804e+01    1.4740750313e+01
    8.9798271179e+01    1.4771409035e+01
    8.9897743225e+01    1.4801929474e+01
    8.9998344421e+01    1.4832600594e+01
    9.0098991394e+01    1.4877680779e+01
    9.0197540283e+01    1.4921978951e+01
    9.0298309326e+01    1.4967240334e+01
    9.0399032593e+01    1.5012310028e+01
    9.0498954773e+01    1.5056850433e+01
    9.0598358154e+01    1.5101161003e+01
    9.0697532654e+01    1.5145240784e+01
    9.0798568726e+01    1.5190080643e+01
    9.0898002625e+01    1.5233979225e+01
    9.0998703003e+01    1.5278459549e+01
    9.1098129272e+01    1.5322310448e+01
    9.1197578430e+01    1.5366070747e+01
    9.1299072266e+01    1.5410649300e+01
    9.1398910522e+01    1.5454399109e+01
    9.1497810364e+01    1.5497689247e+01
    9.1597610474e+01    1.5541278839e+01
    9.1698753357e+01    1.5585300446e+01
    9.1798583984e+01    1.5628710747e+01
    9.1897865295e+01    1.5671850204e+01
    9.1998123169e+01    1.5715279579e+01
    9.2098678589e+01    1.5758850098e+01
    9.2197540283e+01    1.5801560402e+01
    9.2298370361e+01    1.5845099449e+01
    9.2398117065e+01    1.5888159752e+01
    9.2498939514e+01    1.5931459427e+01
    9.2598602295e+01    1.5974309921e+01
    9.2697456360e+01    1.6016677856e+01
    9.2798309326e+01    1.6059879303e+01
    9.2897972107e+01    1.6102569580e+01
    9.2998962402e+01    1.6145740509e+01
    9.3098892212e+01    1.6188449860e+01
    9.3198997498e+01    1.6231159210e+01
    9.3298439026e+01    1.6273548126e+01
    9.3398330688e+01    1.6316108704e+01
    9.3497573853e+01    1.6358219147e+01
    9.3598655701e+01    1.6401081085e+01
    9.3698608398e+01    1.6443359375e+01
    9.3797752380e+01    1.6485250473e+01
    9.3899002075e+01    1.6527889252e+01
    9.3998741150e+01    1.6569820404e+01
    9.4098075867e+01    1.6611509323e+01
    9.4198997498e+01    1.6653800964e+01
    9.4298240662e+01    1.6695301056e+01
    9.4398742676e+01    1.6737199783e+01
    9.4498855591e+01    1.6778900146e+01
    9.4599044800e+01    1.6820400238e+01
    9.4698997498e+01    1.6861598969e+01
    9.4798210144e+01    1.6902500153e+01
    9.4897445679e+01    1.6943300247e+01
    9.4998138428e+01    1.6984500885e+01
    9.5097686768e+01    1.7025199890e+01
    9.5198081970e+01    1.7065999985e+01
    9.5298728943e+01    1.7106800079e+01
    9.5398635864e+01    1.7147300720e+01
    9.5498374939e+01    1.7187500000e+01
    9.5597663879e+01    1.7227399826e+01
    9.5698524475e+01    1.7267801285e+01
    9.5797790527e+01    1.7307399750e+01
    9.5898986816e+01    1.7347702026e+01
    9.5998985291e+01    1.7387399673e+01
    9.6098060608e+01    1.7426601410e+01
    9.6197578430e+01    1.7465900421e+01
    9.6297988892e+01    1.7505397797e+01
    9.6398582458e+01    1.7544799805e+01
    9.6498344421e+01    1.7583999634e+01
    9.6597564697e+01    1.7622699738e+01
    9.6698661804e+01    1.7662099838e+01
    9.6797798157e+01    1.7700599670e+01
    9.6898208618e+01    1.7739601135e+01
    9.6997932434e+01    1.7778301239e+01
    9.7097503662e+01    1.7816799164e+01
    9.7198707581e+01    1.7856000900e+01
    9.7297836304e+01    1.7894199371e+01
    9.7398887634e+01    1.7933200836e+01
    9.7497428894e+01    1.7971199036e+01
    9.7598175049e+01    1.8009799957e+01
    9.7698791504e+01    1.8048400879e+01
    9.7798393250e+01    1.8086700439e+01
    9.7897941589e+01    1.8124698639e+01
    9.7998611450e+01    1.8163200378e+01
    9.8097488403e+01    1.8200901031e+01
    9.8198631287e+01    1.8239498138e+01
    9.8297607422e+01    1.8277198792e+01
    9.8398071289e+01    1.8315401077e+01
    9.8498641968e+01    1.8353599548e+01
    9.8597709656e+01    1.8391201019e+01
    9.8698402405e+01    1.8429300308e+01
    9.8798988342e+01    1.8467300415e+01
    9.8899047852e+01    1.8505100250e+01
    9.8998474121e+01    1.8542499542e+01
    9.9098030090e+01    1.8579999924e+01
    9.9198913574e+01    1.8617900848e+01
    9.9298187256e+01    1.8655101776e+01
    9.9397727966e+01    1.8692300797e+01
    9.9497390747e+01    1.8729499817e+01
    9.9598632812e+01    1.8767200470e+01
    9.9697845459e+01    1.8804000854e+01
    9.9798309326e+01    1.8841199875e+01
    9.9898513794e+01    1.8878200531e+01
    9.9997566223e+01    1.8914699554e+01
    1.0009834290e+02    1.8968999863e+01
    1.0019773865e+02    1.9022899628e+01
    1.0029878998e+02    1.9077598572e+01
    1.0039791870e+02    1.9131200790e+01
    1.0049799347e+02    1.9185199738e+01
    1.0059751129e+02    1.9238700867e+01
    1.0069835663e+02    1.9292999268e+01
    1.0079770660e+02    1.9346300125e+01
    1.0089897919e+02    1.9400400162e+01
    1.0099813843e+02    1.9453399658e+01
    1.0109767151e+02    1.9506599426e+01
    1.0119863129e+02    1.9560400009e+01
    1.0129815674e+02    1.9613399506e+01
    1.0139785004e+02    1.9666397095e+01
    1.0149839783e+02    1.9719699860e+01
    1.0159835815e+02    1.9772598267e+01
    1.0169811249e+02    1.9825401306e+01
    1.0179760742e+02    1.9877799988e+01
    1.0189794922e+02    1.9930799484e+01
    1.0199787140e+02    1.9983398438e+01
    1.0209844208e+02    2.0036298752e+01
    1.0219899750e+02    2.0089199066e+01
    1.0229805756e+02    2.0141201019e+01
    1.0239761353e+02    2.0193399429e+01
    1.0249828339e+02    2.0246099472e+01
    1.0259786224e+02    2.0298101425e+01
    1.0269793701e+02    2.0350399017e+01
    1.0279759979e+02    2.0402399063e+01
    1.0289862823e+02    2.0455101013e+01
    1.0299786377e+02    2.0506801605e+01
    1.0309763336e+02    2.0558700562e+01
    1.0319763947e+02    2.0610698700e+01
    1.0329869080e+02    2.0663299561e+01
    1.0339829254e+02    2.0715000153e+01
    1.0349752045e+02    2.0766401291e+01
    1.0359850311e+02    2.0818698883e+01
    1.0369854736e+02    2.0870300293e+01
    1.0379776001e+02    2.0921401978e+01
    1.0389884949e+02    2.0973501205e+01
    1.0399832153e+02    2.1024600983e+01
    1.0409761810e+02    2.1075500488e+01
    1.0419864655e+02    2.1127401352e+01
    1.0429798889e+02    2.1178100586e+01
    1.0439884186e+02    2.1229598999e+01
    1.0449725342e+02    2.1279697418e+01
    1.0459738159e+02    2.1330398560e+01
    1.0469876099e+02    2.1381801605e+01
    1.0479804993e+02    2.1431898117e+01
    1.0489736176e+02    2.1481901169e+01
    1.0499845886e+02    2.1532697678e+01
    1.0509780121e+02    2.1582500458e+01
    1.0519824982e+02    2.1632598877e+01
    1.0529734039e+02    2.1682102203e+01
    1.0539868164e+02    2.1732398987e+01
    1.0549820709e+02    2.1781801224e+01
    1.0559748840e+02    2.1830802917e+01
    1.0569841766e+02    2.1880500793e+01
    1.0579753113e+02    2.1929201126e+01
    1.0589762878e+02    2.1978199005e+01
    1.0599735260e+02    2.2026897430e+01
    1.0609765625e+02    2.2075801849e+01
    1.0619872284e+02    2.2124898911e+01
    1.0629737854e+02    2.2172901154e+01
    1.0639750671e+02    2.2221302032e+01
    1.0649858856e+02    2.2270202637e+01
    1.0659793091e+02    2.2318099976e+01
    1.0669734192e+02    2.2365900040e+01
    1.0679827118e+02    2.2414398193e+01
    1.0689855194e+02    2.2462497711e+01
    1.0699799347e+02    2.2510101318e+01
    1.0709887695e+02    2.2558399200e+01
    1.0719808960e+02    2.2605899811e+01
    1.0729727936e+02    2.2653200150e+01
    1.0739816284e+02    2.2701297760e+01
    1.0749823761e+02    2.2749000549e+01
    1.0759735870e+02    2.2796100616e+01
    1.0769805145e+02    2.2843900681e+01
    1.0779737091e+02    2.2891000748e+01
    1.0789832306e+02    2.2938798904e+01
    1.0799729919e+02    2.2985601425e+01
    1.0809792328e+02    2.3033098221e+01
    1.0819731903e+02    2.3080101013e+01
    1.0829875946e+02    2.3127899170e+01
    1.0839759064e+02    2.3174497604e+01
    1.0849822235e+02    2.3221799850e+01
    1.0859729767e+02    2.3268301010e+01
    1.0869792938e+02    2.3315502167e+01
    1.0879718018e+02    2.3361902237e+01
    1.0889888763e+02    2.3409500122e+01
    1.0899825287e+02    2.3455801010e+01
    1.0909754181e+02    2.3502000809e+01
    1.0919841003e+02    2.3548999786e+01
    1.0929756927e+02    2.3594999313e+01
    1.0939753723e+02    2.3641298294e+01
    1.0949871063e+02    2.3688102722e+01
    1.0959799194e+02    2.3733898163e+01
    1.0969882202e+02    2.3780200958e+01
    1.0979721832e+02    2.3825399399e+01
    1.0989875793e+02    2.3871900558e+01
    1.0999787140e+02    2.3917299271e+01
    1.1009870911e+02    2.3984300613e+01
    1.1019789124e+02    2.4050699234e+01
    1.1029884338e+02    2.4118101120e+01
    1.1039797974e+02    2.4184299469e+01
    1.1049723816e+02    2.4250301361e+01
    1.1059748077e+02    2.4316902161e+01
    1.1069818878e+02    2.4383701324e+01
    1.1079756927e+02    2.4449499130e+01
    1.1089885712e+02    2.4516500473e+01
    1.1099804688e+02    2.4581998825e+01
    1.1109879303e+02    2.4648500443e+01
    1.1119789886e+02    2.4713800430e+01
    1.1129876709e+02    2.4780199051e+01
    1.1139830017e+02    2.4845598221e+01
    1.1149875641e+02    2.4911600113e+01
    1.1159799957e+02    2.4976602554e+01
    1.1169873810e+02    2.5042501450e+01
    1.1179791260e+02    2.5107299805e+01
    1.1189804840e+02    2.5172700882e+01
    1.1199755859e+02    2.5237600327e+01
    1.1209803009e+02    2.5302999496e+01
    1.1219847107e+02    2.5368499756e+01
    1.1229734802e+02    2.5432798386e+01
    1.1239826202e+02    2.5498300552e+01
    1.1249878693e+02    2.5563600540e+01
    1.1259828949e+02    2.5628101349e+01
    1.1269821930e+02    2.5692800522e+01
    1.1279791260e+02    2.5757198334e+01
    1.1289859772e+02    2.5822401047e+01
    1.1299759674e+02    2.5886402130e+01
    1.1309866333e+02    2.5951702118e+01
    1.1319850159e+02    2.6016101837e+01
    1.1329772186e+02    2.6080099106e+01
    1.1339862823e+02    2.6145002365e+01
    1.1349777222e+02    2.6208801270e+01
    1.1359857941e+02    2.6273599625e+01
    1.1369802094e+02    2.6337299347e+01
    1.1379718781e+02    2.6400798798e+01
    1.1389807129e+02    2.6465200424e+01
    1.1399727631e+02    2.6528598785e+01
    1.1409815216e+02    2.6592800140e+01
    1.1419738770e+02    2.6655998230e+01
    1.1429837799e+02    2.6720199585e+01
    1.1439730072e+02    2.6782800674e+01
    1.1449720764e+02    2.6846000671e+01
    1.1459716797e+02    2.6909099579e+01
    1.1469831848e+02    2.6972698212e+01
    1.1479756165e+02    2.7035099030e+01
    1.1489849854e+02    2.7098201752e+01
    1.1499820709e+02    2.7160499573e+01
    1.1509728241e+02    2.7222198486e+01
    1.1519814301e+02    2.7284999847e+01
    1.1529728699e+02    2.7346500397e+01
    1.1539869690e+02    2.7409200668e+01
    1.1549806976e+02    2.7470500946e+01
    1.1559735107e+02    2.7531599045e+01
    1.1569825745e+02    2.7593400955e+01
    1.1579724884e+02    2.7654001236e+01
    1.1589794922e+02    2.7715400696e+01
    1.1599851227e+02    2.7776700974e+01
    1.1609796906e+02    2.7837001801e+01
    1.1619730377e+02    2.7897298813e+01
    1.1629730988e+02    2.7957799911e+01
    1.1639865112e+02    2.8018898010e+01
    1.1649848938e+02    2.8079202652e+01
    1.1659783936e+02    2.8138898849e+01
    1.1669870758e+02    2.8199401855e+01
    1.1679785156e+02    2.8258800507e+01
    1.1689777374e+02    2.8318500519e+01
    1.1699874878e+02    2.8378900528e+01
    1.1709776306e+02    2.8438001633e+01
    1.1719838715e+02    2.8498001099e+01
    1.1729730225e+02    2.8556898117e+01
    1.1739804840e+02    2.8616802216e+01
    1.1749797058e+02    2.8676101685e+01
    1.1759831238e+02    2.8735599518e+01
    1.1769725800e+02    2.8794101715e+01
    1.1779801941e+02    2.8853700638e+01
    1.1789868927e+02    2.8913099289e+01
    1.1799755859e+02    2.8971401215e+01
    1.1809806061e+02    2.9030498505e+01
    1.1819732666e+02    2.9088901520e+01
    1.1829740143e+02    2.9147699356e+01
    1.1839772797e+02    2.9206499100e+01
    1.1849816895e+02    2.9265300751e+01
    1.1859873962e+02    2.9324100494e+01
    1.1869751740e+02    2.9381700516e+01
    1.1879865265e+02    2.9440599442e+01
    1.1889803314e+02    2.9498498917e+01
    1.1899707031e+02    2.9555999756e+01
    1.1909777069e+02    2.9614398956e+01
    1.1919844055e+02    2.9672698975e+01
    1.1929756927e+02    2.9729999542e+01
    1.1939790344e+02    2.9787801743e+01
    1.1949729156e+02    2.9844900131e+01
    1.1959799957e+02    2.9902797699e+01
    1.1969866180e+02    2.9960502625e+01
    1.1979846954e+02    3.0017398834e+01
    1.1989839935e+02    3.0074501038e+01
    1.1999738312e+02    3.0130798340e+01
    1.2009808350e+02    3.0211099625e+01
    1.2019773865e+02    3.0291101456e+01
    1.2029847717e+02    3.0371900558e+01
    1.2039740753e+02    3.0451101303e+01
    1.2049803162e+02    3.0531501770e+01
    1.2059742737e+02    3.0610801697e+01
    1.2069798279e+02    3.0690799713e+01
    1.2079718018e+02    3.0769701004e+01
    1.2089823151e+02    3.0849901199e+01
    1.2099719238e+02    3.0928298950e+01
    1.2109765625e+02    3.1008001328e+01
    1.2119815826e+02    3.1087499619e+01
    1.2129705811e+02    3.1165700912e+01
    1.2139801025e+02    3.1245298386e+01
    1.2149819183e+02    3.1324300766e+01
    1.2159750366e+02    3.1402400970e+01
    1.2169822693e+02    3.1481599808e+01
    1.2179718781e+02    3.1559202194e+01
    1.2189714050e+02    3.1637598038e+01
    1.2199787140e+02    3.1716497421e+01
    1.2209808350e+02    3.1794898987e+01
    1.2219827271e+02    3.1873197556e+01
    1.2229856110e+02    3.1951599121e+01
    1.2239752197e+02    3.2028701782e+01
    1.2249797058e+02    3.2106899261e+01
    1.2259732056e+02    3.2184299469e+01
    1.2269754028e+02    3.2262199402e+01
    1.2279802704e+02    3.2340099335e+01
    1.2289845276e+02    3.2417999268e+01
    1.2299719238e+02    3.2494598389e+01
    1.2309793854e+02    3.2572597504e+01
    1.2319763184e+02    3.2649902344e+01
    1.2329828644e+02    3.2727699280e+01
    1.2339723206e+02    3.2804000854e+01
    1.2349777222e+02    3.2881599426e+01
    1.2359832001e+02    3.2958900452e+01
    1.2369721985e+02    3.3034900665e+01
    1.2379785919e+02    3.3111999512e+01
    1.2389851379e+02    3.3188999176e+01
    1.2399751282e+02    3.3264801025e+01
    1.2409815216e+02    3.3341598511e+01
    1.2419718170e+02    3.3416999817e+01
    1.2429795837e+02    3.3493698120e+01
    1.2439791107e+02    3.3569499969e+01
    1.2449751282e+02    3.3644901276e+01
    1.2459761047e+02    3.3720397949e+01
    1.2469860077e+02    3.3796401978e+01
    1.2479763794e+02    3.3870700836e+01
    1.2489837646e+02    3.3946197510e+01
    1.2499784088e+02    3.4020500183e+01
    1.2509841919e+02    3.4095397949e+01
    1.2519795227e+02    3.4169399261e+01
    1.2529863739e+02    3.4244098663e+01
    1.2539840698e+02    3.4317901611e+01
    1.2549758148e+02    3.4391098022e+01
    1.2559835815e+02    3.4465099335e+01
    1.2569743347e+02    3.4537696838e+01
    1.2579795837e+02    3.4611198425e+01
    1.2589849854e+02    3.4684600830e+01
    1.2599730682e+02    3.4756500244e+01
    1.2609815979e+02    3.4829700470e+01
    1.2619728088e+02    3.4901596069e+01
    1.2629692841e+02    3.4973499298e+01
    1.2639739227e+02    3.5046096802e+01
    1.2649748993e+02    3.5118103027e+01
    1.2659832001e+02    3.5190498352e+01
    1.2669731903e+02    3.5261497498e+01
    1.2679792786e+02    3.5333400726e+01
    1.2689849091e+02    3.5405296326e+01
    1.2699733734e+02    3.5475898743e+01
    1.2709779358e+02    3.5547401428e+01
    1.2719818115e+02    3.5618797302e+01
    1.2729853058e+02    3.5690101624e+01
    1.2739724731e+02    3.5760002136e+01
    1.2749758148e+02    3.5831100464e+01
    1.2759700012e+02    3.5901298523e+01
    1.2769730377e+02    3.5972099304e+01
    1.2779781342e+02    3.6042800903e+01
    1.2789823914e+02    3.6113395691e+01
    1.2799846649e+02    3.6183700562e+01
    1.2809695435e+02    3.6252799988e+01
    1.2819735718e+02    3.6323001862e+01
    1.2829838562e+02    3.6393600464e+01
    1.2839834595e+02    3.6463298798e+01
    1.2849844360e+02    3.6533103943e+01
    1.2859716797e+02    3.6601699829e+01
    1.2869725037e+02    3.6671001434e+01
    1.2879832458e+02    3.6741001129e+01
    1.2889860535e+02    3.6810401917e+01
    1.2899740601e+02    3.6878597260e+01
    1.2909783936e+02    3.6947803497e+01
    1.2919859314e+02    3.7017097473e+01
    1.2929730225e+02    3.7084903717e+01
    1.2939770508e+02    3.7153602600e+01
    1.2949868774e+02    3.7222602844e+01
    1.2959751892e+02    3.7289897919e+01
    1.2969787598e+02    3.7358200073e+01
    1.2979809570e+02    3.7426200867e+01
    1.2989840698e+02    3.7494102478e+01
    1.2999867249e+02    3.7561801910e+01
    1.3009730530e+02    3.7653400421e+01
    1.3019839478e+02    3.7747299194e+01
    1.3029724121e+02    3.7838905334e+01
    1.3039744568e+02    3.7931800842e+01
    1.3049769592e+02    3.8024398804e+01
    1.3059817505e+02    3.8117198944e+01
    1.3069857788e+02    3.8209701538e+01
    1.3079743958e+02    3.8300601959e+01
    1.3089842224e+02    3.8393394470e+01
    1.3099862671e+02    3.8485305786e+01
    1.3109870911e+02    3.8577003479e+01
    1.3119718933e+02    3.8667198181e+01
    1.3129754639e+02    3.8758903503e+01
    1.3139839172e+02    3.8850898743e+01
    1.3149821472e+02    3.8941802979e+01
    1.3159819031e+02    3.9032695770e+01
    1.3169831848e+02    3.9123603821e+01
    1.3179718018e+02    3.9213195801e+01
    1.3189866638e+02    3.9305099487e+01
    1.3199807739e+02    3.9395000458e+01
    1.3209796143e+02    3.9485202789e+01
    1.3219781494e+02    3.9575397491e+01
    1.3229782104e+02    3.9665496826e+01
    1.3239814758e+02    3.9755802155e+01
    1.3249740601e+02    3.9844997406e+01
    1.3259811401e+02    3.9935203552e+01
    1.3269793701e+02    4.0024597168e+01
    1.3279815674e+02    4.0114295959e+01
    1.3289840698e+02    4.0204002380e+01
    1.3299867249e+02    4.0293495178e+01
    1.3309739685e+02    4.0381599426e+01
    1.3319863892e+02    4.0471801758e+01
    1.3329887390e+02    4.0560897827e+01
    1.3339753723e+02    4.0648498535e+01
    1.3349780273e+02    4.0737297058e+01
    1.3359806824e+02    4.0825901031e+01
    1.3369839478e+02    4.0914398193e+01
    1.3379867554e+02    4.1002700806e+01
    1.3389851379e+02    4.1090396881e+01
    1.3399891663e+02    4.1178401947e+01
    1.3409765625e+02    4.1264801025e+01
    1.3419812012e+02    4.1352596283e+01
    1.3429856873e+02    4.1440097809e+01
    1.3439782715e+02    4.1526302338e+01
    1.3449870300e+02    4.1613800049e+01
    1.3459771729e+02    4.1699398041e+01
    1.3469856262e+02    4.1786201477e+01
    1.3479890442e+02    4.1872497559e+01
    1.3489761353e+02    4.1957099915e+01
    1.3499873352e+02    4.2043498993e+01
    1.3509901428e+02    4.2128997803e+01
    1.3519869995e+02    4.2213703156e+01
    1.3529754639e+02    4.2297504425e+01
    1.3539869690e+02    4.2383003235e+01
    1.3549760437e+02    4.2466304779e+01
    1.3559799194e+02    4.2550697327e+01
    1.3569842529e+02    4.2634799957e+01
    1.3579827881e+02    4.2718204498e+01
    1.3589862061e+02    4.2801700592e+01
    1.3599896240e+02    4.2885204315e+01
    1.3609774780e+02    4.2967098236e+01
    1.3619810486e+02    4.3050098419e+01
    1.3629826355e+02    4.3132698059e+01
    1.3639825439e+02    4.3215099335e+01
    1.3649757385e+02    4.3296699524e+01
    1.3659808350e+02    4.3379001617e+01
    1.3669847107e+02    4.3461097717e+01
    1.3679878235e+02    4.3542900085e+01
    1.3689747620e+02    4.3623199463e+01
    1.3699780273e+02    4.3704799652e+01
    1.3709785461e+02    4.3785999298e+01
    1.3719793701e+02    4.3867000580e+01
    1.3729806519e+02    4.3947998047e+01
    1.3739796448e+02    4.4028602600e+01
    1.3749807739e+02    4.4109199524e+01
    1.3759907532e+02    4.4190402985e+01
    1.3769883728e+02    4.4270298004e+01
    1.3779774475e+02    4.4349498749e+01
    1.3789756775e+02    4.4429203033e+01
    1.3799891663e+02    4.4509899139e+01
    1.3809855652e+02    4.4589199066e+01
    1.3819862366e+02    4.4668697357e+01
    1.3829768372e+02    4.4747203827e+01
    1.3839877319e+02    4.4827301025e+01
    1.3849853516e+02    4.4906097412e+01
    1.3859878540e+02    4.4984996796e+01
    1.3869836426e+02    4.5063301086e+01
    1.3879866028e+02    4.5141998291e+01
    1.3889797974e+02    4.5219802856e+01
    1.3899824524e+02    4.5298198700e+01
    1.3909844971e+02    4.5376403809e+01
    1.3919772339e+02    4.5453697205e+01
    1.3929809570e+02    4.5531600952e+01
    1.3939799500e+02    4.5609104156e+01
    1.3949855042e+02    4.5686695099e+01
    1.3959912109e+02    4.5764297485e+01
    1.3969908142e+02    4.5841098785e+01
    1.3979875183e+02    4.5917503357e+01
    1.3989852905e+02    4.5993801117e+01
    1.3999824524e+02    4.6070003510e+01
    1.4009802246e+02    4.6170398712e+01
    1.4019888306e+02    4.6272201538e+01
    1.4029925537e+02    4.6373199463e+01
    1.4039895630e+02    4.6473499298e+01
    1.4049870300e+02    4.6573497772e+01
    1.4059858704e+02    4.6673503876e+01
    1.4069889832e+02    4.6773601532e+01
    1.4079934692e+02    4.6873798370e+01
    1.4089869690e+02    4.6972702026e+01
    1.4099873352e+02    4.7072196960e+01
    1.4109840393e+02    4.7171096802e+01
    1.4119822693e+02    4.7269905090e+01
    1.4129843140e+02    4.7369003296e+01
    1.4139924622e+02    4.7468502045e+01
    1.4149940491e+02    4.7567100525e+01
    1.4159899902e+02    4.7665103912e+01
    1.4169871521e+02    4.7763000488e+01
    1.4179858398e+02    4.7860698700e+01
    1.4189810181e+02    4.7958103180e+01
    1.4199940491e+02    4.8056999207e+01
    1.4209890747e+02    4.8154102325e+01
    1.4219841003e+02    4.8250999451e+01
    1.4229815674e+02    4.8347797394e+01
    1.4239845276e+02    4.8445102692e+01
    1.4249946594e+02    4.8542896271e+01
    1.4259826660e+02    4.8638305664e+01
    1.4269929504e+02    4.8735698700e+01
    1.4279949951e+02    4.8832199097e+01
    1.4289939880e+02    4.8928100586e+01
    1.4299945068e+02    4.9024097443e+01
    1.4309793091e+02    4.9118499756e+01
    1.4319804382e+02    4.9214202881e+01
    1.4329939270e+02    4.9310897827e+01
    1.4339944458e+02    4.9406101227e+01
    1.4349937439e+02    4.9500797272e+01
    1.4359838867e+02    4.9594600677e+01
    1.4369842529e+02    4.9689102173e+01
    1.4379821777e+02    4.9783000946e+01
    1.4389837646e+02    4.9877101898e+01
    1.4399838257e+02    4.9970802307e+01
    1.4409854126e+02    5.0064403534e+01
    1.4419802856e+02    5.0157199860e+01
    1.4429800415e+02    5.0250202179e+01
    1.4439950562e+02    5.0344295502e+01
    1.4449960327e+02    5.0436698914e+01
    1.4459878540e+02    5.0528099060e+01
    1.4469810486e+02    5.0619297028e+01
    1.4479824829e+02    5.0710998535e+01
    1.4489863586e+02    5.0802700043e+01
    1.4499844360e+02    5.0893398285e+01
    1.4509855652e+02    5.0984302521e+01
    1.4519798279e+02    5.1074199677e+01
    1.4529832458e+02    5.1164703369e+01
    1.4539889526e+02    5.1255096436e+01
    1.4549913025e+02    5.1345005035e+01
    1.4559898376e+02    5.1434101105e+01
    1.4569894409e+02    5.1523097992e+01
    1.4579841614e+02    5.1611400604e+01
    1.4589828491e+02    5.1699798584e+01
    1.4599812317e+02    5.1788002014e+01
    1.4609942627e+02    5.1877101898e+01
    1.4619918823e+02    5.1964797974e+01
    1.4629907227e+02    5.2052303314e+01
    1.4639834595e+02    5.2139003754e+01
    1.4649894714e+02    5.2226703644e+01
    1.4659930420e+02    5.2313899994e+01
    1.4669927979e+02    5.2400497437e+01
    1.4679940796e+02    5.2487098694e+01
    1.4689947510e+02    5.2573497772e+01
    1.4699952698e+02    5.2659702301e+01
    1.4709942627e+02    5.2745498657e+01
    1.4719911194e+02    5.2830997467e+01
    1.4729884338e+02    5.2916297913e+01
    1.4739976501e+02    5.3002502441e+01
    1.4749906921e+02    5.3087100983e+01
    1.4759840393e+02    5.3171398163e+01
    1.4769970703e+02    5.3257202148e+01
    1.4779841614e+02    5.3340702057e+01
    1.4789926147e+02    5.3425701141e+01
    1.4799838257e+02    5.3509201050e+01
    1.4809913635e+02    5.3593700409e+01
    1.4819918823e+02    5.3677600861e+01
    1.4829852295e+02    5.3760700226e+01
    1.4839909363e+02    5.3844501495e+01
    1.4849845886e+02    5.3927200317e+01
    1.4859901428e+02    5.4010700226e+01
    1.4869975281e+02    5.4094200134e+01
    1.4879985046e+02    5.4176898956e+01
    1.4889826965e+02    5.4258205414e+01
    1.4899830627e+02    5.4340496063e+01
    1.4909826660e+02    5.4421798706e+01
    1.4919912720e+02    5.4504798889e+01
    1.4929981995e+02    5.4586799622e+01
    1.4939924622e+02    5.4667903900e+01
    1.4949879456e+02    5.4748695374e+01
    1.4959976196e+02    5.4829597473e+01
    1.4969953918e+02    5.4910598755e+01
    1.4979870605e+02    5.4990100861e+01
    1.4989965820e+02    5.5071300507e+01
    1.4999891663e+02    5.5150302887e+01
    1.5009838867e+02    5.5252799988e+01
    1.5019891357e+02    5.5356903076e+01
    1.5029913330e+02    5.5461097717e+01
    1.5039889526e+02    5.5563503265e+01
    1.5049899292e+02    5.5666297913e+01
    1.5059843445e+02    5.5767604828e+01
    1.5069836426e+02    5.5870197296e+01
    1.5079855347e+02    5.5972202301e+01
    1.5089982605e+02    5.6075798035e+01
    1.5099908447e+02    5.6176399231e+01
    1.5109852600e+02    5.6276699066e+01
    1.5119973755e+02    5.6379699707e+01
    1.5129978943e+02    5.6480804443e+01
    1.5139848328e+02    5.6580299377e+01
    1.5149995422e+02    5.6682300568e+01
    1.5159938049e+02    5.6781398773e+01
    1.5169859314e+02    5.6880504608e+01
    1.5179953003e+02    5.6981399536e+01
    1.5189860535e+02    5.7080303192e+01
    1.5199931335e+02    5.7180099487e+01
    1.5209863281e+02    5.7278301239e+01
    1.5219967651e+02    5.7378196716e+01
    1.5229913330e+02    5.7476802826e+01
    1.5239923096e+02    5.7575397491e+01
    1.5249870300e+02    5.7673400879e+01
    1.5259909058e+02    5.7771095276e+01
    1.5269920349e+02    5.7868900299e+01
    1.5279948425e+02    5.7967304230e+01
    1.5289895630e+02    5.8063400269e+01
    1.5299873352e+02    5.8159996033e+01
    1.5309861755e+02    5.8257198334e+01
    1.5320013428e+02    5.8355201721e+01
    1.5329937744e+02    5.8450698853e+01
    1.5339901733e+02    5.8546302795e+01
    1.5349862671e+02    5.8641799927e+01
    1.5359895325e+02    5.8738002777e+01
    1.5369897461e+02    5.8832298279e+01
    1.5379997253e+02    5.8928100586e+01
    1.5389973450e+02    5.9023204803e+01
    1.5399942017e+02    5.9117099762e+01
    1.5409916687e+02    5.9210597992e+01
    1.5419989014e+02    5.9304698944e+01
    1.5429939270e+02    5.9398002625e+01
    1.5439872742e+02    5.9490100861e+01
    1.5450015259e+02    5.9584400177e+01
    1.5459936523e+02    5.9676097870e+01
    1.5469862366e+02    5.9767402649e+01
    1.5479869080e+02    5.9859397888e+01
    1.5489889526e+02    5.9950901031e+01
    1.5499986267e+02    6.0043197632e+01
    1.5510018921e+02    6.0135101318e+01
    1.5519934082e+02    6.0224998474e+01
    1.5529936218e+02    6.0315700531e+01
    1.5539950562e+02    6.0405803680e+01
    1.5549931335e+02    6.0494998932e+01
    1.5559864807e+02    6.0583595276e+01
    1.5569966125e+02    6.0673698425e+01
    1.5579980469e+02    6.0762702942e+01
    1.5589907837e+02    6.0851398468e+01
    1.5599989319e+02    6.0940002441e+01
    1.5609898376e+02    6.1027500153e+01
    1.5619949341e+02    6.1116001129e+01
    1.5629893494e+02    6.1202598572e+01
    1.5640017700e+02    6.1291599274e+01
    1.5650030518e+02    6.1378803253e+01
    1.5659988403e+02    6.1465499878e+01
    1.5669958496e+02    6.1551696777e+01
    1.5679930115e+02    6.1637699127e+01
    1.5689979553e+02    6.1724502563e+01
    1.5699882507e+02    6.1809001923e+01
    1.5709938049e+02    6.1895301819e+01
    1.5719938660e+02    6.1981197357e+01
    1.5729985046e+02    6.2067100525e+01
    1.5740026855e+02    6.2152896881e+01
    1.5749960327e+02    6.2236900330e+01
    1.5759928894e+02    6.2321197510e+01
    1.5770018005e+02    6.2406600952e+01
    1.5779916382e+02    6.2489299774e+01
    1.5789964294e+02    6.2573799133e+01
    1.5800004578e+02    6.2658203125e+01
    1.5810040283e+02    6.2741298676e+01
    1.5820005798e+02    6.2824302673e+01
    1.5829896545e+02    6.2907001495e+01
    1.5839921570e+02    6.2989604950e+01
    1.5849998474e+02    6.3073398590e+01
    1.5859967041e+02    6.3155303955e+01
    1.5870037842e+02    6.3237598419e+01
    1.5879989624e+02    6.3319202423e+01
    1.5889967346e+02    6.3400299072e+01
    1.5899940491e+02    6.3481201172e+01
    1.5909904480e+02    6.3561897278e+01
    1.5919958496e+02    6.3643199921e+01
    1.5929911804e+02    6.3723499298e+01
    1.5939991760e+02    6.3803901672e+01
    1.5949905396e+02    6.3883197784e+01
    1.5959948730e+02    6.3963500977e+01
    1.5969940186e+02    6.4043205261e+01
    1.5980003357e+02    6.4122604370e+01
    1.5989930725e+02    6.4200607300e+01
    1.5999998474e+02    6.4279495239e+01
    1.6010011292e+02    6.4379898071e+01
    1.6019888306e+02    6.4478797913e+01
    1.6029980469e+02    6.4579605103e+01
    1.6040043640e+02    6.4679397583e+01
    1.6049995422e+02    6.4777496338e+01
    1.6059945679e+02    6.4876403809e+01
    1.6070010376e+02    6.4975296021e+01
    1.6079989624e+02    6.5073303223e+01
    1.6090049744e+02    6.5171798706e+01
    1.6100001526e+02    6.5269592285e+01
    1.6109985352e+02    6.5366699219e+01
    1.6119900513e+02    6.5463592529e+01
    1.6130030823e+02    6.5562103271e+01
    1.6139974976e+02    6.5657897949e+01
    1.6149926758e+02    6.5754402161e+01
    1.6159988403e+02    6.5851104736e+01
    1.6170040894e+02    6.5947601318e+01
    1.6179924011e+02    6.6041305542e+01
    1.6189978027e+02    6.6137306213e+01
    1.6199972534e+02    6.6232795715e+01
    1.6209907532e+02    6.6327003479e+01
    1.6220005798e+02    6.6422592163e+01
    1.6229914856e+02    6.6516601562e+01
    1.6240036011e+02    6.6611297607e+01
    1.6249923706e+02    6.6703994751e+01
    1.6259989929e+02    6.6797912598e+01
    1.6269950867e+02    6.6891006470e+01
    1.6279928589e+02    6.6983604431e+01
    1.6290002441e+02    6.7077598572e+01
    1.6299935913e+02    6.7169303894e+01
    1.6310037231e+02    6.7262397766e+01
    1.6319979858e+02    6.7353401184e+01
    1.6330026245e+02    6.7445602417e+01
    1.6339941406e+02    6.7536392212e+01
    1.6350062561e+02    6.7627899170e+01
    1.6359965515e+02    6.7718208313e+01
    1.6370031738e+02    6.7808807373e+01
    1.6379924011e+02    6.7897705078e+01
    1.6389910889e+02    6.7986907959e+01
    1.6400036621e+02    6.8077705383e+01
    1.6409971619e+02    6.8166091919e+01
    1.6419929504e+02    6.8254791260e+01
    1.6430053711e+02    6.8343795776e+01
    1.6439923096e+02    6.8431297302e+01
    1.6449960327e+02    6.8519897461e+01
    1.6460072327e+02    6.8608200073e+01
    1.6469943237e+02    6.8694702148e+01
    1.6479927063e+02    6.8781105042e+01
    1.6490065002e+02    6.8869003296e+01
    1.6500033569e+02    6.8955200195e+01
    1.6509953308e+02    6.9039802551e+01
    1.6520048523e+02    6.9126403809e+01
    1.6529978943e+02    6.9211296082e+01
    1.6539950562e+02    6.9296195984e+01
    1.6550042725e+02    6.9382003784e+01
    1.6559939575e+02    6.9466499329e+01
    1.6570001221e+02    6.9551094055e+01
    1.6580070496e+02    6.9635391235e+01
    1.6590083313e+02    6.9719200134e+01
    1.6599975586e+02    6.9801704407e+01
    1.6610025024e+02    6.9885398865e+01
    1.6620011902e+02    6.9967895508e+01
    1.6630036926e+02    7.0051498413e+01
    1.6639933777e+02    7.0132896423e+01
    1.6650041199e+02    7.0215805054e+01
    1.6659968567e+02    7.0297195435e+01
    1.6670066833e+02    7.0379600525e+01
    1.6679992676e+02    7.0460594177e+01
    1.6689953613e+02    7.0541694641e+01
    1.6699974060e+02    7.0622596741e+01
    1.6709938049e+02    7.0703201294e+01
    1.6719966125e+02    7.0783607483e+01
    1.6729985046e+02    7.0863800049e+01
    1.6740003967e+02    7.0943702698e+01
    1.6750053406e+02    7.1023902893e+01
    1.6760096741e+02    7.1103897095e+01
    1.6769992065e+02    7.1181999207e+01
    1.6780101013e+02    7.1261405945e+01
    1.6789971924e+02    7.1339309692e+01
    1.6800006104e+02    7.1417297363e+01
    1.6809945679e+02    7.1495597839e+01
    1.6819952393e+02    7.1572494507e+01
    1.6829986572e+02    7.1650794983e+01
    1.6840026855e+02    7.1728591919e+01
    1.6849960327e+02    7.1804801941e+01
    1.6860047913e+02    7.1881401062e+01
    1.6869975281e+02    7.1957092285e+01
    1.6880039978e+02    7.2034400940e+01
    1.6889967346e+02    7.2109603882e+01
    1.6900054932e+02    7.2184906006e+01
    1.6909971619e+02    7.2259696960e+01
    1.6919961548e+02    7.2333999634e+01
    1.6930058289e+02    7.2409202576e+01
    1.6939970398e+02    7.2483192444e+01
    1.6950042725e+02    7.2557189941e+01
    1.6959986877e+02    7.2631004333e+01
    1.6969992065e+02    7.2704399109e+01
    1.6980070496e+02    7.2777397156e+01
    1.6989967346e+02    7.2848999023e+01
    1.7000035095e+02    7.2922599792e+01
    1.7010105896e+02    7.3015899658e+01
    1.7019952393e+02    7.3106597900e+01
    1.7030058289e+02    7.3198707581e+01
    1.7040028381e+02    7.3290702820e+01
    1.7049955750e+02    7.3381195068e+01
    1.7059980774e+02    7.3471794128e+01
    1.7070106506e+02    7.3564399719e+01
    1.7080041504e+02    7.3653900146e+01
    1.7089991760e+02    7.3743904114e+01
    1.7100047302e+02    7.3833808899e+01
    1.7110046387e+02    7.3923500061e+01
    1.7119970703e+02    7.4012199402e+01
    1.7130049133e+02    7.4101905823e+01
    1.7140101624e+02    7.4191802979e+01
    1.7149992371e+02    7.4279205322e+01
    1.7160052490e+02    7.4367393494e+01
    1.7170057678e+02    7.4456298828e+01
    1.7180087280e+02    7.4543510437e+01
    1.7190121460e+02    7.4631294250e+01
    1.7200007629e+02    7.4717399597e+01
    1.7210067749e+02    7.4805297852e+01
    1.7219967651e+02    7.4890602112e+01
    1.7230105591e+02    7.4978492737e+01
    1.7240118408e+02    7.5064300537e+01
    1.7250021362e+02    7.5149703979e+01
    1.7260110474e+02    7.5235595703e+01
    1.7270118713e+02    7.5320602417e+01
    1.7280120850e+02    7.5405403137e+01
    1.7289999390e+02    7.5489105225e+01
    1.7300036621e+02    7.5573791504e+01
    1.7310069275e+02    7.5658294678e+01
    1.7320106506e+02    7.5742301941e+01
    1.7330119324e+02    7.5826499939e+01
    1.7339979553e+02    7.5908096313e+01
    1.7350003052e+02    7.5991401672e+01
    1.7360105896e+02    7.6074096680e+01
    1.7370126343e+02    7.6156799316e+01
    1.7379988098e+02    7.6237098694e+01
    1.7390127563e+02    7.6320205688e+01
    1.7400016785e+02    7.6400299072e+01
    1.7410078430e+02    7.6482208252e+01
    1.7419984436e+02    7.6561492920e+01
    1.7430050659e+02    7.6642807007e+01
    1.7440010071e+02    7.6722595215e+01
    1.7450057983e+02    7.6802497864e+01
    1.7460093689e+02    7.6882301331e+01
    1.7470027161e+02    7.6960693359e+01
    1.7480104065e+02    7.7040206909e+01
    1.7490008545e+02    7.7118499756e+01
    1.7500077820e+02    7.7197494507e+01
    1.7510008240e+02    7.7274795532e+01
    1.7520135498e+02    7.7353195190e+01
    1.7530017090e+02    7.7429801941e+01
    1.7540055847e+02    7.7507202148e+01
    1.7550108337e+02    7.7585098267e+01
    1.7560006714e+02    7.7660499573e+01
    1.7570068359e+02    7.7737594604e+01
    1.7580131531e+02    7.7813301086e+01
    1.7590080261e+02    7.7888999939e+01
    1.7600148010e+02    7.7965194702e+01
    1.7610046387e+02    7.8039199829e+01
    1.7620103455e+02    7.8114997864e+01
    1.7630137634e+02    7.8190101624e+01
    1.7640054321e+02    7.8263893127e+01
    1.7650120544e+02    7.8337799072e+01
    1.7660021973e+02    7.8411491394e+01
    1.7670088196e+02    7.8485801697e+01
    1.7680137634e+02    7.8559204102e+01
    1.7690008545e+02    7.8630607605e+01
    1.7700097656e+02    7.8704704285e+01
    1.7710043335e+02    7.8776100159e+01
    1.7720098877e+02    7.8849296570e+01
    1.7730128479e+02    7.8921600342e+01
    1.7740147400e+02    7.8992797852e+01
    1.7750160217e+02    7.9064895630e+01
    1.7760011292e+02    7.9134597778e+01
    1.7770024109e+02    7.9204994202e+01
    1.7780085754e+02    7.9276100159e+01
    1.7790127563e+02    7.9346305847e+01
    1.7800007629e+02    7.9415290833e+01
    1.7810043335e+02    7.9485000610e+01
    1.7819999695e+02    7.9554000854e+01
    1.7830093384e+02    7.9623092651e+01
    1.7840130615e+02    7.9691894531e+01
    1.7850007629e+02    7.9759399414e+01
    1.7860058594e+02    7.9827209473e+01
    1.7870144653e+02    7.9895103455e+01
    1.7880006409e+02    7.9962005615e+01
    1.7890025330e+02    8.0028503418e+01
    1.7900039673e+02    8.0095901489e+01
    1.7910046387e+02    8.0162002563e+01
    1.7920065308e+02    8.0227592468e+01
    1.7930134583e+02    8.0293907166e+01
    1.7940043640e+02    8.0359001160e+01
    1.7950114441e+02    8.0424598694e+01
    1.7960130310e+02    8.0489006042e+01
    1.7970114136e+02    8.0553604126e+01
    1.7980035400e+02    8.0617195129e+01
    1.7990080261e+02    8.0681198120e+01
    1.8000129700e+02    8.0744804382e+01
    1.8010101318e+02    8.0825599670e+01
    1.8020059204e+02    8.0905403137e+01
    1.8030053711e+02    8.0986297607e+01
    1.8040177917e+02    8.1067291260e+01
    1.8050073242e+02    8.1145492554e+01
    1.8060098267e+02    8.1224899292e+01
    1.8070153809e+02    8.1304504395e+01
    1.8080041504e+02    8.1383102417e+01
    1.8090086365e+02    8.1461402893e+01
    1.8100143433e+02    8.1540191650e+01
    1.8110075378e+02    8.1618194580e+01
    1.8120121765e+02    8.1696701050e+01
    1.8130143738e+02    8.1774505615e+01
    1.8140159607e+02    8.1852005005e+01
    1.8150175476e+02    8.1929306030e+01
    1.8160064697e+02    8.2004898071e+01
    1.8170027161e+02    8.2080696106e+01
    1.8180053711e+02    8.2157096863e+01
    1.8190083313e+02    8.2234107971e+01
    1.8200117493e+02    8.2309806824e+01
    1.8210145569e+02    8.2385292053e+01
    1.8220170593e+02    8.2460693359e+01
    1.8230059814e+02    8.2535507202e+01
    1.8240180969e+02    8.2611297607e+01
    1.8250039673e+02    8.2684204102e+01
    1.8260043335e+02    8.2758789062e+01
    1.8270037842e+02    8.2832405090e+01
    1.8280059814e+02    8.2906105042e+01
    1.8290039062e+02    8.2979393005e+01
    1.8300172424e+02    8.3053405762e+01
    1.8310171509e+02    8.3126701355e+01
    1.8320158386e+02    8.3199096680e+01
    1.8330119324e+02    8.3270599365e+01
    1.8340075684e+02    8.3341903687e+01
    1.8350190735e+02    8.3414993286e+01
    1.8360156250e+02    8.3484992981e+01
    1.8370103455e+02    8.3555999756e+01
    1.8380128479e+02    8.3627006531e+01
    1.8390066528e+02    8.3695999146e+01
    1.8400117493e+02    8.3766990662e+01
    1.8410192871e+02    8.3837997437e+01
    1.8420103455e+02    8.3906005859e+01
    1.8430105591e+02    8.3974998474e+01
    1.8440144348e+02    8.4045005798e+01
    1.8450190735e+02    8.4113006592e+01
    1.8460188293e+02    8.4180992126e+01
    1.8470184326e+02    8.4249000549e+01
    1.8480177307e+02    8.4315994263e+01
    1.8490177917e+02    8.4383995056e+01
    1.8500079346e+02    8.4449996948e+01
    1.8510118103e+02    8.4516990662e+01
    1.8520118713e+02    8.4583000183e+01
    1.8530137634e+02    8.4649002075e+01
    1.8540170288e+02    8.4715995789e+01
    1.8550166321e+02    8.4781005859e+01
    1.8560166931e+02    8.4846008301e+01
    1.8570152283e+02    8.4911003113e+01
    1.8580065918e+02    8.4974998474e+01
    1.8590188599e+02    8.5038993835e+01
    1.8600158691e+02    8.5103004456e+01
    1.8610093689e+02    8.5167007446e+01
    1.8620077515e+02    8.5231002808e+01
    1.8630198669e+02    8.5295005798e+01
    1.8640144348e+02    8.5356994629e+01
    1.8650210571e+02    8.5419998169e+01
    1.8660079956e+02    8.5482002258e+01
    1.8670104980e+02    8.5544006348e+01
    1.8680114746e+02    8.5605003357e+01
    1.8690106201e+02    8.5666999817e+01
    1.8700085449e+02    8.5728996277e+01
    1.8710122681e+02    8.5789993286e+01
    1.8720141602e+02    8.5849998474e+01
    1.8730111694e+02    8.5911003113e+01
    1.8740075684e+02    8.5970993042e+01
    1.8750199890e+02    8.6030998230e+01
    1.8760191345e+02    8.6090995789e+01
    1.8770089722e+02    8.6149002075e+01
    1.8780128479e+02    8.6208007812e+01
    1.8790164185e+02    8.6267997742e+01
    1.8800190735e+02    8.6325996399e+01
    1.8810209656e+02    8.6384002686e+01
    1.8820188904e+02    8.6441993713e+01
    1.8830163574e+02    8.6499000549e+01
    1.8840135193e+02    8.6556007385e+01
    1.8850146484e+02    8.6613006592e+01
    1.8860133362e+02    8.6668998718e+01
    1.8870106506e+02    8.6725990295e+01
    1.8880215454e+02    8.6781990051e+01
    1.8890155029e+02    8.6837997437e+01
    1.8900082397e+02    8.6892005920e+01
    1.8910166931e+02    8.6948005676e+01
    1.8920079041e+02    8.7002998352e+01
    1.8930154419e+02    8.7057998657e+01
    1.8940090942e+02    8.7110992432e+01
    1.8950192261e+02    8.7166000366e+01
    1.8960197449e+02    8.7219993591e+01
    1.8970231628e+02    8.7274002075e+01
    1.8980235291e+02    8.7325996399e+01
    1.8990199280e+02    8.7380004883e+01
    1.9000164795e+02    8.7430992126e+01
    1.9010229492e+02    8.7499000549e+01
    1.9020149231e+02    8.7564994812e+01
    1.9030114746e+02    8.7631996155e+01
    1.9040095520e+02    8.7698005676e+01
    1.9050236511e+02    8.7764999390e+01
    1.9060209656e+02    8.7830001831e+01
    1.9070182800e+02    8.7896003723e+01
    1.9080157471e+02    8.7960990906e+01
    1.9090141296e+02    8.8027000427e+01
    1.9100149536e+02    8.8090995789e+01
    1.9110159302e+02    8.8156997681e+01
    1.9120138550e+02    8.8219993591e+01
    1.9130099487e+02    8.8283996582e+01
    1.9140217590e+02    8.8349006653e+01
    1.9150137329e+02    8.8412010193e+01
    1.9160223389e+02    8.8476005554e+01
    1.9170120239e+02    8.8537994385e+01
    1.9180186462e+02    8.8602005005e+01
    1.9190155029e+02    8.8664993286e+01
    1.9200210571e+02    8.8726997375e+01
    1.9210203552e+02    8.8789001465e+01
    1.9220196533e+02    8.8850997925e+01
    1.9230184937e+02    8.8913002014e+01
    1.9240197754e+02    8.8973999023e+01
    1.9250201416e+02    8.9035995483e+01
    1.9260168457e+02    8.9097000122e+01
    1.9270121765e+02    8.9157005310e+01
    1.9280232239e+02    8.9218002319e+01
    1.9290171814e+02    8.9276992798e+01
    1.9300105286e+02    8.9337005615e+01
    1.9310189819e+02    8.9397003174e+01
    1.9320108032e+02    8.9456001282e+01
    1.9330180359e+02    8.9515007019e+01
    1.9340252686e+02    8.9573997498e+01
    1.9350158691e+02    8.9631996155e+01
    1.9360174561e+02    8.9690002441e+01
    1.9370143127e+02    8.9747001648e+01
    1.9380213928e+02    8.9805999756e+01
    1.9390182495e+02    8.9863006592e+01
    1.9400187683e+02    8.9918998718e+01
    1.9410223389e+02    8.9975997925e+01
    1.9420115662e+02    9.0031997681e+01
    1.9430235291e+02    9.0089004517e+01
    1.9440165710e+02    9.0143997192e+01
[...]
    2.5130548096e+02    1.1363800049e+02
    2.5140556335e+02    1.1364498901e+02
    2.5150500488e+02    1.1365200806e+02
    2.5160597229e+02    1.1365798950e+02
    2.5170532227e+02    1.1366500854e+02
    2.5180613708e+02    1.1366998291e+02
    2.5190553284e+02    1.1367602539e+02
    2.5200570679e+02    1.1367999268e+02
    2.5210476685e+02    1.1368499756e+02
    2.5220555115e+02    1.1368997192e+02
    2.5230470276e+02    1.1369400024e+02
    2.5240509033e+02    1.1369799805e+02
    2.5250524902e+02    1.1370101929e+02
    2.5260606384e+02    1.1370498657e+02
    2.5270576477e+02    1.1370700073e+02
    2.5280520630e+02    1.1370901489e+02
    2.5290475464e+02    1.1371200562e+02
    2.5300595093e+02    1.1371398926e+02
    2.5310609436e+02    1.1371499634e+02
    2.5320559692e+02    1.1371499634e+02
    2.5330505371e+02    1.1371600342e+02
    2.5340594482e+02    1.1371697998e+02
    2.5350544739e+02    1.1371600342e+02
    2.5360604858e+02    1.1371600342e+02
    2.5370535278e+02    1.1371499634e+02
    2.5380526733e+02    1.1371499634e+02
    2.5390547180e+02    1.1371301270e+02
    2.5400564575e+02    1.1371200562e+02
    2.5410580444e+02    1.1371002197e+02
    2.5420594788e+02    1.1370700073e+02
    2.5430604553e+02    1.1370599365e+02
    2.5440631104e+02    1.1370300293e+02
    2.5450515747e+02    1.1369998169e+02
    2.5460601807e+02    1.1369702148e+02
    2.5470509338e+02    1.1369400024e+02
    2.5480586243e+02    1.1369000244e+02
    2.5490501404e+02    1.1368597412e+02
    2.5500595093e+02    1.1368099976e+02
    2.5510525513e+02    1.1367700195e+02
    2.5520550537e+02    1.1367199707e+02
    2.5530529785e+02    1.1366598511e+02
    2.5540565491e+02    1.1366101074e+02
    2.5550486755e+02    1.1365597534e+02
    2.5560517883e+02    1.1364898682e+02
    2.5570542908e+02    1.1364199829e+02
    2.5580558777e+02    1.1363497925e+02
    2.5590563965e+02    1.1362799072e+02
    2.5600558472e+02    1.1362200928e+02
    2.5610534668e+02    1.1361398315e+02
    2.5620498657e+02    1.1360601807e+02
    2.5630621338e+02    1.1359802246e+02
    2.5640496826e+02    1.1358901978e+02
    2.5650531006e+02    1.1357998657e+02
    2.5660574341e+02    1.1357199097e+02
    2.5670626831e+02    1.1356201172e+02
    2.5680499268e+02    1.1355300903e+02
    2.5690524292e+02    1.1354299927e+02
    2.5700595093e+02    1.1353298950e+02
    2.5710598755e+02    1.1352301025e+02
    2.5720565796e+02    1.1351199341e+02
    2.5730535889e+02    1.1350100708e+02
    2.5740637207e+02    1.1348901367e+02
    2.5750570679e+02    1.1347799683e+02
    2.5760626221e+02    1.1346701050e+02
    2.5770608521e+02    1.1345401001e+02
    2.5780584717e+02    1.1344198608e+02
    2.5790557861e+02    1.1342898560e+02
    2.5800524902e+02    1.1341702271e+02
    2.5810641479e+02    1.1340301514e+02
    2.5820599365e+02    1.1338998413e+02
    2.5830551147e+02    1.1337600708e+02
    2.5840499878e+02    1.1336099243e+02
    2.5850607300e+02    1.1334597778e+02
    2.5860537720e+02    1.1333200073e+02
    2.5870535278e+02    1.1331701660e+02
    2.5880538940e+02    1.1330200195e+02
    2.5890646362e+02    1.1328601074e+02
    2.5900610352e+02    1.1326998901e+02
    2.5910583496e+02    1.1325399780e+02
    2.5920565796e+02    1.1323800659e+02
    2.5930551147e+02    1.1322100830e+02
    2.5940530396e+02    1.1320300293e+02
    2.5950650024e+02    1.1318600464e+02
    2.5960607910e+02    1.1316900635e+02
    2.5970584106e+02    1.1315197754e+02
    2.5980657959e+02    1.1313299561e+02
    2.5990573120e+02    1.1311502075e+02
    2.6000640869e+02    1.1309600830e+02
    2.6010549927e+02    1.1307800293e+02
    2.6020614624e+02    1.1305999756e+02
    2.6030517578e+02    1.1304101562e+02
    2.6040570068e+02    1.1302301025e+02
    2.6050610352e+02    1.1300402832e+02
    2.6060641479e+02    1.1298498535e+02
    2.6070513916e+02    1.1296600342e+02
    2.6080636597e+02    1.1294601440e+02
    2.6090652466e+02    1.1292599487e+02
    2.6100588989e+02    1.1290701294e+02
    2.6110534668e+02    1.1288598633e+02
    2.6120532227e+02    1.1286599731e+02
    2.6130514526e+02    1.1284500122e+02
    2.6140655518e+02    1.1282400513e+02
    2.6150625610e+02    1.1280401611e+02
    2.6160571289e+02    1.1278198242e+02
    2.6170529175e+02    1.1276000977e+02
    2.6180612183e+02    1.1273901367e+02
    2.6190530396e+02    1.1271701050e+02
    2.6200595093e+02    1.1269500732e+02
    2.6210650635e+02    1.1267300415e+02
    2.6220538330e+02    1.1264999390e+02
    2.6230569458e+02    1.1262698364e+02
    2.6240591431e+02    1.1260400391e+02
    2.6250598145e+02    1.1258200073e+02
    2.6260543823e+02    1.1255899048e+02
    2.6270596313e+02    1.1253497314e+02
    2.6280545044e+02    1.1251202393e+02
    2.6290551758e+02    1.1248797607e+02
    2.6300650024e+02    1.1246301270e+02
    2.6310595703e+02    1.1243899536e+02
    2.6320639038e+02    1.1241497803e+02
    2.6330584717e+02    1.1239102173e+02
    2.6340530396e+02    1.1236700439e+02
    2.6350607300e+02    1.1234100342e+02
    2.6360549927e+02    1.1231600952e+02
    2.6370584106e+02    1.1229098511e+02
    2.6380624390e+02    1.1226501465e+02
    2.6390667725e+02    1.1223999023e+02
    2.6400558472e+02    1.1221401978e+02
    2.6410604858e+02    1.1218798828e+02
    2.6420651245e+02    1.1216201782e+02
    2.6430538940e+02    1.1213598633e+02
    2.6440585327e+02    1.1210900879e+02
    2.6450631714e+02    1.1208200073e+02
    2.6460665894e+02    1.1205599976e+02
    2.6470547485e+02    1.1202801514e+02
    2.6480563354e+02    1.1200100708e+02
    2.6490655518e+02    1.1197399902e+02
    2.6500588989e+02    1.1194699097e+02
    2.6510568237e+02    1.1191900635e+02
    2.6520584106e+02    1.1189099121e+02
    2.6530612183e+02    1.1186398315e+02
    2.6540646362e+02    1.1183499146e+02
    2.6550677490e+02    1.1180700684e+02
    2.6560693359e+02    1.1177899170e+02
    2.6570556641e+02    1.1175100708e+02
    2.6580688477e+02    1.1172198486e+02
    2.6590670776e+02    1.1169299316e+02
    2.6600659180e+02    1.1166400146e+02
    2.6610644531e+02    1.1163500977e+02
    2.6620629883e+02    1.1160598755e+02
    2.6630606079e+02    1.1157699585e+02
    2.6640576172e+02    1.1154800415e+02
    2.6650622559e+02    1.1151800537e+02
    2.6660610962e+02    1.1148898315e+02
    2.6670596313e+02    1.1145999146e+02
    2.6680572510e+02    1.1142901611e+02
    2.6690557861e+02    1.1140002441e+02
    2.6700570679e+02    1.1136999512e+02
    2.6710577393e+02    1.1133999634e+02
    2.6720642090e+02    1.1130999756e+02
    2.6730694580e+02    1.1127899170e+02
    2.6740579224e+02    1.1124902344e+02
    2.6750619507e+02    1.1121798706e+02
    2.6760653687e+02    1.1118701172e+02
    2.6770666504e+02    1.1115600586e+02
    2.6780706787e+02    1.1112500000e+02
    2.6790673828e+02    1.1109500122e+02
    2.6800640869e+02    1.1106298828e+02
    2.6810607910e+02    1.1103198242e+02
    2.6820571899e+02    1.1100097656e+02
    2.6830685425e+02    1.1096899414e+02
    2.6840625000e+02    1.1093801880e+02
    2.6850714111e+02    1.1090499878e+02
    2.6860632324e+02    1.1087399292e+02
    2.6870703125e+02    1.1084201050e+02
    2.6880630493e+02    1.1080999756e+02
    2.6890652466e+02    1.1077801514e+02
    2.6900588989e+02    1.1074600220e+02
    2.6910681152e+02    1.1071298218e+02
    2.6920669556e+02    1.1068200684e+02
    2.6930697632e+02    1.1064901733e+02
    2.6940560913e+02    1.1061700439e+02
    2.6950576782e+02    1.1058398438e+02
    2.6960568237e+02    1.1055197144e+02
    2.6970681763e+02    1.1051898193e+02
    2.6980648804e+02    1.1048599243e+02
    2.6990628052e+02    1.1045297241e+02
    2.7000576782e+02    1.1042102051e+02
    2.7010620117e+02    1.1038601685e+02
    2.7020629883e+02    1.1035101318e+02
    2.7030630493e+02    1.1031600952e+02
    2.7040628052e+02    1.1028100586e+02
    2.7050619507e+02    1.1024697876e+02
    2.7060601807e+02    1.1021200562e+02
    2.7070578003e+02    1.1017700195e+02
    2.7080706787e+02    1.1014102173e+02
    2.7090676880e+02    1.1010598755e+02
    2.7100698853e+02    1.1007098389e+02
    2.7110592651e+02    1.1003598022e+02
    2.7120596313e+02    1.1000000000e+02
    2.7130661011e+02    1.0996499634e+02
    2.7140722656e+02    1.0992901611e+02
    2.7150613403e+02    1.0989401245e+02
    2.7160626221e+02    1.0985900879e+02
    2.7170651245e+02    1.0982299805e+02
    2.7180718994e+02    1.0978799438e+02
    2.7190618896e+02    1.0975201416e+02
    2.7200680542e+02    1.0971600342e+02
    2.7210690308e+02    1.0967999268e+02
    2.7220623779e+02    1.0964498901e+02
    2.7230722046e+02    1.0960900879e+02
    2.7240655518e+02    1.0957400513e+02
    2.7250738525e+02    1.0953799438e+02
    2.7260650635e+02    1.0950198364e+02
    2.7270712280e+02    1.0946499634e+02
    2.7280599976e+02    1.0943099976e+02
    2.7290640259e+02    1.0939401245e+02
    2.7300668335e+02    1.0935800171e+02
    2.7310690308e+02    1.0932199097e+02
    2.7320675659e+02    1.0928598022e+02
    2.7330718994e+02    1.0925000000e+02
    2.7340585327e+02    1.0921398926e+02
    2.7350604248e+02    1.0917700195e+02
    2.7360620117e+02    1.0914199829e+02
    2.7370629883e+02    1.0910501099e+02
    2.7380636597e+02    1.0906799316e+02
    2.7390695190e+02    1.0903201294e+02
    2.7400598145e+02    1.0899499512e+02
    2.7410662842e+02    1.0895800781e+02
    2.7420721436e+02    1.0892098999e+02
    2.7430615234e+02    1.0888497925e+02
    2.7440667725e+02    1.0884799194e+02
    2.7450717163e+02    1.0881100464e+02
    2.7460595703e+02    1.0877499390e+02
    2.7470620728e+02    1.0873699951e+02
    2.7480636597e+02    1.0869998169e+02
    2.7490643311e+02    1.0866302490e+02
    2.7500640869e+02    1.0862600708e+02
    2.7510632324e+02    1.0858798218e+02
    2.7520620728e+02    1.0855200195e+02
    2.7530734253e+02    1.0851400757e+02
    2.7540643311e+02    1.0847601318e+02
    2.7550708008e+02    1.0843899536e+02
    2.7560610962e+02    1.0840197754e+02
    2.7570645142e+02    1.0836398315e+02
    2.7580645752e+02    1.0832601929e+02
    2.7590649414e+02    1.0828900146e+02
    2.7600671387e+02    1.0825100708e+02
    2.7610736084e+02    1.0821301270e+02
    2.7620748901e+02    1.0817501831e+02
    2.7630679321e+02    1.0813800049e+02
    2.7640612793e+02    1.0809997559e+02
    2.7650708008e+02    1.0806201172e+02
    2.7660644531e+02    1.0802401733e+02
    2.7670742798e+02    1.0798498535e+02
    2.7680679321e+02    1.0794799805e+02
    2.7690615845e+02    1.0790997314e+02
    2.7700708008e+02    1.0787200928e+02
    2.7710641479e+02    1.0783401489e+02
    2.7720739746e+02    1.0779598999e+02
    2.7730606079e+02    1.0775799561e+02
    2.7740673828e+02    1.0771899414e+02
    2.7750634766e+02    1.0768200684e+02
    2.7760760498e+02    1.0764300537e+02
    2.7770727539e+02    1.0760498047e+02
    2.7780697632e+02    1.0756701660e+02
    2.7790664673e+02    1.0752899170e+02
    2.7800753784e+02    1.0749099731e+02
    2.7810671997e+02    1.0745300293e+02
    2.7820748901e+02    1.0741299438e+02
    2.7830654907e+02    1.0737597656e+02
    2.7840679932e+02    1.0733700562e+02
    2.7850698853e+02    1.0729797363e+02
    2.7860711670e+02    1.0726000977e+02
    2.7870718384e+02    1.0722201538e+02
    2.7880718994e+02    1.0718301392e+02
    2.7890713501e+02    1.0714398193e+02
    2.7900692749e+02    1.0710501099e+02
    2.7910662842e+02    1.0706698608e+02
    2.7920626831e+02    1.0702902222e+02
    2.7930740356e+02    1.0698999023e+02
    2.7940686035e+02    1.0695101929e+02
    2.7950668335e+02    1.0691198730e+02
    2.7960632324e+02    1.0687399292e+02
    2.7970764160e+02    1.0683401489e+02
    2.7980725098e+02    1.0679498291e+02
    2.7990673828e+02    1.0675601196e+02
    2.8000778198e+02    1.0671600342e+02
    2.8010717773e+02    1.0667300415e+02
    2.8020651245e+02    1.0663000488e+02
    2.8030755615e+02    1.0658700562e+02
    2.8040768433e+02    1.0654400635e+02
    2.8050738525e+02    1.0650000000e+02
    2.8060699463e+02    1.0645700073e+02
    2.8070639038e+02    1.0641400146e+02
    2.8080725098e+02    1.0636999512e+02
    2.8090640259e+02    1.0632598877e+02
    2.8100704956e+02    1.0628302002e+02
    2.8110763550e+02    1.0623800659e+02
    2.8120654297e+02    1.0619500732e+02
    2.8130697632e+02    1.0614999390e+02
    2.8140783691e+02    1.0610498047e+02
    2.8150747681e+02    1.0606100464e+02
    2.8160708618e+02    1.0601599121e+02
    2.8170669556e+02    1.0597299194e+02
    2.8180633545e+02    1.0592800903e+02
    2.8190771484e+02    1.0588201904e+02
    2.8200744629e+02    1.0583801270e+02
    2.8210717773e+02    1.0579199219e+02
    2.8220690918e+02    1.0574798584e+02
    2.8230654907e+02    1.0570300293e+02
    2.8240698242e+02    1.0565600586e+02
    2.8250729370e+02    1.0561199951e+02
    2.8260760498e+02    1.0556597900e+02
    2.8270794678e+02    1.0552099609e+02
    2.8280661011e+02    1.0547601318e+02
    2.8290682983e+02    1.0542999268e+02
    2.8300695801e+02    1.0538400269e+02
    2.8310702515e+02    1.0533898926e+02
    2.8320706177e+02    1.0529299927e+02
    2.8330722046e+02    1.0524700928e+02
    2.8340652466e+02    1.0520101929e+02
    2.8350738525e+02    1.0515499878e+02
    2.8360653687e+02    1.0511001587e+02
    2.8370748901e+02    1.0506399536e+02
    2.8380703735e+02    1.0501797485e+02
    2.8390747070e+02    1.0497198486e+02
    2.8400787354e+02    1.0492599487e+02
    2.8410653687e+02    1.0488000488e+02
    2.8420681763e+02    1.0483401489e+02
    2.8430703735e+02    1.0478799438e+02
    2.8440795898e+02    1.0474200439e+02
    2.8450729370e+02    1.0469601440e+02
    2.8460659790e+02    1.0464999390e+02
    2.8470745850e+02    1.0460400391e+02
    2.8480654907e+02    1.0455700684e+02
    2.8490716553e+02    1.0451098633e+02
    2.8500765991e+02    1.0446398926e+02
    2.8510803223e+02    1.0441799927e+02
    2.8520660400e+02    1.0437200928e+02
    2.8530667114e+02    1.0432501221e+02
    2.8540817261e+02    1.0427801514e+02
    2.8550711060e+02    1.0423202515e+02
    2.8560745239e+02    1.0418499756e+02
    2.8570748901e+02    1.0413800049e+02
    2.8580804443e+02    1.0409100342e+02
    2.8590698242e+02    1.0404400635e+02
    2.8600778198e+02    1.0399697876e+02
    2.8610791016e+02    1.0394998169e+02
    2.8620800781e+02    1.0390197754e+02
    2.8630804443e+02    1.0385498047e+02
    2.8640802002e+02    1.0380697632e+02
    2.8650738525e+02    1.0375900269e+02
    2.8660745239e+02    1.0371200562e+02
    2.8670742798e+02    1.0366400146e+02
    2.8680737305e+02    1.0361599731e+02
    2.8690719604e+02    1.0356799316e+02
    2.8700689697e+02    1.0351901245e+02
    2.8710812378e+02    1.0347000122e+02
    2.8720764160e+02    1.0342102051e+02
    2.8730712891e+02    1.0337301636e+02
    2.8740823364e+02    1.0332302856e+02
    2.8750814819e+02    1.0327398682e+02
    2.8760690308e+02    1.0322601318e+02
    2.8770733643e+02    1.0317700195e+02
    2.8780789185e+02    1.0312698364e+02
    2.8790676880e+02    1.0307699585e+02
    2.8800814819e+02    1.0302700806e+02
    2.8810723877e+02    1.0297799683e+02
    2.8820794678e+02    1.0292800903e+02
    2.8830789185e+02    1.0287796021e+02
    2.8840673828e+02    1.0282901001e+02
    2.8850827026e+02    1.0277798462e+02
    2.8860733032e+02    1.0272802734e+02
    2.8870803833e+02    1.0267697144e+02
    2.8880712891e+02    1.0262701416e+02
    2.8890786743e+02    1.0257601929e+02
    2.8900695801e+02    1.0252600098e+02
    2.8910763550e+02    1.0247500610e+02
    2.8920828247e+02    1.0242398071e+02
    2.8930725098e+02    1.0237295532e+02
    2.8940780640e+02    1.0232202148e+02
    2.8950836182e+02    1.0227099609e+02
    2.8960733032e+02    1.0222003174e+02
    2.8970837402e+02    1.0216900635e+02
    2.8980752563e+02    1.0211700439e+02
    2.8990820312e+02    1.0206600952e+02
    2.9000750732e+02    1.0201397705e+02
    2.9010842896e+02    1.0195797729e+02
    2.9020767212e+02    1.0190197754e+02
    2.9030685425e+02    1.0184600830e+02
    2.9040765381e+02    1.0178903198e+02
    2.9050735474e+02    1.0173297119e+02
    2.9060848999e+02    1.0167498779e+02
    2.9070785522e+02    1.0161798096e+02
    2.9080706787e+02    1.0156198120e+02
    2.9090774536e+02    1.0150402832e+02
    2.9100830078e+02    1.0144598389e+02
    2.9110702515e+02    1.0138998413e+02
    2.9120724487e+02    1.0133200073e+02
    2.9130725098e+02    1.0127499390e+02
    2.9140713501e+02    1.0121801758e+02
    2.9150851440e+02    1.0115896606e+02
    2.9160806274e+02    1.0110098267e+02
    2.9170712280e+02    1.0104397583e+02
    2.9180786133e+02    1.0098501587e+02
    2.9190856934e+02    1.0092697144e+02
    2.9200750732e+02    1.0086999512e+02
    2.9210809326e+02    1.0081097412e+02
    2.9220715332e+02    1.0075299072e+02
    2.9230789185e+02    1.0069403076e+02
    2.9240832520e+02    1.0063500977e+02
    2.9250735474e+02    1.0057702637e+02
    2.9260784912e+02    1.0051699829e+02
    2.9270825195e+02    1.0045797729e+02
    2.9280862427e+02    1.0039797974e+02
    2.9290728760e+02    1.0033996582e+02
    2.9300747681e+02    1.0028002930e+02
    2.9310754395e+02    1.0022103882e+02
    2.9320748901e+02    1.0016098022e+02
    2.9330740356e+02    1.0010101318e+02
    2.9340728760e+02    1.0004095459e+02
    2.9350720215e+02    9.9980987549e+01
    2.9360757446e+02    9.9919982910e+01
    2.9370809937e+02    9.9859039307e+01
    2.9380786133e+02    9.9798980713e+01
    2.9390768433e+02    9.9738006592e+01
    2.9400762939e+02    9.9677032471e+01
    2.9410775757e+02    9.9616027832e+01
    2.9420758057e+02    9.9555023193e+01
    2.9430740356e+02    9.9493957520e+01
    2.9440719604e+02    9.9432983398e+01
    2.9450872803e+02    9.9370025635e+01
    2.9460760498e+02    9.9308990479e+01
    2.9470721436e+02    9.9247985840e+01
    2.9480838013e+02    9.9185028076e+01
    2.9490792847e+02    9.9123016357e+01
    2.9500738525e+02    9.9060028076e+01
    2.9510848999e+02    9.8997009277e+01
    2.9520791626e+02    9.8935974121e+01
    2.9530722046e+02    9.8872985840e+01
    2.9540808105e+02    9.8809997559e+01
    2.9550723267e+02    9.8746978760e+01
    2.9560806274e+02    9.8682983398e+01
    2.9570745850e+02    9.8620971680e+01
    2.9580862427e+02    9.8557006836e+01
    2.9590881348e+02    9.8493011475e+01
    2.9600726318e+02    9.8429962158e+01
    2.9610736084e+02    9.8366973877e+01
    2.9620742798e+02    9.8302001953e+01
    2.9630746460e+02    9.8238983154e+01
    2.9640737915e+02    9.8175018311e+01
    2.9650869751e+02    9.8109985352e+01
    2.9660818481e+02    9.8044982910e+01
    2.9670758057e+02    9.7981964111e+01
    2.9680847168e+02    9.7915985107e+01
    2.9690756226e+02    9.7851013184e+01
    2.9700811768e+02    9.7785980225e+01
    2.9710855103e+02    9.7720031738e+01
    2.9720883179e+02    9.7655029297e+01
    2.9730737305e+02    9.7590026855e+01
    2.9740747070e+02    9.7523986816e+01
    2.9750750732e+02    9.7457977295e+01
    2.9760748291e+02    9.7391998291e+01
    2.9770886230e+02    9.7325012207e+01
    2.9780856323e+02    9.7257995605e+01
    2.9790829468e+02    9.7192016602e+01
    2.9800769043e+02    9.7124969482e+01
    2.9810821533e+02    9.7058013916e+01
    2.9820874023e+02    9.6989990234e+01
    2.9830737305e+02    9.6923980713e+01
    2.9840737915e+02    9.6855987549e+01
    2.9850802612e+02    9.6789001465e+01
    2.9860736084e+02    9.6721008301e+01
    2.9870864868e+02    9.6652008057e+01
    2.9880749512e+02    9.6584960938e+01
    2.9890789795e+02    9.6516998291e+01
    2.9900830078e+02    9.6447021484e+01
    2.9910870361e+02    9.6378997803e+01
    2.9920745850e+02    9.6309967041e+01
    2.9930783081e+02    9.6241027832e+01
    2.9940823364e+02    9.6171020508e+01
    2.9950863647e+02    9.6101989746e+01
    2.9960751343e+02    9.6034027100e+01
    2.9970837402e+02    9.5963043213e+01
    2.9980886841e+02    9.5893005371e+01
    2.9990774536e+02    9.5822998047e+01
endcurve
