Curveplot
LS-DYNA keyword deck by LS-PrePost
Abscissa
Ordinate
XY data
CHOP_EAMZ_mo-1 #pts=3000
* Minval=    -7.5938697815e+01 at time=       259.2056579590
* Maxval=     1.4469900407e-06 at time=         2.3995113373
    0.0000000000e+00    0.0000000000e+00
    9.9464751780e-02    1.0887900195e-35
    1.9892950356e-01    1.4120700481e-28
    2.9839426279e-01    1.5322400034e-22
    3.9954483509e-01    7.7678199337e-16
    4.9942851067e-01    9.8026498030e-10
    5.9996843338e-01    2.6502799955e-08
    6.9903308153e-01    8.1842301825e-08
    7.9898971319e-01    1.1627700047e-07
    8.9870619774e-01    1.5338500248e-07
    9.9832719564e-01    2.0641300580e-07
    1.0987064838e+00    2.5415300797e-07
    1.1984105110e+00    2.9212401387e-07
    1.2990113497e+00    3.2802699934e-07
    1.3987237215e+00    3.9292100951e-07
    1.4983510971e+00    4.7058500741e-07
    1.5998450518e+00    5.2304500286e-07
    1.6997693777e+00    4.7748000043e-07
    1.7992914915e+00    3.3801700283e-07
    1.8987305164e+00    1.8890200693e-07
    1.9995558262e+00    1.8545499358e-07
    2.0989930630e+00    4.1887099655e-07
    2.1988964081e+00    8.6191499804e-07
    2.2983624935e+00    1.2994900089e-06
    2.3995113373e+00    1.4469900407e-06
    2.4991292953e+00    1.1010099570e-06
    2.5988953114e+00    1.1540399925e-07
    2.6990334988e+00   -1.5797199922e-06
    2.7999768257e+00   -3.9739898057e-06
    2.8986215591e+00   -6.9071397775e-06
    2.9999651909e+00   -1.0485099665e-05
    3.0982911587e+00   -1.4532200112e-05
    3.1994810104e+00   -1.9380100639e-05
    3.2985146046e+00   -2.4873899747e-05
    3.3995308876e+00   -3.1334198866e-05
    3.4992942810e+00   -3.8569498429e-05
    3.5992443562e+00   -4.6607201512e-05
    3.6997017860e+00   -5.5384898587e-05
    3.7997844219e+00   -6.4674597525e-05
    3.8996450901e+00   -7.4342999142e-05
    3.9991934299e+00   -8.4250197688e-05
    4.0987963676e+00   -9.4354501925e-05
    4.1988434792e+00   -1.0477899923e-04
    4.2990441322e+00   -1.1567700130e-04
    4.3993158340e+00   -1.2722899555e-04
    4.4997820854e+00   -1.3959400530e-04
    4.5993552208e+00   -1.5260500368e-04
    4.6989359856e+00   -1.6624599812e-04
    4.7984833717e+00   -1.8027800252e-04
    4.8998222351e+00   -1.9472200074e-04
    4.9990921021e+00   -2.0891299937e-04
    5.0988354683e+00   -2.2323800658e-04
    5.1993360519e+00   -2.3782899370e-04
    5.2995219231e+00   -2.5272701168e-04
    5.3999071121e+00   -2.6825000532e-04
    5.4998264313e+00   -2.8446101351e-04
    5.5985350609e+00   -3.0129100196e-04
    5.6994929314e+00   -3.1928799581e-04
    5.7988901138e+00   -3.3755399636e-04
    5.8996505737e+00   -3.5637200926e-04
    5.9994015694e+00   -3.7509101094e-04
    6.0993700027e+00   -3.9382401155e-04
    6.1991348267e+00   -4.1261099977e-04
    6.2990393639e+00   -4.3181100045e-04
    6.3993287086e+00   -4.5182701433e-04
    6.4993214607e+00   -4.7277798876e-04
    6.5992870331e+00   -4.9475900596e-04
    6.6991810799e+00   -5.1766901743e-04
    6.7992568016e+00   -5.4138997803e-04
    6.8996944427e+00   -5.6575197959e-04
    6.9985542297e+00   -5.9018097818e-04
    7.0983304977e+00   -6.1538297450e-04
    7.1995105743e+00   -6.4172997372e-04
    7.2986025810e+00   -6.6863297252e-04
    7.3996238708e+00   -6.9750798866e-04
    7.4986691475e+00   -7.2744599311e-04
    7.5986065865e+00   -7.5933197513e-04
    7.6987509727e+00   -7.9280498903e-04
    7.7989277840e+00   -8.2755897893e-04
    7.8990669250e+00   -8.6333800573e-04
    7.9994649887e+00   -9.0008601546e-04
    8.0992126465e+00   -9.3748100335e-04
    8.1989650726e+00   -9.7582401941e-04
    8.2987585068e+00   -1.0152099421e-03
    8.3991155624e+00   -1.0559599614e-03
    8.4986467361e+00   -1.0974999750e-03
    8.5988225937e+00   -1.1402999517e-03
    8.6984376907e+00   -1.1835600017e-03
    8.7989006042e+00   -1.2275800109e-03
    8.8993473053e+00   -1.2717100326e-03
    8.9996347427e+00   -1.3157499488e-03
    9.0994272232e+00   -1.3596799690e-03
    9.1991558075e+00   -1.4039600501e-03
    9.2995166779e+00   -1.4493099879e-03
    9.3997058868e+00   -1.4956999803e-03
    9.4993000031e+00   -1.5430699568e-03
    9.5994148254e+00   -1.5920000151e-03
    9.6993246078e+00   -1.6420199536e-03
    9.7999086380e+00   -1.6932899598e-03
    9.8996906281e+00   -1.7447399441e-03
    9.9983539581e+00   -1.7960299738e-03
    1.0098776817e+01   -1.8487599446e-03
    1.0199974060e+01   -1.9027000526e-03
    1.0299807549e+01   -1.9569899887e-03
    1.0399882317e+01   -2.0127301104e-03
    1.0499086380e+01   -2.0693698898e-03
    1.0599964142e+01   -2.1282599773e-03
    1.0698753357e+01   -2.1868599579e-03
    1.0799943924e+01   -2.2474899888e-03
    1.0899674416e+01   -2.3075400386e-03
    1.0999250412e+01   -2.3676799610e-03
    1.1098734856e+01   -2.4280298967e-03
    1.1198295593e+01   -2.4889900815e-03
    1.1298688889e+01   -2.5514499284e-03
    1.1398441315e+01   -2.6148499455e-03
    1.1499759674e+01   -2.6809799019e-03
    1.1599696159e+01   -2.7481298894e-03
    1.1699482918e+01   -2.8170899022e-03
    1.1798439026e+01   -2.8871600516e-03
    1.1899127007e+01   -2.9597999528e-03
    1.1999129295e+01   -3.0329499859e-03
    1.2098378181e+01   -3.1064699870e-03
    1.2199556351e+01   -3.1825900078e-03
    1.2299053192e+01   -3.2591000199e-03
    1.2398647308e+01   -3.3379199449e-03
    1.2498376846e+01   -3.4193899482e-03
    1.2599818230e+01   -3.5048900172e-03
    1.2699797630e+01   -3.5914799664e-03
    1.2798932076e+01   -3.6791400053e-03
    1.2898642540e+01   -3.7686899304e-03
    1.2998365402e+01   -3.8594598882e-03
    1.3099049568e+01   -3.9524300955e-03
    1.3199813843e+01   -4.0471698157e-03
    1.3299559593e+01   -4.1430899873e-03
    1.3399120331e+01   -4.2413901538e-03
    1.3498905182e+01   -4.3426300399e-03
    1.3599467278e+01   -4.4472599402e-03
    1.3699761391e+01   -4.5538400300e-03
    1.3798336029e+01   -4.6602301300e-03
    1.3899527550e+01   -4.7706500627e-03
    1.3999031067e+01   -4.8801200464e-03
    1.4098828316e+01   -4.9907797948e-03
    1.4199101448e+01   -5.1032202318e-03
    1.4298841476e+01   -5.2168499678e-03
    1.4399201393e+01   -5.3334301338e-03
    1.4498683929e+01   -5.4514799267e-03
    1.4598467827e+01   -5.5722799152e-03
    1.4699681282e+01   -5.6968498975e-03
    1.4799235344e+01   -5.8207199909e-03
    1.4898760796e+01   -5.9453598224e-03
    1.4998624802e+01   -6.0709798709e-03
    1.5098646164e+01   -6.1974502169e-03
    1.5198759079e+01   -6.3250600360e-03
    1.5299009323e+01   -6.4543802291e-03
    1.5398717880e+01   -6.5850699320e-03
    1.5498489380e+01   -6.7182597704e-03
    1.5598818779e+01   -6.8547399715e-03
    1.5699117661e+01   -6.9934898056e-03
    1.5799583435e+01   -7.1343099698e-03
    1.5899871826e+01   -7.2762500495e-03
    1.5999478340e+01   -7.4183400720e-03
    1.6099449158e+01   -7.5620701537e-03
    1.6199344635e+01   -7.7073001303e-03
    1.6298311234e+01   -7.8533599153e-03
    1.6399280548e+01   -8.0052400008e-03
    1.6499456406e+01   -8.1592304632e-03
    1.6599891663e+01   -8.3168996498e-03
    1.6699474335e+01   -8.4762498736e-03
    1.6799285889e+01   -8.6386296898e-03
    1.6899448395e+01   -8.8037503883e-03
    1.6999370575e+01   -8.9704003185e-03
    1.7098960876e+01   -9.1385403648e-03
    1.7198543549e+01   -9.3090496957e-03
    1.7298900604e+01   -9.4838095829e-03
    1.7399660110e+01   -9.6627203748e-03
    1.7499763489e+01   -9.8440600559e-03
    1.7599826813e+01   -1.0028799996e-02
    1.7698766708e+01   -1.0214399546e-02
    1.7798652649e+01   -1.0404099710e-02
    1.7899885178e+01   -1.0598399676e-02
    1.7999441147e+01   -1.0791200213e-02
    1.8099081039e+01   -1.0985800065e-02
    1.8198738098e+01   -1.1182500049e-02
    1.8298597336e+01   -1.1381899938e-02
    1.8398353577e+01   -1.1583800428e-02
    1.8499578476e+01   -1.1791300029e-02
    1.8599134445e+01   -1.1997800320e-02
    1.8698827744e+01   -1.2206500396e-02
    1.8798677444e+01   -1.2416799553e-02
    1.8898756027e+01   -1.2628300115e-02
    1.8998662949e+01   -1.2839999981e-02
    1.9098571777e+01   -1.3052299619e-02
    1.9199846268e+01   -1.3268600218e-02
    1.9299310684e+01   -1.3482999988e-02
    1.9399698257e+01   -1.3701899908e-02
    1.9499458313e+01   -1.3922300190e-02
    1.9599454880e+01   -1.4146099798e-02
    1.9698984146e+01   -1.4371500351e-02
    1.9798959732e+01   -1.4600099996e-02
    1.9899436951e+01   -1.4831399545e-02
    1.9999118805e+01   -1.5062299557e-02
    2.0099168777e+01   -1.5295599587e-02
    2.0199909210e+01   -1.5532700345e-02
    2.0299455643e+01   -1.5769500285e-02
    2.0399011612e+01   -1.6009500250e-02
    2.0499410629e+01   -1.6255000606e-02
    2.0599679947e+01   -1.6503399238e-02
    2.0699424744e+01   -1.6753200442e-02
    2.0798988342e+01   -1.7004499212e-02
    2.0898712158e+01   -1.7257800326e-02
    2.1000001907e+01   -1.7516300082e-02
    2.1099746704e+01   -1.7772100866e-02
    2.1199533463e+01   -1.8030000851e-02
    2.1299509048e+01   -1.8290799111e-02
    2.1399370193e+01   -1.8554400653e-02
    2.1499067307e+01   -1.8821299076e-02
    2.1598766327e+01   -1.9091900438e-02
    2.1698854446e+01   -1.9367299974e-02
    2.1799589157e+01   -1.9647799432e-02
    2.1898881912e+01   -1.9926600158e-02
    2.1998535156e+01   -2.0208399743e-02
    2.2098470688e+01   -2.0492799580e-02
    2.2199756622e+01   -2.0783200860e-02
    2.2299312592e+01   -2.1071499214e-02
    2.2399084091e+01   -2.1364200860e-02
    2.2498928070e+01   -2.1661199629e-02
    2.2598659515e+01   -2.1961800754e-02
    2.2699615479e+01   -2.2269399837e-02
    2.2798957825e+01   -2.2574599832e-02
    2.2899362564e+01   -2.2884799168e-02
    2.2999063492e+01   -2.3194300011e-02
    2.3098274231e+01   -2.3503700271e-02
    2.3198720932e+01   -2.3819200695e-02
    2.3299123764e+01   -2.4137500674e-02
    2.3398838043e+01   -2.4457300082e-02
    2.3498641968e+01   -2.4781400338e-02
    2.3598989487e+01   -2.5111200288e-02
    2.3698787689e+01   -2.5442499667e-02
    2.3798978806e+01   -2.5777699426e-02
    2.3898551941e+01   -2.6112500578e-02
    2.3999811172e+01   -2.6454199106e-02
    2.4099420547e+01   -2.6791699231e-02
    2.4199401855e+01   -2.7132200077e-02
    2.4299226761e+01   -2.7474699542e-02
    2.4399587631e+01   -2.7822300792e-02
    2.4499139786e+01   -2.8170799837e-02
    2.4599426270e+01   -2.8525499627e-02
    2.4699037552e+01   -2.8880899772e-02
    2.4798646927e+01   -2.9238700867e-02
    2.4899942398e+01   -2.9604300857e-02
    2.4999668121e+01   -2.9965300113e-02
    2.5099618912e+01   -3.0328299850e-02
    2.5198926926e+01   -3.0690599233e-02
    2.5298934937e+01   -3.1057700515e-02
    2.5398624420e+01   -3.1426601112e-02
    2.5499940872e+01   -3.1805198640e-02
    2.5598714828e+01   -3.2177798450e-02
    2.5698675156e+01   -3.2558400184e-02
    2.5798614502e+01   -3.2941799611e-02
    2.5899971008e+01   -3.3332999796e-02
    2.5999608994e+01   -3.3719599247e-02
    2.6098581314e+01   -3.4105699509e-02
    2.6199052811e+01   -3.4500200301e-02
    2.6298778534e+01   -3.4894999117e-02
    2.6399559021e+01   -3.5297900438e-02
    2.6499544144e+01   -3.5702098161e-02
    2.6599950790e+01   -3.6112200469e-02
    2.6699823380e+01   -3.6524001509e-02
    2.6799711227e+01   -3.6939099431e-02
    2.6899591446e+01   -3.7356801331e-02
    2.6999383926e+01   -3.7776101381e-02
    2.7098993301e+01   -3.8196701556e-02
    2.7198612213e+01   -3.8619700819e-02
    2.7298538208e+01   -3.9046999067e-02
    2.7398777008e+01   -3.9478998631e-02
    2.7498676300e+01   -3.9913199842e-02
    2.7598691940e+01   -4.0351498872e-02
    2.7699125290e+01   -4.0794599801e-02
    2.7799142838e+01   -4.1238199919e-02
    2.7898748398e+01   -4.1681900620e-02
    2.7998449326e+01   -4.2127400637e-02
    2.8099901199e+01   -4.2582400143e-02
    2.8199600220e+01   -4.3031398207e-02
    2.8299894333e+01   -4.3485399336e-02
    2.8399692535e+01   -4.3940100819e-02
    2.8499328613e+01   -4.4397100806e-02
    2.8598970413e+01   -4.4856898487e-02
    2.8699272156e+01   -4.5322198421e-02
    2.8799259186e+01   -4.5787598938e-02
    2.8898515701e+01   -4.6250399202e-02
    2.9000066757e+01   -4.6724200249e-02
    2.9099683762e+01   -4.7189101577e-02
    2.9199268341e+01   -4.7654598951e-02
    2.9299737930e+01   -4.8125799745e-02
    2.9399843216e+01   -4.8597499728e-02
    2.9499868393e+01   -4.9071900547e-02
    2.9599601746e+01   -4.9548201263e-02
    2.9699186325e+01   -5.0026901066e-02
    2.9799734116e+01   -5.0512898713e-02
    2.9898603439e+01   -5.0992801785e-02
    3.0000049591e+01   -5.1486801356e-02
    3.0100063324e+01   -5.1975499839e-02
    3.0198907852e+01   -5.2460599691e-02
    3.0298509598e+01   -5.2952200174e-02
    3.0399875641e+01   -5.3455900401e-02
    3.0500019073e+01   -5.3957398981e-02
    3.0598609924e+01   -5.4454799742e-02
    3.0698406219e+01   -5.4961301386e-02
    3.0799718857e+01   -5.5477701128e-02
    3.0899356842e+01   -5.5986698717e-02
    3.0998962402e+01   -5.6496199220e-02
    3.1098665237e+01   -5.7006701827e-02
    3.1199056625e+01   -5.7521700859e-02
    3.1299251556e+01   -5.8037400246e-02
    3.1399110794e+01   -5.8553598821e-02
    3.1498756409e+01   -5.9071801603e-02
    3.1598405838e+01   -5.9593401849e-02
    3.1699913025e+01   -6.0128301382e-02
    3.1799804688e+01   -6.0657501221e-02
    3.1899681091e+01   -6.1188101768e-02
    3.1999052048e+01   -6.1716500670e-02
    3.2099323273e+01   -6.2249600887e-02
    3.2199371338e+01   -6.2781997025e-02
    3.2298988342e+01   -6.3313998282e-02
    3.2398632050e+01   -6.3849598169e-02
    3.2498420715e+01   -6.4390696585e-02
    3.2599910736e+01   -6.4946100116e-02
    3.2699768066e+01   -6.5497003496e-02
    3.2799617767e+01   -6.6051200032e-02
    3.2899360657e+01   -6.6606797278e-02
    3.2999015808e+01   -6.7163400352e-02
    3.3098899841e+01   -6.7722700536e-02
    3.3198604584e+01   -6.8283498287e-02
    3.3298553467e+01   -6.8849198520e-02
    3.3399997711e+01   -6.9428399205e-02
    3.3499824524e+01   -7.0003896952e-02
    3.3599815369e+01   -7.0585697889e-02
    3.3699512482e+01   -7.1170397103e-02
    3.3799373627e+01   -7.1759000421e-02
    3.3899036407e+01   -7.2348199785e-02
    3.3998699188e+01   -7.2937801480e-02
    3.4098373413e+01   -7.3527596891e-02
    3.4199874878e+01   -7.4129000306e-02
    3.4299705505e+01   -7.4722699821e-02
    3.4399768829e+01   -7.5321301818e-02
    3.4498657227e+01   -7.5917497277e-02
    3.4598381042e+01   -7.6523400843e-02
    3.4699794769e+01   -7.7143900096e-02
    3.4799514771e+01   -7.7756799757e-02
    3.4899227142e+01   -7.8371100128e-02
    3.4998603821e+01   -7.8983701766e-02
    3.5098575592e+01   -7.9600200057e-02
    3.5198608398e+01   -8.0217696726e-02
    3.5298660278e+01   -8.0836996436e-02
    3.5398582458e+01   -8.1458397210e-02
    3.5500026703e+01   -8.2093402743e-02
    3.5598468781e+01   -8.2713797688e-02
    3.5698684692e+01   -8.3349399269e-02
    3.5799022675e+01   -8.3988398314e-02
    3.5898857117e+01   -8.4625601768e-02
    3.5998668671e+01   -8.5262700915e-02
    3.6098640442e+01   -8.5900701582e-02
    3.6198802948e+01   -8.6540400982e-02
    3.6299861908e+01   -8.7187796831e-02
    3.6399528503e+01   -8.7829902768e-02
    3.6499515533e+01   -8.8478900492e-02
    3.6599578857e+01   -8.9133597910e-02
    3.6699325562e+01   -8.9790701866e-02
    3.6799152374e+01   -9.0452000499e-02
    3.6899131775e+01   -9.1116398573e-02
    3.6998886108e+01   -9.1780602932e-02
    3.7098606110e+01   -9.2445701361e-02
    3.7200000763e+01   -9.3123897910e-02
    3.7299800873e+01   -9.3794800341e-02
    3.7399890900e+01   -9.4472400844e-02
    3.7499855042e+01   -9.5154598355e-02
    3.7599784851e+01   -9.5842100680e-02
    3.7699523926e+01   -9.6533097327e-02
    3.7799243927e+01   -9.7227402031e-02
    3.7898952484e+01   -9.7923703492e-02
    3.7998653412e+01   -9.8621197045e-02
    3.8098350525e+01   -9.9319599569e-02
    3.8199798584e+01   -1.0003200173e-01
    3.8299514771e+01   -1.0073400289e-01
    3.8399158478e+01   -1.0143899918e-01
    3.8498821259e+01   -1.0214799643e-01
    3.8598445892e+01   -1.0286100209e-01
    3.8699844360e+01   -1.0358899832e-01
    3.8799057007e+01   -1.0430300236e-01
    3.8898952484e+01   -1.0502099991e-01
    3.8998905182e+01   -1.0573799908e-01
    3.9098583221e+01   -1.0645200312e-01
    3.9199935913e+01   -1.0717599839e-01
    3.9299739838e+01   -1.0789100081e-01
    3.9399703979e+01   -1.0860899836e-01
    3.9499378204e+01   -1.0932900012e-01
    3.9599060059e+01   -1.1005300283e-01
    3.9698734283e+01   -1.1078099906e-01
    3.9799339294e+01   -1.1151900142e-01
    3.9899013519e+01   -1.1225099862e-01
    3.9998680115e+01   -1.1298400164e-01
    4.0098403931e+01   -1.1371699721e-01
    4.0198535919e+01   -1.1445400119e-01
    4.0299880981e+01   -1.1520300061e-01
    4.0399543762e+01   -1.1594299972e-01
    4.0499343872e+01   -1.1668799818e-01
    4.0598827362e+01   -1.1743500084e-01
    4.0698852539e+01   -1.1818899959e-01
    4.0798526764e+01   -1.1894199997e-01
    4.0899890900e+01   -1.1970599741e-01
    4.0999519348e+01   -1.2045499682e-01
    4.1099147797e+01   -1.2120199949e-01
    4.1198783875e+01   -1.2194799632e-01
    4.1298873901e+01   -1.2269800156e-01
    4.1398681641e+01   -1.2344899774e-01
    4.1499885559e+01   -1.2421400100e-01
    4.1598258972e+01   -1.2496200204e-01
    4.1699592590e+01   -1.2573899329e-01
    4.1799850464e+01   -1.2651099265e-01
    4.1898513794e+01   -1.2727199495e-01
    4.1999584198e+01   -1.2805299461e-01
    4.2099063873e+01   -1.2882000208e-01
    4.2198543549e+01   -1.2958799303e-01
    4.2299808502e+01   -1.3037300110e-01
    4.2399459839e+01   -1.3115000725e-01
    4.2499191284e+01   -1.3193500042e-01
    4.2598945618e+01   -1.3272699714e-01
    4.2699180603e+01   -1.3352900743e-01
    4.2798889160e+01   -1.3433000445e-01
    4.2899635315e+01   -1.3514100015e-01
    4.2999271393e+01   -1.3594399393e-01
    4.3098159790e+01   -1.3673999906e-01
    4.3198822021e+01   -1.3755300641e-01
    4.3298522949e+01   -1.3836100698e-01
    4.3398273468e+01   -1.3917599618e-01
    4.3499622345e+01   -1.4001099765e-01
    4.3599685669e+01   -1.4084400237e-01
    4.3698249817e+01   -1.4166900516e-01
    4.3799583435e+01   -1.4252099395e-01
    4.3899295807e+01   -1.4336000383e-01
    4.3999069214e+01   -1.4419899881e-01
    4.4098800659e+01   -1.4503599703e-01
    4.4198482513e+01   -1.4587199688e-01
    4.4299835205e+01   -1.4672400057e-01
    4.4398761749e+01   -1.4755900204e-01
    4.4498676300e+01   -1.4840799570e-01
    4.4598949432e+01   -1.4926500618e-01
    4.4698806763e+01   -1.5012399852e-01
    4.4798488617e+01   -1.5098300576e-01
    4.4899852753e+01   -1.5185700357e-01
    4.4999008179e+01   -1.5271000564e-01
    4.5099197388e+01   -1.5357099473e-01
    4.5199680328e+01   -1.5443299711e-01
    4.5299793243e+01   -1.5529300272e-01
    4.5399318695e+01   -1.5614999831e-01
    4.5499282837e+01   -1.5701599419e-01
    4.5599781036e+01   -1.5789200366e-01
    4.5699436188e+01   -1.5876400471e-01
    4.5799232483e+01   -1.5964099765e-01
    4.5898929596e+01   -1.6051700711e-01
    4.5998806000e+01   -1.6139400005e-01
    4.6099487305e+01   -1.6227699816e-01
    4.6198360443e+01   -1.6314500570e-01
    4.6298870087e+01   -1.6402900219e-01
    4.6398773193e+01   -1.6491200030e-01
    4.6498664856e+01   -1.6580200195e-01
    4.6598819733e+01   -1.6670100391e-01
    4.6698665619e+01   -1.6760399938e-01
    4.6798358917e+01   -1.6851200163e-01
    4.6898403168e+01   -1.6942599416e-01
    4.6998260498e+01   -1.7034000158e-01
    4.7099792480e+01   -1.7127099633e-01
    4.7199512482e+01   -1.7218899727e-01
    4.7299133301e+01   -1.7310899496e-01
    4.7398738861e+01   -1.7403499782e-01
    4.7498825073e+01   -1.7497299612e-01
    4.7599601746e+01   -1.7592400312e-01
    4.7699115753e+01   -1.7686900496e-01
    4.7798767090e+01   -1.7781899869e-01
    4.7898601532e+01   -1.7877100408e-01
    4.7999797821e+01   -1.7973700166e-01
    4.8099239349e+01   -1.8068499863e-01
    4.8198898315e+01   -1.8163600564e-01
    4.8298545837e+01   -1.8258699775e-01
    4.8399639130e+01   -1.8355600536e-01
    4.8499305725e+01   -1.8451499939e-01
    4.8598670959e+01   -1.8547600508e-01
    4.8698516846e+01   -1.8644399941e-01
    4.8799671173e+01   -1.8742600083e-01
    4.8899730682e+01   -1.8839700520e-01
    4.8999511719e+01   -1.8936100602e-01
    4.9099212646e+01   -1.9032199681e-01
    4.9198623657e+01   -1.9127699733e-01
    4.9298419952e+01   -1.9223700464e-01
    4.9398452759e+01   -1.9320000708e-01
    4.9499637604e+01   -1.9417899847e-01
    4.9599388123e+01   -1.9514900446e-01
    4.9698822021e+01   -1.9611999393e-01
    4.9799747467e+01   -1.9710899889e-01
    4.9899806976e+01   -1.9808900356e-01
    4.9999237061e+01   -1.9906200469e-01
    5.0098670959e+01   -2.0003500581e-01
    5.0199291229e+01   -2.0101900399e-01
    5.0298717499e+01   -2.0199400187e-01
    5.0398162842e+01   -2.0297299325e-01
    5.0498939514e+01   -2.0397099853e-01
    5.0599620819e+01   -2.0497399569e-01
    5.0699768066e+01   -2.0597599447e-01
    5.0799293518e+01   -2.0697300136e-01
    5.0898853302e+01   -2.0796899498e-01
    5.0998249054e+01   -2.0896199346e-01
    5.1099605560e+01   -2.0997199416e-01
    5.1199153900e+01   -2.1096199751e-01
    5.1299350739e+01   -2.1196000278e-01
    5.1399227142e+01   -2.1295900643e-01
    5.1498455048e+01   -2.1395599842e-01
    5.1598487854e+01   -2.1496899426e-01
    5.1699230194e+01   -2.1599499881e-01
    5.1799263000e+01   -2.1701900661e-01
    5.1899345398e+01   -2.1804599464e-01
    5.1998989105e+01   -2.1906800568e-01
    5.2098205566e+01   -2.2008499503e-01
    5.2199108124e+01   -2.2111800313e-01
    5.2298542023e+01   -2.2213900089e-01
    5.2398197174e+01   -2.2316700220e-01
    5.2499481201e+01   -2.2422100604e-01
    5.2599246979e+01   -2.2526699305e-01
    5.2699344635e+01   -2.2632199526e-01
    5.2799541473e+01   -2.2738300264e-01
    5.2898468018e+01   -2.2843100131e-01
    5.2999664307e+01   -2.2950099409e-01
    5.3098884583e+01   -2.3055000603e-01
    5.3199352264e+01   -2.3161399364e-01
    5.3299064636e+01   -2.3267300427e-01
    5.3399028778e+01   -2.3374199867e-01
    5.3498477936e+01   -2.3481400311e-01
    5.3598152161e+01   -2.3589700460e-01
    5.3699234009e+01   -2.3700299859e-01
    5.3798679352e+01   -2.3809500039e-01
    5.3898395538e+01   -2.3919099569e-01
    5.3998210907e+01   -2.4028700590e-01
    5.4099525452e+01   -2.4139699340e-01
    5.4199005127e+01   -2.4248600006e-01
    5.4298465729e+01   -2.4357600510e-01
    5.4398651123e+01   -2.4467700720e-01
    5.4498073578e+01   -2.4577499926e-01
    5.4598510742e+01   -2.4689100683e-01
    5.4698493958e+01   -2.4800799787e-01
    5.4799705505e+01   -2.4914099276e-01
    5.4899185181e+01   -2.5025498867e-01
    5.4998458862e+01   -2.5136399269e-01
    5.5098869324e+01   -2.5248399377e-01
    5.5198421478e+01   -2.5359299779e-01
    5.5298675537e+01   -2.5471100211e-01
    5.5398860931e+01   -2.5583100319e-01
    5.5498931885e+01   -2.5695601106e-01
    5.5599720001e+01   -2.5809600949e-01
    5.5699172974e+01   -2.5922700763e-01
    5.5798778534e+01   -2.6036500931e-01
    5.5898418427e+01   -2.6150599122e-01
    5.5998451233e+01   -2.6265099645e-01
    5.6099250793e+01   -2.6380398870e-01
    5.6199199677e+01   -2.6494801044e-01
    5.6298458099e+01   -2.6608699560e-01
    5.6399513245e+01   -2.6725199819e-01
    5.6499183655e+01   -2.6840800047e-01
    5.6598861694e+01   -2.6957300305e-01
    5.6698699951e+01   -2.7074798942e-01
    5.6798175812e+01   -2.7192398906e-01
    5.6898345947e+01   -2.7311301231e-01
    5.6998332977e+01   -2.7430099249e-01
    5.7098285675e+01   -2.7548998594e-01
    5.7199680328e+01   -2.7669700980e-01
    5.7299068451e+01   -2.7788498998e-01
    5.7398483276e+01   -2.7908000350e-01
    5.7498657227e+01   -2.8029099107e-01
    5.7599300385e+01   -2.8151500225e-01
    5.7698551178e+01   -2.8272798657e-01
    5.7798160553e+01   -2.8395000100e-01
    5.7898082733e+01   -2.8517699242e-01
    5.7999015808e+01   -2.8641700745e-01
    5.8098190308e+01   -2.8763398528e-01
    5.8199565887e+01   -2.8887799382e-01
    5.8298091888e+01   -2.9008799791e-01
    5.8398857117e+01   -2.9132899642e-01
    5.8498310089e+01   -2.9255801439e-01
    5.8599094391e+01   -2.9381000996e-01
    5.8698657990e+01   -2.9504999518e-01
    5.8798557281e+01   -2.9629600048e-01
    5.8898353577e+01   -2.9754000902e-01
    5.8998191833e+01   -2.9877999425e-01
    5.9098022461e+01   -3.0001500249e-01
    5.9198860168e+01   -3.0125999451e-01
    5.9298591614e+01   -3.0248999596e-01
    5.9398792267e+01   -3.0372801423e-01
    5.9498268127e+01   -3.0496200919e-01
    5.9598152161e+01   -3.0620700121e-01
    5.9699028015e+01   -3.0747199059e-01
    5.9798957825e+01   -3.0872899294e-01
    5.9898925781e+01   -3.0998900533e-01
    5.9998096466e+01   -3.1123900414e-01
    6.0098972321e+01   -3.1251001358e-01
    6.0198276520e+01   -3.1376299262e-01
    6.0299133301e+01   -3.1503799558e-01
    6.0398368835e+01   -3.1629899144e-01
    6.0498920441e+01   -3.1758499146e-01
    6.0598987579e+01   -3.1887200475e-01
    6.0699398041e+01   -3.2016998529e-01
    6.0798805237e+01   -3.2145699859e-01
    6.0898227692e+01   -3.2274299860e-01
    6.0999065399e+01   -3.2404398918e-01
    6.1098628998e+01   -3.2532501221e-01
    6.1198814392e+01   -3.2661199570e-01
    6.1299121857e+01   -3.2789900899e-01
    6.1399040222e+01   -3.2918399572e-01
    6.1498008728e+01   -3.3046299219e-01
    6.1598419189e+01   -3.3176699281e-01
    6.1698120117e+01   -3.3307099342e-01
    6.1798183441e+01   -3.3438399434e-01
    6.1899089813e+01   -3.3571100235e-01
    6.1997974396e+01   -3.3700999618e-01
    6.2098632812e+01   -3.3833000064e-01
    6.2199283600e+01   -3.3964899182e-01
    6.2298591614e+01   -3.4095200896e-01
    6.2398288727e+01   -3.4226700664e-01
    6.2499523163e+01   -3.4361198545e-01
    6.2599418640e+01   -3.4494900703e-01
    6.2697952271e+01   -3.4627598524e-01
    6.2798286438e+01   -3.4763100743e-01
    6.2898574829e+01   -3.4898701310e-01
    6.2997989655e+01   -3.5032999516e-01
    6.3097953796e+01   -3.5168001056e-01
    6.3199584961e+01   -3.5305398703e-01
    6.3299255371e+01   -3.5440701246e-01
    6.3399276733e+01   -3.5577300191e-01
    6.3498580933e+01   -3.5714200139e-01
    6.3598197937e+01   -3.5852700472e-01
    6.3698497772e+01   -3.5993200541e-01
    6.3799430847e+01   -3.6135199666e-01
    6.3899143219e+01   -3.6275801063e-01
    6.3999095917e+01   -3.6416599154e-01
    6.4098510742e+01   -3.6556500196e-01
    6.4199485779e+01   -3.6698400974e-01
    6.4298751831e+01   -3.6838001013e-01
    6.4399353027e+01   -3.6980000138e-01
    6.4499092102e+01   -3.7121599913e-01
    6.4599304199e+01   -3.7264800072e-01
    6.4699501038e+01   -3.7408700585e-01
    6.4798828125e+01   -3.7551799417e-01
    6.4898124695e+01   -3.7695100904e-01
    6.4998863220e+01   -3.7840300798e-01
    6.5099067688e+01   -3.7984600663e-01
    6.5199142456e+01   -3.8128599524e-01
    6.5297943115e+01   -3.8270801306e-01
    6.5398216248e+01   -3.8415598869e-01
    6.5498413086e+01   -3.8561099768e-01
    6.5599433899e+01   -3.8708499074e-01
    6.5698699951e+01   -3.8854300976e-01
    6.5797973633e+01   -3.9000600576e-01
    6.5898910522e+01   -3.9149498940e-01
    6.5998947144e+01   -3.9297100902e-01
    6.6098472595e+01   -3.9443698525e-01
    6.6198242188e+01   -3.9590600133e-01
    6.6297935486e+01   -3.9737498760e-01
    6.6398002625e+01   -3.9885601401e-01
    6.6499168396e+01   -4.0036100149e-01
    6.6598495483e+01   -4.0184798837e-01
    6.6698181152e+01   -4.0334901214e-01
    6.6799133301e+01   -4.0487799048e-01
    6.6899520874e+01   -4.0640398860e-01
    6.6997894287e+01   -4.0790098906e-01
    6.7097915649e+01   -4.0942499042e-01
    6.7199249268e+01   -4.1097199917e-01
    6.7298408508e+01   -4.1249200702e-01
    6.7397857666e+01   -4.1402399540e-01
    6.7498176575e+01   -4.1557899117e-01
    6.7598976135e+01   -4.1715198755e-01
    6.7697982788e+01   -4.1870498657e-01
    6.7799400330e+01   -4.2030298710e-01
    6.7899383545e+01   -4.2188099027e-01
    6.7998321533e+01   -4.2344200611e-01
    6.8098915100e+01   -4.2502900958e-01
    6.8198638916e+01   -4.2660298944e-01
    6.8298904419e+01   -4.2818701267e-01
    6.8399398804e+01   -4.2978098989e-01
    6.8498512268e+01   -4.3135899305e-01
    6.8599021912e+01   -4.3296799064e-01
    6.8698196411e+01   -4.3456199765e-01
    6.8798377991e+01   -4.3617698550e-01
    6.8899055481e+01   -4.3779999018e-01
    6.8998924255e+01   -4.3940800428e-01
    6.9098777771e+01   -4.4101199508e-01
    6.9199478149e+01   -4.4262599945e-01
    6.9299110413e+01   -4.4422399998e-01
    6.9399406433e+01   -4.4583699107e-01
    6.9498710632e+01   -4.4743999839e-01
    6.9598670959e+01   -4.4906398654e-01
    6.9697883606e+01   -4.5068401098e-01
    6.9799194336e+01   -4.5234599710e-01
    6.9898956299e+01   -4.5398500562e-01
    6.9997909546e+01   -4.5561200380e-01
    7.0098564148e+01   -4.5726698637e-01
    7.0198677063e+01   -4.5891499519e-01
    7.0299339294e+01   -4.6057599783e-01
    7.0398384094e+01   -4.6221700311e-01
    7.0498428345e+01   -4.6388301253e-01
    7.0599357605e+01   -4.6557399631e-01
    7.0698265076e+01   -4.6723699570e-01
    7.0799247742e+01   -4.6893700957e-01
    7.0898490906e+01   -4.7060701251e-01
    7.0999168396e+01   -4.7229599953e-01
    7.1098709106e+01   -4.7396099567e-01
    7.1198440552e+01   -4.7562500834e-01
    7.1298713684e+01   -4.7729799151e-01
    7.1398773193e+01   -4.7896999121e-01
    7.1499237061e+01   -4.8065599799e-01
    7.1599029541e+01   -4.8233899474e-01
    7.1699096680e+01   -4.8403599858e-01
    7.1799247742e+01   -4.8574298620e-01
    7.1897949219e+01   -4.8742800951e-01
    7.1998474121e+01   -4.8914501071e-01
    7.2098976135e+01   -4.9086099863e-01
    7.2197792053e+01   -4.9254798889e-01
    7.2298767090e+01   -4.9427700043e-01
    7.2398544312e+01   -4.9599400163e-01
    7.2497924805e+01   -4.9771699309e-01
    7.2597839355e+01   -4.9946200848e-01
    7.2698532104e+01   -5.0123101473e-01
    7.2797851562e+01   -5.0298297405e-01
    7.2899330139e+01   -5.0477600098e-01
    7.2998680115e+01   -5.0653201342e-01
    7.3098632812e+01   -5.0829797983e-01
    7.3198600769e+01   -5.1006799936e-01
    7.3298156738e+01   -5.1183801889e-01
    7.3398269653e+01   -5.1362901926e-01
    7.3499168396e+01   -5.1545101404e-01
    7.3598701477e+01   -5.1726400852e-01
    7.3699394226e+01   -5.1911199093e-01
    7.3798507690e+01   -5.2094197273e-01
    7.3898231506e+01   -5.2278798819e-01
    7.3998115540e+01   -5.2463799715e-01
    7.4099342346e+01   -5.2651298046e-01
    7.4198501587e+01   -5.2834898233e-01
    7.4299324036e+01   -5.3021997213e-01
    7.4398574829e+01   -5.3206700087e-01
    7.4498466492e+01   -5.3393399715e-01
    7.4598838806e+01   -5.3582102060e-01
    7.4699096680e+01   -5.3771501780e-01
    7.4798225403e+01   -5.3959298134e-01
    7.4899070740e+01   -5.4150497913e-01
    7.4999382019e+01   -5.4340702295e-01
    7.5098289490e+01   -5.4527902603e-01
    7.5197906494e+01   -5.4716402292e-01
    7.5298370361e+01   -5.4906499386e-01
    7.5398590088e+01   -5.5096501112e-01
    7.5498809814e+01   -5.5287301540e-01
    7.5597846985e+01   -5.5476897955e-01
    7.5698677063e+01   -5.5670797825e-01
    7.5798011780e+01   -5.5862599611e-01
    7.5898864746e+01   -5.6057602167e-01
    7.5998992920e+01   -5.6251400709e-01
    7.6098281860e+01   -5.6443399191e-01
    7.6197845459e+01   -5.6635898352e-01
    7.6299232483e+01   -5.6832200289e-01
    7.6398193359e+01   -5.7024401426e-01
    7.6499282837e+01   -5.7221800089e-01
    7.6598464966e+01   -5.7416498661e-01
    7.6697837830e+01   -5.7612800598e-01
    7.6798622131e+01   -5.7812899351e-01
    7.6898971558e+01   -5.8012902737e-01
    7.6999008179e+01   -5.8212697506e-01
    7.7098983765e+01   -5.8412897587e-01
    7.7198654175e+01   -5.8612900972e-01
    7.7299316406e+01   -5.8815699816e-01
    7.7398513794e+01   -5.9016597271e-01
    7.7498863220e+01   -5.9220999479e-01
    7.7597900391e+01   -5.9424102306e-01
    7.7698417664e+01   -5.9631299973e-01
    7.7798255920e+01   -5.9838002920e-01
    7.7898216248e+01   -6.0045498610e-01
    7.7998725891e+01   -6.0254502296e-01
    7.8099159241e+01   -6.0463297367e-01
    7.8198577881e+01   -6.0670202971e-01
    7.8299102783e+01   -6.0879701376e-01
    7.8397781372e+01   -6.1086100340e-01
    7.8498405457e+01   -6.1297500134e-01
    7.8599090576e+01   -6.1510199308e-01
    7.8698196411e+01   -6.1720502377e-01
    7.8798538208e+01   -6.1934202909e-01
    7.8899223328e+01   -6.2149101496e-01
    7.8998992920e+01   -6.2361997366e-01
    7.9098937988e+01   -6.2575000525e-01
    7.9197990417e+01   -6.2786102295e-01
    7.9299171448e+01   -6.3001900911e-01
    7.9397720337e+01   -6.3212597370e-01
    7.9499130249e+01   -6.3430202007e-01
    7.9599044800e+01   -6.3645702600e-01
    7.9698135376e+01   -6.3860398531e-01
    7.9797996521e+01   -6.4077502489e-01
    7.9899307251e+01   -6.4298200607e-01
    7.9998176575e+01   -6.4513701200e-01
    8.0098747253e+01   -6.4732998610e-01
    8.0198181152e+01   -6.4949899912e-01
    8.0298767090e+01   -6.5169799328e-01
    8.0397712708e+01   -6.5386897326e-01
    8.0498893738e+01   -6.5609800816e-01
    8.0599304199e+01   -6.5832102299e-01
    8.0698326111e+01   -6.6052097082e-01
    8.0799285889e+01   -6.6276800632e-01
    8.0898399353e+01   -6.6497397423e-01
    8.0999038696e+01   -6.6721099615e-01
    8.1098533630e+01   -6.6941899061e-01
    8.1198959351e+01   -6.7164701223e-01
    8.1299057007e+01   -6.7386698723e-01
    8.1398963928e+01   -6.7608702183e-01
    8.1497779846e+01   -6.7829102278e-01
    8.1599166870e+01   -6.8056201935e-01
    8.1698730469e+01   -6.8280398846e-01
    8.1798835754e+01   -6.8506801128e-01
    8.1899276733e+01   -6.8734699488e-01
    8.1997909546e+01   -6.8958598375e-01
    8.2098396301e+01   -6.9186902046e-01
    8.2198867798e+01   -6.9415402412e-01
    8.2298049927e+01   -6.9641697407e-01
    8.2397987366e+01   -6.9870799780e-01
    8.2498893738e+01   -7.0103698969e-01
    8.2598670959e+01   -7.0335602760e-01
    8.2699256897e+01   -7.0570802689e-01
    8.2798698425e+01   -7.0804399252e-01
    8.2898689270e+01   -7.1039998531e-01
    8.2998016357e+01   -7.1274399757e-01
    8.3097946167e+01   -7.1510702372e-01
    8.3198799133e+01   -7.1749800444e-01
    8.3298324585e+01   -7.1986997128e-01
    8.3398475647e+01   -7.2227197886e-01
    8.3497711182e+01   -7.2467201948e-01
    8.3598815918e+01   -7.2713798285e-01
    8.3698532104e+01   -7.2958797216e-01
    8.3797630310e+01   -7.3203700781e-01
    8.3899002075e+01   -7.3455202579e-01
    8.3998886108e+01   -7.3703497648e-01
    8.4098083496e+01   -7.3950201273e-01
    8.4198913574e+01   -7.4201297760e-01
    8.4298049927e+01   -7.4448502064e-01
    8.4397842407e+01   -7.4698102474e-01
    8.4497871399e+01   -7.4949300289e-01
    8.4598182678e+01   -7.5202298164e-01
    8.4698356628e+01   -7.5456100702e-01
    8.4797630310e+01   -7.5708299875e-01
    8.4898460388e+01   -7.5964897871e-01
    8.4999137878e+01   -7.6221197844e-01
    8.5098823547e+01   -7.6475000381e-01
    8.5199111938e+01   -7.6730400324e-01
    8.5297897339e+01   -7.6982098818e-01
    8.5398010254e+01   -7.7237802744e-01
    8.5497940063e+01   -7.7494102716e-01
    8.5599052429e+01   -7.7754700184e-01
    8.5698196411e+01   -7.8011500835e-01
    8.5798408508e+01   -7.8272199631e-01
    8.5897590637e+01   -7.8530901670e-01
    8.5999221802e+01   -7.8796297312e-01
    8.6098236084e+01   -7.9055100679e-01
    8.6198234558e+01   -7.9316800833e-01
    8.6297973633e+01   -7.9578101635e-01
    8.6398239136e+01   -7.9841697216e-01
    8.6497825623e+01   -8.0104601383e-01
    8.6598640442e+01   -8.0372101068e-01
    8.6697860718e+01   -8.0636900663e-01
    8.6798599243e+01   -8.0907100439e-01
    8.6899116516e+01   -8.1177800894e-01
    8.6999008179e+01   -8.1447601318e-01
    8.7098831177e+01   -8.1717997789e-01
    8.7198524475e+01   -8.1989002228e-01
    8.7297599792e+01   -8.2259398699e-01
    8.7398666382e+01   -8.2536798716e-01
    8.7498992920e+01   -8.2813900709e-01
    8.7597908020e+01   -8.3088797331e-01
    8.7698410034e+01   -8.3369898796e-01
    8.7798126221e+01   -8.3650201559e-01
    8.7897895813e+01   -8.3931797743e-01
    8.7998588562e+01   -8.4216797352e-01
    8.8099029541e+01   -8.4501701593e-01
    8.8198051453e+01   -8.4783297777e-01
    8.8297927856e+01   -8.5068100691e-01
    8.8398300171e+01   -8.5355597734e-01
    8.8498802185e+01   -8.5644799471e-01
    8.8597846985e+01   -8.5931301117e-01
    8.8698600769e+01   -8.6224299669e-01
    8.8798103333e+01   -8.6514800787e-01
    8.8898239136e+01   -8.6807900667e-01
    8.8997764587e+01   -8.7099701166e-01
    8.9097564697e+01   -8.7392497063e-01
    8.9198410034e+01   -8.7688601017e-01
    8.9297744751e+01   -8.7980800867e-01
    8.9397682190e+01   -8.8275599480e-01
    8.9497871399e+01   -8.8572400808e-01
    8.9597648621e+01   -8.8869398832e-01
    8.9698661804e+01   -8.9171397686e-01
    8.9798271179e+01   -8.9470499754e-01
    8.9897743225e+01   -8.9770001173e-01
    8.9998344421e+01   -9.0073502064e-01
    9.0098991394e+01   -9.0377402306e-01
    9.0197540283e+01   -9.0675699711e-01
    9.0298309326e+01   -9.0981501341e-01
    9.0399032593e+01   -9.1288197041e-01
    9.0498954773e+01   -9.1593801975e-01
    9.0598358154e+01   -9.1899198294e-01
    9.0697532654e+01   -9.2204898596e-01
    9.0798568726e+01   -9.2517101765e-01
    9.0898002625e+01   -9.2824602127e-01
    9.0998703003e+01   -9.3136000633e-01
    9.1098129272e+01   -9.3443399668e-01
    9.1197578430e+01   -9.3751102686e-01
    9.1299072266e+01   -9.4065397978e-01
    9.1398910522e+01   -9.4375300407e-01
    9.1497810364e+01   -9.4683498144e-01
    9.1597610474e+01   -9.4995898008e-01
    9.1698753357e+01   -9.5314198732e-01
    9.1798583984e+01   -9.5629900694e-01
    9.1897865295e+01   -9.5945101976e-01
    9.1998123169e+01   -9.6264201403e-01
    9.2098678589e+01   -9.6584999561e-01
    9.2197540283e+01   -9.6901297569e-01
    9.2298370361e+01   -9.7225099802e-01
    9.2398117065e+01   -9.7547298670e-01
    9.2498939514e+01   -9.7875201702e-01
    9.2598602295e+01   -9.8201799393e-01
    9.2697456360e+01   -9.8527902365e-01
    9.2798309326e+01   -9.8862397671e-01
    9.2897972107e+01   -9.9194699526e-01
    9.2998962402e+01   -9.9532699585e-01
    9.3098892212e+01   -9.9868601561e-01
    9.3198997498e+01   -1.0020699501e+00
    9.3298439026e+01   -1.0054500103e+00
    9.3398330688e+01   -1.0088700056e+00
    9.3497573853e+01   -1.0123000145e+00
    9.3598655701e+01   -1.0158200264e+00
    9.3698608398e+01   -1.0193300247e+00
    9.3797752380e+01   -1.0228400230e+00
    9.3899002075e+01   -1.0264400244e+00
    9.3998741150e+01   -1.0299999714e+00
    9.4098075867e+01   -1.0335500240e+00
    9.4198997498e+01   -1.0371799469e+00
    9.4298240662e+01   -1.0407500267e+00
    9.4398742676e+01   -1.0443799496e+00
    9.4498855591e+01   -1.0480200052e+00
    9.4599044800e+01   -1.0516799688e+00
    9.4698997498e+01   -1.0553499460e+00
    9.4798210144e+01   -1.0590000153e+00
    9.4897445679e+01   -1.0626599789e+00
    9.4998138428e+01   -1.0663900375e+00
    9.5097686768e+01   -1.0700800419e+00
    9.5198081970e+01   -1.0738099813e+00
    9.5298728943e+01   -1.0775599480e+00
    9.5398635864e+01   -1.0812900066e+00
    9.5498374939e+01   -1.0850299597e+00
    9.5597663879e+01   -1.0887800455e+00
    9.5698524475e+01   -1.0926100016e+00
    9.5797790527e+01   -1.0963900089e+00
    9.5898986816e+01   -1.1002600193e+00
    9.5998985291e+01   -1.1040999889e+00
    9.6098060608e+01   -1.1079000235e+00
    9.6197578430e+01   -1.1117299795e+00
    9.6297988892e+01   -1.1156100035e+00
    9.6398582458e+01   -1.1195100546e+00
    9.6498344421e+01   -1.1233999729e+00
    9.6597564697e+01   -1.1272900105e+00
    9.6698661804e+01   -1.1312700510e+00
    9.6797798157e+01   -1.1352000237e+00
    9.6898208618e+01   -1.1391999722e+00
    9.6997932434e+01   -1.1432000399e+00
    9.7097503662e+01   -1.1471999884e+00
    9.7198707581e+01   -1.1512999535e+00
    9.7297836304e+01   -1.1553299427e+00
    9.7398887634e+01   -1.1594799757e+00
    9.7497428894e+01   -1.1635500193e+00
    9.7598175049e+01   -1.1677399874e+00
    9.7698791504e+01   -1.1719599962e+00
    9.7798393250e+01   -1.1761599779e+00
    9.7897941589e+01   -1.1803900003e+00
    9.7998611450e+01   -1.1846799850e+00
    9.8097488403e+01   -1.1889200211e+00
    9.8198631287e+01   -1.1932799816e+00
    9.8297607422e+01   -1.1975599527e+00
    9.8398071289e+01   -1.2019300461e+00
    9.8498641968e+01   -1.2063399553e+00
    9.8597709656e+01   -1.2107000351e+00
    9.8698402405e+01   -1.2151700258e+00
    9.8798988342e+01   -1.2196500301e+00
    9.8899047852e+01   -1.2241200209e+00
    9.8998474121e+01   -1.2285900116e+00
    9.9098030090e+01   -1.2330700159e+00
    9.9198913574e+01   -1.2376199961e+00
    9.9298187256e+01   -1.2421300411e+00
    9.9397727966e+01   -1.2466599941e+00
    9.9497390747e+01   -1.2512199879e+00
    9.9598632812e+01   -1.2558799982e+00
    9.9697845459e+01   -1.2604700327e+00
    9.9798309326e+01   -1.2651400566e+00
    9.9898513794e+01   -1.2698199749e+00
    9.9997566223e+01   -1.2744499445e+00
    1.0009834290e+02   -1.2791800499e+00
    1.0019773865e+02   -1.2838599682e+00
    1.0029878998e+02   -1.2886400223e+00
    1.0039791870e+02   -1.2933499813e+00
    1.0049799347e+02   -1.2981200218e+00
    1.0059751129e+02   -1.3028899431e+00
    1.0069835663e+02   -1.3077499866e+00
    1.0079770660e+02   -1.3125499487e+00
    1.0089897919e+02   -1.3174500465e+00
    1.0099813843e+02   -1.3222600222e+00
    1.0109767151e+02   -1.3270900249e+00
    1.0119863129e+02   -1.3320100307e+00
    1.0129815674e+02   -1.3368699551e+00
    1.0139785004e+02   -1.3417600393e+00
    1.0149839783e+02   -1.3467199802e+00
    1.0159835815e+02   -1.3516800404e+00
    1.0169811249e+02   -1.3566499949e+00
    1.0179760742e+02   -1.3616499901e+00
    1.0189794922e+02   -1.3667099476e+00
    1.0199787140e+02   -1.3717800379e+00
    1.0209844208e+02   -1.3768999577e+00
    1.0219899750e+02   -1.3820500374e+00
    1.0229805756e+02   -1.3871500492e+00
    1.0239761353e+02   -1.3923100233e+00
    1.0249828339e+02   -1.3975600004e+00
    1.0259786224e+02   -1.4027999640e+00
    1.0269793701e+02   -1.4081100225e+00
    1.0279759979e+02   -1.4134299755e+00
    1.0289862823e+02   -1.4188599586e+00
    1.0299786377e+02   -1.4242199659e+00
    1.0309763336e+02   -1.4296499491e+00
    1.0319763947e+02   -1.4351300001e+00
    1.0329869080e+02   -1.4407000542e+00
    1.0339829254e+02   -1.4462399483e+00
    1.0349752045e+02   -1.4518100023e+00
    1.0359850311e+02   -1.4575300217e+00
    1.0369854736e+02   -1.4632400274e+00
    1.0379776001e+02   -1.4689500332e+00
    1.0389884949e+02   -1.4748100042e+00
    1.0399832153e+02   -1.4805999994e+00
    1.0409761810e+02   -1.4864100218e+00
    1.0419864655e+02   -1.4923499823e+00
    1.0429798889e+02   -1.4982199669e+00
    1.0439884186e+02   -1.5042099953e+00
    1.0449725342e+02   -1.5100799799e+00
    1.0459738159e+02   -1.5160900354e+00
    1.0469876099e+02   -1.5222100019e+00
    1.0479804993e+02   -1.5282299519e+00
    1.0489736176e+02   -1.5342700481e+00
    1.0499845886e+02   -1.5404399633e+00
    1.0509780121e+02   -1.5465199947e+00
    1.0519824982e+02   -1.5526900291e+00
    1.0529734039e+02   -1.5587899685e+00
    1.0539868164e+02   -1.5650700331e+00
    1.0549820709e+02   -1.5712599754e+00
    1.0559748840e+02   -1.5774699450e+00
    1.0569841766e+02   -1.5838199854e+00
    1.0579753113e+02   -1.5900800228e+00
    1.0589762878e+02   -1.5964399576e+00
    1.0599735260e+02   -1.6028000116e+00
    1.0609765625e+02   -1.6092200279e+00
    1.0619872284e+02   -1.6157200336e+00
    1.0629737854e+02   -1.6220899820e+00
    1.0639750671e+02   -1.6285899878e+00
    1.0649858856e+02   -1.6351900101e+00
    1.0659793091e+02   -1.6417200565e+00
    1.0669734192e+02   -1.6482900381e+00
    1.0679827118e+02   -1.6550099850e+00
    1.0689855194e+02   -1.6617300510e+00
    1.0699799347e+02   -1.6684299707e+00
    1.0709887695e+02   -1.6752699614e+00
    1.0719808960e+02   -1.6820399761e+00
    1.0729727936e+02   -1.6888500452e+00
    1.0739816284e+02   -1.6958400011e+00
    1.0749823761e+02   -1.7028299570e+00
    1.0759735870e+02   -1.7098000050e+00
    1.0769805145e+02   -1.7169400454e+00
    1.0779737091e+02   -1.7240300179e+00
    1.0789832306e+02   -1.7312899828e+00
    1.0799729919e+02   -1.7384500504e+00
    1.0809792328e+02   -1.7457699776e+00
    1.0819731903e+02   -1.7530499697e+00
    1.0829875946e+02   -1.7605299950e+00
    1.0839759064e+02   -1.7678600550e+00
    1.0849822235e+02   -1.7753700018e+00
    1.0859729767e+02   -1.7828099728e+00
    1.0869792938e+02   -1.7904200554e+00
    1.0879718018e+02   -1.7979600430e+00
    1.0889888763e+02   -1.8057299852e+00
    1.0899825287e+02   -1.8133499622e+00
    1.0909754181e+02   -1.8209999800e+00
    1.0919841003e+02   -1.8287999630e+00
    1.0929756927e+02   -1.8365099430e+00
    1.0939753723e+02   -1.8443100452e+00
    1.0949871063e+02   -1.8522599936e+00
    1.0959799194e+02   -1.8600900173e+00
    1.0969882202e+02   -1.8681000471e+00
    1.0979721832e+02   -1.8759499788e+00
    1.0989875793e+02   -1.8840800524e+00
    1.0999787140e+02   -1.8920500278e+00
    1.1009870911e+02   -1.9001899958e+00
    1.1019789124e+02   -1.9082299471e+00
    1.1029884338e+02   -1.9164500237e+00
    1.1039797974e+02   -1.9245500565e+00
    1.1049723816e+02   -1.9327100515e+00
    1.1059748077e+02   -1.9409899712e+00
    1.1069818878e+02   -1.9493499994e+00
    1.1079756927e+02   -1.9576300383e+00
    1.1089885712e+02   -1.9660999775e+00
    1.1099804688e+02   -1.9744199514e+00
    1.1109879303e+02   -1.9829000235e+00
    1.1119789886e+02   -1.9912799597e+00
    1.1129876709e+02   -1.9998400211e+00
    1.1139830017e+02   -2.0083301067e+00
    1.1149875641e+02   -2.0169498920e+00
    1.1159799957e+02   -2.0255100727e+00
    1.1169873810e+02   -2.0342600346e+00
    1.1179791260e+02   -2.0429201126e+00
    1.1189804840e+02   -2.0517199039e+00
    1.1199755859e+02   -2.0605099201e+00
    1.1209803009e+02   -2.0694398880e+00
    1.1219847107e+02   -2.0784099102e+00
    1.1229734802e+02   -2.0873000622e+00
    1.1239826202e+02   -2.0964300632e+00
    1.1249878693e+02   -2.1055901051e+00
    1.1259828949e+02   -2.1147201061e+00
    1.1269821930e+02   -2.1239600182e+00
    1.1279791260e+02   -2.1332399845e+00
    1.1289859772e+02   -2.1426799297e+00
    1.1299759674e+02   -2.1520199776e+00
    1.1309866333e+02   -2.1616098881e+00
    1.1319850159e+02   -2.1711599827e+00
    1.1329772186e+02   -2.1807301044e+00
    1.1339862823e+02   -2.1905300617e+00
    1.1349777222e+02   -2.2002398968e+00
    1.1359857941e+02   -2.2102000713e+00
    1.1369802094e+02   -2.2200899124e+00
    1.1379718781e+02   -2.2300300598e+00
    1.1389807129e+02   -2.2402000427e+00
    1.1399727631e+02   -2.2502601147e+00
    1.1409815216e+02   -2.2605400085e+00
    1.1419738770e+02   -2.2706999779e+00
    1.1429837799e+02   -2.2811000347e+00
    1.1439730072e+02   -2.2913401127e+00
    1.1449720764e+02   -2.3017299175e+00
    1.1459716797e+02   -2.3121800423e+00
    1.1469831848e+02   -2.3228099346e+00
    1.1479756165e+02   -2.3332800865e+00
    1.1489849854e+02   -2.3439700603e+00
    1.1499820709e+02   -2.3545699120e+00
    1.1509728241e+02   -2.3651399612e+00
    1.1519814301e+02   -2.3759400845e+00
    1.1529728699e+02   -2.3866100311e+00
    1.1539869690e+02   -2.3975598812e+00
    1.1549806976e+02   -2.4083499908e+00
    1.1559735107e+02   -2.4191799164e+00
    1.1569825745e+02   -2.4302499294e+00
    1.1579724884e+02   -2.4411599636e+00
    1.1589794922e+02   -2.4523100853e+00
    1.1599851227e+02   -2.4635000229e+00
    1.1609796906e+02   -2.4746100903e+00
    1.1619730377e+02   -2.4857599735e+00
    1.1629730988e+02   -2.4970400333e+00
    1.1639865112e+02   -2.5085299015e+00
    1.1649848938e+02   -2.5199201107e+00
    1.1659783936e+02   -2.5313200951e+00
    1.1669870758e+02   -2.5429699421e+00
    1.1679785156e+02   -2.5544800758e+00
    1.1689777374e+02   -2.5661599636e+00
    1.1699874878e+02   -2.5780301094e+00
    1.1709776306e+02   -2.5897500515e+00
    1.1719838715e+02   -2.6017200947e+00
    1.1729730225e+02   -2.6135799885e+00
    1.1739804840e+02   -2.6257400513e+00
    1.1749797058e+02   -2.6378800869e+00
    1.1759831238e+02   -2.6501700878e+00
    1.1769725800e+02   -2.6623599529e+00
    1.1779801941e+02   -2.6748700142e+00
    1.1789868927e+02   -2.6874399185e+00
    1.1799755859e+02   -2.6998600960e+00
    1.1809806061e+02   -2.7125599384e+00
    1.1819732666e+02   -2.7251799107e+00
    1.1829740143e+02   -2.7379701138e+00
    1.1839772797e+02   -2.7508800030e+00
    1.1849816895e+02   -2.7638800144e+00
    1.1859873962e+02   -2.7769699097e+00
    1.1869751740e+02   -2.7899000645e+00
    1.1879865265e+02   -2.8032100201e+00
    1.1889803314e+02   -2.8163399696e+00
    1.1899707031e+02   -2.8294899464e+00
    1.1909777069e+02   -2.8429100513e+00
    1.1919844055e+02   -2.8563799858e+00
    1.1929756927e+02   -2.8697099686e+00
    1.1939790344e+02   -2.8832600117e+00
    1.1949729156e+02   -2.8967499733e+00
    1.1959799957e+02   -2.9104900360e+00
    1.1969866180e+02   -2.9242799282e+00
    1.1979846954e+02   -2.9380199909e+00
    1.1989839935e+02   -2.9518299103e+00
    1.1999738312e+02   -2.9655699730e+00
    1.2009808350e+02   -2.9795999527e+00
    1.2019773865e+02   -2.9935400486e+00
    1.2029847717e+02   -3.0076899529e+00
    1.2039740753e+02   -3.0216500759e+00
    1.2049803162e+02   -3.0359098911e+00
    1.2059742737e+02   -3.0500600338e+00
    1.2069798279e+02   -3.0644400120e+00
    1.2079718018e+02   -3.0786800385e+00
    1.2089823151e+02   -3.0932300091e+00
    1.2099719238e+02   -3.1075398922e+00
    1.2109765625e+02   -3.1221199036e+00
    1.2119815826e+02   -3.1367599964e+00
    1.2129705811e+02   -3.1512401104e+00
    1.2139801025e+02   -3.1660799980e+00
    1.2149819183e+02   -3.1808800697e+00
    1.2159750366e+02   -3.1956300735e+00
    1.2169822693e+02   -3.2106699944e+00
    1.2179718781e+02   -3.2255299091e+00
    1.2189714050e+02   -3.2406198978e+00
    1.2199787140e+02   -3.2558999062e+00
    1.2209808350e+02   -3.2711899281e+00
    1.2219827271e+02   -3.2865500450e+00
    1.2229856110e+02   -3.3020100594e+00
    1.2239752197e+02   -3.3173599243e+00
    1.2249797058e+02   -3.3330299854e+00
    1.2259732056e+02   -3.3486299515e+00
    1.2269754028e+02   -3.3644599915e+00
    1.2279802704e+02   -3.3804299831e+00
    1.2289845276e+02   -3.3964800835e+00
    1.2299719238e+02   -3.4123599529e+00
    1.2309793854e+02   -3.4286599159e+00
    1.2319763184e+02   -3.4448900223e+00
    1.2329828644e+02   -3.4613800049e+00
    1.2339723206e+02   -3.4777100086e+00
    1.2349777222e+02   -3.4944100380e+00
    1.2359832001e+02   -3.5112199783e+00
    1.2369721985e+02   -3.5278699398e+00
    1.2379785919e+02   -3.5449099541e+00
    1.2389851379e+02   -3.5620400906e+00
    1.2399751282e+02   -3.5789699554e+00
    1.2409815216e+02   -3.5962600708e+00
    1.2419718170e+02   -3.6133499146e+00
    1.2429795837e+02   -3.6308200359e+00
    1.2439791107e+02   -3.6482300758e+00
    1.2449751282e+02   -3.6656401157e+00
    1.2459761047e+02   -3.6832199097e+00
    1.2469860077e+02   -3.7010200024e+00
    1.2479763794e+02   -3.7185399532e+00
    1.2489837646e+02   -3.7364299297e+00
    1.2499784088e+02   -3.7541399002e+00
    1.2509841919e+02   -3.7721199989e+00
    1.2519795227e+02   -3.7899699211e+00
    1.2529863739e+02   -3.8080999851e+00
    1.2539840698e+02   -3.8261399269e+00
    1.2549758148e+02   -3.8441400528e+00
    1.2559835815e+02   -3.8625099659e+00
    1.2569743347e+02   -3.8806400299e+00
    1.2579795837e+02   -3.8991301060e+00
    1.2589849854e+02   -3.9176900387e+00
    1.2599730682e+02   -3.9360001087e+00
    1.2609815979e+02   -3.9547600746e+00
    1.2619728088e+02   -3.9732799530e+00
    1.2629692841e+02   -3.9919800758e+00
    1.2639739227e+02   -4.0109200478e+00
    1.2649748993e+02   -4.0298900604e+00
    1.2659832001e+02   -4.0490798950e+00
    1.2669731903e+02   -4.0680298805e+00
    1.2679792786e+02   -4.0873799324e+00
    1.2689849091e+02   -4.1068301201e+00
    1.2699733734e+02   -4.1260399818e+00
    1.2709779358e+02   -4.1456699371e+00
    1.2719818115e+02   -4.1654000282e+00
    1.2729853058e+02   -4.1852397919e+00
    1.2739724731e+02   -4.2048602104e+00
    1.2749758148e+02   -4.2249298096e+00
    1.2759700012e+02   -4.2449297905e+00
    1.2769730377e+02   -4.2652101517e+00
    1.2779781342e+02   -4.2856597900e+00
    1.2789823914e+02   -4.3061900139e+00
    1.2799846649e+02   -4.3267898560e+00
    1.2809695435e+02   -4.3471198082e+00
    1.2819735718e+02   -4.3679499626e+00
    1.2829838562e+02   -4.3890199661e+00
    1.2839834595e+02   -4.4099698067e+00
    1.2849844360e+02   -4.4310598373e+00
    1.2859716797e+02   -4.4519500732e+00
    1.2869725037e+02   -4.4732298851e+00
    1.2879832458e+02   -4.4948000908e+00
    1.2889860535e+02   -4.5163002014e+00
    1.2899740601e+02   -4.5375699997e+00
    1.2909783936e+02   -4.5592598915e+00
    1.2919859314e+02   -4.5810999870e+00
    1.2929730225e+02   -4.6025900841e+00
    1.2939770508e+02   -4.6245298386e+00
    1.2949868774e+02   -4.6466798782e+00
    1.2959751892e+02   -4.6684398651e+00
    1.2969787598e+02   -4.6906299591e+00
    1.2979809570e+02   -4.7128601074e+00
    1.2989840698e+02   -4.7351999283e+00
    1.2999867249e+02   -4.7575898170e+00
    1.3009730530e+02   -4.7797098160e+00
    1.3019839478e+02   -4.8024401665e+00
    1.3029724121e+02   -4.8247399330e+00
    1.3039744568e+02   -4.8474397659e+00
    1.3049769592e+02   -4.8702201843e+00
    1.3059817505e+02   -4.8931198120e+00
    1.3069857788e+02   -4.9161000252e+00
    1.3079743958e+02   -4.9387898445e+00
    1.3089842224e+02   -4.9620399475e+00
    1.3099862671e+02   -4.9851899147e+00
    1.3109870911e+02   -5.0083899498e+00
    1.3119718933e+02   -5.0312900543e+00
    1.3129754639e+02   -5.0547199249e+00
    1.3139839172e+02   -5.0783600807e+00
    1.3149821472e+02   -5.1018500328e+00
    1.3159819031e+02   -5.1254801750e+00
    1.3169831848e+02   -5.1492500305e+00
    1.3179718018e+02   -5.1728200912e+00
    1.3189866638e+02   -5.1971302032e+00
    1.3199807739e+02   -5.2210497856e+00
    1.3209796143e+02   -5.2451801300e+00
    1.3219781494e+02   -5.2694201469e+00
    1.3229782104e+02   -5.2937998772e+00
    1.3239814758e+02   -5.3183798790e+00
    1.3249740601e+02   -5.3428101540e+00
    1.3259811401e+02   -5.3677201271e+00
    1.3269793701e+02   -5.3925299644e+00
    1.3279815674e+02   -5.4175701141e+00
    1.3289840698e+02   -5.4427399635e+00
    1.3299867249e+02   -5.4680299759e+00
    1.3309739685e+02   -5.4930701256e+00
    1.3319863892e+02   -5.5188798904e+00
    1.3329887390e+02   -5.5445699692e+00
    1.3339753723e+02   -5.5700001717e+00
    1.3349780273e+02   -5.5959701538e+00
    1.3359806824e+02   -5.6220798492e+00
    1.3369839478e+02   -5.6483402252e+00
    1.3379867554e+02   -5.6747097969e+00
    1.3389851379e+02   -5.7010798454e+00
    1.3399891663e+02   -5.7277097702e+00
    1.3409765625e+02   -5.7540001869e+00
    1.3419812012e+02   -5.7808399200e+00
    1.3429856873e+02   -5.8077797890e+00
    1.3439782715e+02   -5.8344697952e+00
    1.3449870300e+02   -5.8617100716e+00
    1.3459771729e+02   -5.8885102272e+00
    1.3469856262e+02   -5.9159002304e+00
    1.3479890442e+02   -5.9432301521e+00
    1.3489761353e+02   -5.9701800346e+00
    1.3499873352e+02   -5.9978699684e+00
    1.3509901428e+02   -6.0254001617e+00
    1.3519869995e+02   -6.0528497696e+00
    1.3529754639e+02   -6.0801501274e+00
    1.3539869690e+02   -6.1081700325e+00
    1.3549760437e+02   -6.1356601715e+00
    1.3559799194e+02   -6.1636500359e+00
    1.3569842529e+02   -6.1917400360e+00
    1.3579827881e+02   -6.2197699547e+00
    1.3589862061e+02   -6.2480301857e+00
    1.3599896240e+02   -6.2763700485e+00
    1.3609774780e+02   -6.3043799400e+00
    1.3619810486e+02   -6.3329200745e+00
    1.3629826355e+02   -6.3615098000e+00
    1.3639825439e+02   -6.3901500702e+00
    1.3649757385e+02   -6.4187102318e+00
    1.3659808350e+02   -6.4477300644e+00
    1.3669847107e+02   -6.4768300056e+00
    1.3679878235e+02   -6.5060400963e+00
    1.3689747620e+02   -6.5348901749e+00
    1.3699780273e+02   -6.5643401146e+00
    1.3709785461e+02   -6.5938401222e+00
    1.3719793701e+02   -6.6234998703e+00
    1.3729806519e+02   -6.6532998085e+00
    1.3739796448e+02   -6.6831698418e+00
    1.3749807739e+02   -6.7132401466e+00
    1.3759907532e+02   -6.7437300682e+00
    1.3769883728e+02   -6.7739801407e+00
    1.3779774475e+02   -6.8041000366e+00
    1.3789756775e+02   -6.8346199989e+00
    1.3799891663e+02   -6.8657398224e+00
    1.3809855652e+02   -6.8964600563e+00
    1.3819862366e+02   -6.9274301529e+00
    1.3829768372e+02   -6.9582200050e+00
    1.3839877319e+02   -6.9897599220e+00
    1.3849853516e+02   -7.0210099220e+00
    1.3859878540e+02   -7.0525398254e+00
    1.3869836426e+02   -7.0839600563e+00
    1.3879866028e+02   -7.1157197952e+00
    1.3889797974e+02   -7.1472702026e+00
    1.3899824524e+02   -7.1792302132e+00
    1.3909844971e+02   -7.2112698555e+00
    1.3919772339e+02   -7.2431201935e+00
    1.3929809570e+02   -7.2754101753e+00
    1.3939799500e+02   -7.3076601028e+00
    1.3949855042e+02   -7.3402099609e+00
    1.3959912109e+02   -7.3728699684e+00
    1.3969908142e+02   -7.4054198265e+00
    1.3979875183e+02   -7.4379801750e+00
    1.3989852905e+02   -7.4706602097e+00
    1.3999824524e+02   -7.5033998489e+00
    1.4009802246e+02   -7.5362401009e+00
    1.4019888306e+02   -7.5695300102e+00
    1.4029925537e+02   -7.6027398109e+00
    1.4039895630e+02   -7.6358098984e+00
    1.4049870300e+02   -7.6689801216e+00
    1.4059858704e+02   -7.7022800446e+00
    1.4069889832e+02   -7.7357997894e+00
    1.4079934692e+02   -7.7694501877e+00
    1.4089869690e+02   -7.8028202057e+00
    1.4099873352e+02   -7.8365101814e+00
    1.4109840393e+02   -7.8701701164e+00
    1.4119822693e+02   -7.9039697647e+00
    1.4129843140e+02   -7.9380102158e+00
    1.4139924622e+02   -7.9723701477e+00
    1.4149940491e+02   -8.0066003799e+00
    1.4159899902e+02   -8.0407695770e+00
    1.4169871521e+02   -8.0750904083e+00
    1.4179858398e+02   -8.1096000671e+00
    1.4189810181e+02   -8.1441097260e+00
    1.4199940491e+02   -8.1793699265e+00
    1.4209890747e+02   -8.2141199112e+00
    1.4219841003e+02   -8.2490100861e+00
    1.4229815674e+02   -8.2840995789e+00
    1.4239845276e+02   -8.3195104599e+00
    1.4249946594e+02   -8.3553199768e+00
    1.4259826660e+02   -8.3904695511e+00
    1.4269929504e+02   -8.4265499115e+00
    1.4279949951e+02   -8.4624900818e+00
    1.4289939880e+02   -8.4984502792e+00
    1.4299945068e+02   -8.5346202850e+00
    1.4309793091e+02   -8.5703697205e+00
    1.4319804382e+02   -8.6068601608e+00
    1.4329939270e+02   -8.6439599991e+00
    1.4339944458e+02   -8.6807403564e+00
    1.4349937439e+02   -8.7176198959e+00
    1.4359838867e+02   -8.7543096542e+00
    1.4369842529e+02   -8.7915296555e+00
    1.4379821777e+02   -8.8287897110e+00
    1.4389837646e+02   -8.8663196564e+00
    1.4399838257e+02   -8.9039096832e+00
    1.4409854126e+02   -8.9416704178e+00
    1.4419802856e+02   -8.9792804718e+00
    1.4429800415e+02   -9.0171804428e+00
    1.4439950562e+02   -9.0557403564e+00
    1.4449960327e+02   -9.0938701630e+00
    1.4459878540e+02   -9.1317300797e+00
    1.4469810486e+02   -9.1697196960e+00
    1.4479824829e+02   -9.2081003189e+00
    1.4489863586e+02   -9.2466697693e+00
    1.4499844360e+02   -9.2850799561e+00
    1.4509855652e+02   -9.3236904144e+00
    1.4519798279e+02   -9.3621196747e+00
    1.4529832458e+02   -9.4009895325e+00
    1.4539889526e+02   -9.4400196075e+00
    1.4549913025e+02   -9.4790296555e+00
    1.4559898376e+02   -9.5179796219e+00
    1.4569894409e+02   -9.5570697784e+00
    1.4579841614e+02   -9.5960702896e+00
    1.4589828491e+02   -9.6353101730e+00
    1.4599812317e+02   -9.6746501923e+00
    1.4609942627e+02   -9.7146596909e+00
    1.4619918823e+02   -9.7541704178e+00
    1.4629907227e+02   -9.7938299179e+00
    1.4639834595e+02   -9.8333702087e+00
    1.4649894714e+02   -9.8735399246e+00
    1.4659930420e+02   -9.9137496948e+00
    1.4669927979e+02   -9.9539299011e+00
    1.4679940796e+02   -9.9942998886e+00
    1.4689947510e+02   -1.0034799576e+01
    1.4699952698e+02   -1.0075400352e+01
    1.4709942627e+02   -1.0116100311e+01
    1.4719911194e+02   -1.0156900406e+01
    1.4729884338e+02   -1.0197799683e+01
    1.4739976501e+02   -1.0239399910e+01
    1.4749906921e+02   -1.0280500412e+01
    1.4759840393e+02   -1.0321700096e+01
    1.4769970703e+02   -1.0363900185e+01
    1.4779841614e+02   -1.0405200005e+01
    1.4789926147e+02   -1.0447400093e+01
    1.4799838257e+02   -1.0489199638e+01
    1.4809913635e+02   -1.0531700134e+01
    1.4819918823e+02   -1.0574099541e+01
    1.4829852295e+02   -1.0616299629e+01
    1.4839909363e+02   -1.0659099579e+01
    1.4849845886e+02   -1.0701600075e+01
    1.4859901428e+02   -1.0744700432e+01
    1.4869975281e+02   -1.0788000107e+01
    1.4879985046e+02   -1.0831100464e+01
    1.4889826965e+02   -1.0873700142e+01
    1.4899830627e+02   -1.0916999817e+01
    1.4909826660e+02   -1.0960399628e+01
    1.4919912720e+02   -1.1004400253e+01
    1.4929981995e+02   -1.1048299789e+01
    1.4939924622e+02   -1.1091799736e+01
    1.4949879456e+02   -1.1135499954e+01
    1.4959976196e+02   -1.1179900169e+01
    1.4969953918e+02   -1.1223799706e+01
    1.4979870605e+02   -1.1267600060e+01
    1.4989965820e+02   -1.1312299728e+01
    1.4999891663e+02   -1.1356300354e+01
    1.5009838867e+02   -1.1400400162e+01
    1.5019891357e+02   -1.1445099831e+01
    1.5029913330e+02   -1.1489800453e+01
    1.5039889526e+02   -1.1534299850e+01
    1.5049899292e+02   -1.1579099655e+01
    1.5059843445e+02   -1.1623600006e+01
    1.5069836426e+02   -1.1668399811e+01
    1.5079855347e+02   -1.1713399887e+01
    1.5089982605e+02   -1.1758999825e+01
    1.5099908447e+02   -1.1803799629e+01
    1.5109852600e+02   -1.1848799706e+01
    1.5119973755e+02   -1.1894599915e+01
    1.5129978943e+02   -1.1940099716e+01
    1.5139848328e+02   -1.1984999657e+01
    1.5149995422e+02   -1.2031299591e+01
    1.5159938049e+02   -1.2076800346e+01
    1.5169859314e+02   -1.2122300148e+01
    1.5179953003e+02   -1.2168800354e+01
    1.5189860535e+02   -1.2214500427e+01
    1.5199931335e+02   -1.2261099815e+01
    1.5209863281e+02   -1.2307200432e+01
    1.5219967651e+02   -1.2354299545e+01
    1.5229913330e+02   -1.2400699615e+01
    1.5239923096e+02   -1.2447600365e+01
    1.5249870300e+02   -1.2494299889e+01
    1.5259909058e+02   -1.2541500092e+01
    1.5269920349e+02   -1.2588800430e+01
    1.5279948425e+02   -1.2636300087e+01
    1.5289895630e+02   -1.2683600426e+01
    1.5299873352e+02   -1.2731200218e+01
    1.5309861755e+02   -1.2779000282e+01
    1.5320013428e+02   -1.2827699661e+01
    1.5329937744e+02   -1.2875499725e+01
    1.5339901733e+02   -1.2923700333e+01
    1.5349862671e+02   -1.2971899986e+01
    1.5359895325e+02   -1.3020700455e+01
    1.5369897461e+02   -1.3069499969e+01
    1.5379997253e+02   -1.3118800163e+01
    1.5389973450e+02   -1.3167699814e+01
    1.5399942017e+02   -1.3216699600e+01
    1.5409916687e+02   -1.3265899658e+01
    1.5419989014e+02   -1.3315600395e+01
    1.5429939270e+02   -1.3364800453e+01
    1.5439872742e+02   -1.3413999557e+01
    1.5450015259e+02   -1.3464300156e+01
    1.5459936523e+02   -1.3513600349e+01
    1.5469862366e+02   -1.3562999725e+01
    1.5479869080e+02   -1.3612899780e+01
    1.5489889526e+02   -1.3662899971e+01
    1.5499986267e+02   -1.3713399887e+01
    1.5510018921e+02   -1.3763699532e+01
    1.5519934082e+02   -1.3813400269e+01
    1.5529936218e+02   -1.3863599777e+01
    1.5539950562e+02   -1.3913999557e+01
    1.5549931335e+02   -1.3964300156e+01
    1.5559864807e+02   -1.4014499664e+01
    1.5569966125e+02   -1.4065500259e+01
    1.5579980469e+02   -1.4116299629e+01
    1.5589907837e+02   -1.4166600227e+01
    1.5599989319e+02   -1.4217900276e+01
    1.5609898376e+02   -1.4268400192e+01
    1.5619949341e+02   -1.4319700241e+01
    1.5629893494e+02   -1.4370499611e+01
    1.5640017700e+02   -1.4422400475e+01
    1.5650030518e+02   -1.4473799706e+01
    1.5659988403e+02   -1.4525099754e+01
    1.5669958496e+02   -1.4576600075e+01
    1.5679930115e+02   -1.4628100395e+01
    1.5689979553e+02   -1.4680299759e+01
    1.5699882507e+02   -1.4731800079e+01
    1.5709938049e+02   -1.4784199715e+01
    1.5719938660e+02   -1.4836600304e+01
    1.5729985046e+02   -1.4889300346e+01
    1.5740026855e+02   -1.4942199707e+01
    1.5749960327e+02   -1.4994600296e+01
    1.5759928894e+02   -1.5047400475e+01
    1.5770018005e+02   -1.5100999832e+01
    1.5779916382e+02   -1.5153699875e+01
    1.5789964294e+02   -1.5207300186e+01
    1.5800004578e+02   -1.5261099815e+01
    1.5810040283e+02   -1.5314999580e+01
    1.5820005798e+02   -1.5368599892e+01
    1.5829896545e+02   -1.5421899796e+01
    1.5839921570e+02   -1.5476200104e+01
    1.5849998474e+02   -1.5530799866e+01
    1.5859967041e+02   -1.5584899902e+01
    1.5870037842e+02   -1.5639699936e+01
    1.5879989624e+02   -1.5694000244e+01
    1.5889967346e+02   -1.5748600006e+01
    1.5899940491e+02   -1.5803199768e+01
    1.5909904480e+02   -1.5857899666e+01
    1.5919958496e+02   -1.5913200378e+01
    1.5929911804e+02   -1.5968000412e+01
    1.5939991760e+02   -1.6023700714e+01
    1.5949905396e+02   -1.6078500748e+01
    1.5959948730e+02   -1.6134099960e+01
    1.5969940186e+02   -1.6189599991e+01
    1.5980003357e+02   -1.6245500565e+01
    1.5989930725e+02   -1.6300699234e+01
    1.5999998474e+02   -1.6356800079e+01
    1.6010011292e+02   -1.6412599564e+01
    1.6019888306e+02   -1.6467800140e+01
    1.6029980469e+02   -1.6524200439e+01
    1.6040043640e+02   -1.6580600739e+01
    1.6049995422e+02   -1.6636299133e+01
    1.6059945679e+02   -1.6692199707e+01
    1.6070010376e+02   -1.6748699188e+01
    1.6079989624e+02   -1.6804800034e+01
    1.6090049744e+02   -1.6861400604e+01
    1.6100001526e+02   -1.6917600632e+01
    1.6109985352e+02   -1.6973899841e+01
    1.6119900513e+02   -1.7030000687e+01
    1.6130030823e+02   -1.7087400436e+01
    1.6139974976e+02   -1.7143899918e+01
    1.6149926758e+02   -1.7200500488e+01
    1.6159988403e+02   -1.7257799149e+01
    1.6170040894e+02   -1.7315200806e+01
    1.6179924011e+02   -1.7371700287e+01
    1.6189978027e+02   -1.7429399490e+01
    1.6199972534e+02   -1.7486799240e+01
    1.6209907532e+02   -1.7544099808e+01
    1.6220005798e+02   -1.7602399826e+01
    1.6229914856e+02   -1.7659700394e+01
    1.6240036011e+02   -1.7718399048e+01
    1.6249923706e+02   -1.7775800705e+01
    1.6259989929e+02   -1.7834400177e+01
    1.6269950867e+02   -1.7892599106e+01
    1.6279928589e+02   -1.7951000214e+01
    1.6290002441e+02   -1.8010099411e+01
    1.6299935913e+02   -1.8068500519e+01
    1.6310037231e+02   -1.8128099442e+01
    1.6319979858e+02   -1.8186899185e+01
    1.6330026245e+02   -1.8246500015e+01
    1.6339941406e+02   -1.8305500031e+01
    1.6350062561e+02   -1.8365800858e+01
    1.6359965515e+02   -1.8424900055e+01
    1.6370031738e+02   -1.8485200882e+01
    1.6379924011e+02   -1.8544500351e+01
    1.6389910889e+02   -1.8604600906e+01
    1.6400036621e+02   -1.8665599823e+01
    1.6409971619e+02   -1.8725500107e+01
    1.6419929504e+02   -1.8785699844e+01
    1.6430053711e+02   -1.8847000122e+01
    1.6439923096e+02   -1.8906900406e+01
    1.6449960327e+02   -1.8967800140e+01
    1.6460072327e+02   -1.9029199600e+01
    1.6469943237e+02   -1.9089199066e+01
    1.6479927063e+02   -1.9150100708e+01
    1.6490065002e+02   -1.9211900711e+01
    1.6500033569e+02   -1.9272699356e+01
    1.6509953308e+02   -1.9333299637e+01
    1.6520048523e+02   -1.9395099640e+01
    1.6529978943e+02   -1.9455999374e+01
    1.6539950562e+02   -1.9517099380e+01
    1.6550042725e+02   -1.9579099655e+01
    1.6559939575e+02   -1.9639900208e+01
    1.6570001221e+02   -1.9701900482e+01
    1.6580070496e+02   -1.9763900757e+01
    1.6590083313e+02   -1.9825700760e+01
    1.6599975586e+02   -1.9886800766e+01
    1.6610025024e+02   -1.9948999405e+01
    1.6620011902e+02   -2.0010900497e+01
    1.6630036926e+02   -2.0073099136e+01
    1.6639933777e+02   -2.0134599686e+01
    1.6650041199e+02   -2.0197399139e+01
    1.6659968567e+02   -2.0259300232e+01
    1.6670066833e+02   -2.0322399139e+01
    1.6679992676e+02   -2.0384399414e+01
    1.6689953613e+02   -2.0446899414e+01
    1.6699974060e+02   -2.0509799957e+01
    1.6709938049e+02   -2.0572599411e+01
    1.6719966125e+02   -2.0635799408e+01
    1.6729985046e+02   -2.0699199677e+01
    1.6740003967e+02   -2.0762800217e+01
    1.6750053406e+02   -2.0826599121e+01
    1.6760096741e+02   -2.0890600204e+01
    1.6769992065e+02   -2.0953800201e+01
    1.6780101013e+02   -2.1018499374e+01
    1.6789971924e+02   -2.1081800461e+01
    1.6800006104e+02   -2.1146299362e+01
    1.6809945679e+02   -2.1210300446e+01
    1.6819952393e+02   -2.1274900436e+01
    1.6829986572e+02   -2.1339799881e+01
    1.6840026855e+02   -2.1404800415e+01
    1.6849960327e+02   -2.1469299316e+01
    1.6860047913e+02   -2.1534799576e+01
    1.6869975281e+02   -2.1599500656e+01
    1.6880039978e+02   -2.1665100098e+01
    1.6889967346e+02   -2.1729999542e+01
    1.6900054932e+02   -2.1795999527e+01
    1.6909971619e+02   -2.1861099243e+01
    1.6919961548e+02   -2.1926700592e+01
    1.6930058289e+02   -2.1993099213e+01
    1.6939970398e+02   -2.2058300018e+01
    1.6950042725e+02   -2.2124799728e+01
    1.6959986877e+02   -2.2190399170e+01
    1.6969992065e+02   -2.2256599426e+01
    1.6980070496e+02   -2.2323299408e+01
    1.6989967346e+02   -2.2388900757e+01
    1.7000035095e+02   -2.2455600739e+01
    1.7010105896e+02   -2.2522499084e+01
    1.7019952393e+02   -2.2587900162e+01
    1.7030058289e+02   -2.2655099869e+01
    1.7040028381e+02   -2.2721399307e+01
    1.7049955750e+02   -2.2787500381e+01
    1.7059980774e+02   -2.2854299545e+01
    1.7070106506e+02   -2.2921800613e+01
    1.7080041504e+02   -2.2988100052e+01
    1.7089991760e+02   -2.3054500580e+01
    1.7100047302e+02   -2.3121799469e+01
    1.7110046387e+02   -2.3188699722e+01
    1.7119970703e+02   -2.3255199432e+01
    1.7130049133e+02   -2.3322799683e+01
    1.7140101624e+02   -2.3390399933e+01
    1.7149992371e+02   -2.3456899643e+01
    1.7160052490e+02   -2.3524599075e+01
    1.7170057678e+02   -2.3592100143e+01
    1.7180087280e+02   -2.3659799576e+01
    1.7190121460e+02   -2.3727699280e+01
    1.7200007629e+02   -2.3794599533e+01
    1.7210067749e+02   -2.3862899780e+01
    1.7219967651e+02   -2.3930200577e+01
    1.7230105591e+02   -2.3999200821e+01
    1.7240118408e+02   -2.4067399979e+01
    1.7250021362e+02   -2.4135000229e+01
    1.7260110474e+02   -2.4204099655e+01
    1.7270118713e+02   -2.4272600174e+01
    1.7280120850e+02   -2.4341299057e+01
    1.7289999390e+02   -2.4409299850e+01
    1.7300036621e+02   -2.4478500366e+01
    1.7310069275e+02   -2.4547899246e+01
    1.7320106506e+02   -2.4617399216e+01
    1.7330119324e+02   -2.4686899185e+01
    1.7339979553e+02   -2.4755599976e+01
    1.7350003052e+02   -2.4825500488e+01
    1.7360105896e+02   -2.4895999908e+01
    1.7370126343e+02   -2.4966199875e+01
    1.7379988098e+02   -2.5035299301e+01
    1.7390127563e+02   -2.5106599808e+01
    1.7400016785e+02   -2.5176200867e+01
    1.7410078430e+02   -2.5247100830e+01
    1.7419984436e+02   -2.5316999435e+01
    1.7430050659e+02   -2.5388099670e+01
    1.7440010071e+02   -2.5458599091e+01
    1.7450057983e+02   -2.5529800415e+01
    1.7460093689e+02   -2.5600900650e+01
    1.7470027161e+02   -2.5671400070e+01
    1.7480104065e+02   -2.5743000031e+01
    1.7490008545e+02   -2.5813400269e+01
    1.7500077820e+02   -2.5885099411e+01
    1.7510008240e+02   -2.5955900192e+01
    1.7520135498e+02   -2.6028099060e+01
    1.7530017090e+02   -2.6098600388e+01
    1.7540055847e+02   -2.6170400620e+01
    1.7550108337e+02   -2.6242300034e+01
    1.7560006714e+02   -2.6313100815e+01
    1.7570068359e+02   -2.6385200500e+01
    1.7580131531e+02   -2.6457399368e+01
    1.7590080261e+02   -2.6528699875e+01
    1.7600148010e+02   -2.6600999832e+01
    1.7610046387e+02   -2.6672199249e+01
    1.7620103455e+02   -2.6744499207e+01
    1.7630137634e+02   -2.6816799164e+01
    1.7640054321e+02   -2.6888200760e+01
    1.7650120544e+02   -2.6960800171e+01
    1.7660021973e+02   -2.7032300949e+01
    1.7670088196e+02   -2.7105100632e+01
    1.7680137634e+02   -2.7177799225e+01
    1.7690008545e+02   -2.7249399185e+01
    1.7700097656e+02   -2.7322599411e+01
    1.7710043335e+02   -2.7394899368e+01
    1.7720098877e+02   -2.7468099594e+01
    1.7730128479e+02   -2.7541299820e+01
    1.7740147400e+02   -2.7614500046e+01
    1.7750160217e+02   -2.7687799454e+01
    1.7760011292e+02   -2.7760000229e+01
    1.7770024109e+02   -2.7833499908e+01
    1.7780085754e+02   -2.7907499313e+01
    1.7790127563e+02   -2.7981500626e+01
    1.7800007629e+02   -2.8054399490e+01
    1.7810043335e+02   -2.8128599167e+01
    1.7819999695e+02   -2.8202299118e+01
    1.7830093384e+02   -2.8277200699e+01
    1.7840130615e+02   -2.8351699829e+01
    1.7850007629e+02   -2.8425199509e+01
    1.7860058594e+02   -2.8500000000e+01
    1.7870144653e+02   -2.8575300217e+01
    1.7880006409e+02   -2.8648899078e+01
    1.7890025330e+02   -2.8723899841e+01
    1.7900039673e+02   -2.8798900604e+01
    1.7910046387e+02   -2.8874000549e+01
    1.7920065308e+02   -2.8949399948e+01
    1.7930134583e+02   -2.9025199890e+01
    1.7940043640e+02   -2.9099800110e+01
    1.7950114441e+02   -2.9175800323e+01
    1.7960130310e+02   -2.9251499176e+01
    1.7970114136e+02   -2.9326999664e+01
    1.7980035400e+02   -2.9402099609e+01
    1.7990080261e+02   -2.9478300095e+01
    1.8000129700e+02   -2.9554500580e+01
    1.8010101318e+02   -2.9630199432e+01
    1.8020059204e+02   -2.9705799103e+01
    1.8030053711e+02   -2.9781799316e+01
    1.8040177917e+02   -2.9858800888e+01
    1.8050073242e+02   -2.9934099197e+01
    1.8060098267e+02   -3.0010400772e+01
    1.8070153809e+02   -3.0086999893e+01
    1.8080041504e+02   -3.0162300110e+01
    1.8090086365e+02   -3.0239000320e+01
    1.8100143433e+02   -3.0315700531e+01
    1.8110075378e+02   -3.0391599655e+01
    1.8120121765e+02   -3.0468399048e+01
    1.8130143738e+02   -3.0545000076e+01
    1.8140159607e+02   -3.0621700287e+01
    1.8150175476e+02   -3.0698499680e+01
    1.8160064697e+02   -3.0774299622e+01
    1.8170027161e+02   -3.0850700378e+01
    1.8180053711e+02   -3.0927700043e+01
    1.8190083313e+02   -3.1004800797e+01
    1.8200117493e+02   -3.1082000732e+01
    1.8210145569e+02   -3.1159299850e+01
    1.8220170593e+02   -3.1236600876e+01
    1.8230059814e+02   -3.1312900543e+01
    1.8240180969e+02   -3.1391000748e+01
    1.8250039673e+02   -3.1467300415e+01
    1.8260043335e+02   -3.1544700623e+01
    1.8270037842e+02   -3.1622100830e+01
    1.8280059814e+02   -3.1699899673e+01
    1.8290039062e+02   -3.1777500153e+01
    1.8300172424e+02   -3.1856399536e+01
    1.8310171509e+02   -3.1934499741e+01
    1.8320158386e+02   -3.2012500763e+01
    1.8330119324e+02   -3.2090499878e+01
    1.8340075684e+02   -3.2168598175e+01
    1.8350190735e+02   -3.2248100281e+01
    1.8360156250e+02   -3.2326599121e+01
    1.8370103455e+02   -3.2404998779e+01
    1.8380128479e+02   -3.2484199524e+01
    1.8390066528e+02   -3.2562801361e+01
    1.8400117493e+02   -3.2642398834e+01
    1.8410192871e+02   -3.2722400665e+01
    1.8420103455e+02   -3.2801101685e+01
    1.8430105591e+02   -3.2880699158e+01
    1.8440144348e+02   -3.2960601807e+01
    1.8450190735e+02   -3.3040699005e+01
    1.8460188293e+02   -3.3120498657e+01
    1.8470184326e+02   -3.3200298309e+01
    1.8480177307e+02   -3.3280200958e+01
    1.8490177917e+02   -3.3360198975e+01
    1.8500079346e+02   -3.3439601898e+01
    1.8510118103e+02   -3.3520099640e+01
    1.8520118713e+02   -3.3600299835e+01
    1.8530137634e+02   -3.3680801392e+01
    1.8540170288e+02   -3.3761501312e+01
    1.8550166321e+02   -3.3841899872e+01
    1.8560166931e+02   -3.3922401428e+01
    1.8570152283e+02   -3.4002799988e+01
    1.8580065918e+02   -3.4082698822e+01
    1.8590188599e+02   -3.4164398193e+01
    1.8600158691e+02   -3.4244800568e+01
    1.8610093689e+02   -3.4325000763e+01
    1.8620077515e+02   -3.4405601501e+01
    1.8630198669e+02   -3.4487300873e+01
    1.8640144348e+02   -3.4567699432e+01
    1.8650210571e+02   -3.4648998260e+01
    1.8660079956e+02   -3.4728801727e+01
    1.8670104980e+02   -3.4809898376e+01
    1.8680114746e+02   -3.4890899658e+01
    1.8690106201e+02   -3.4971801758e+01
    1.8700085449e+02   -3.5052700043e+01
    1.8710122681e+02   -3.5134201050e+01
    1.8720141602e+02   -3.5215599060e+01
    1.8730111694e+02   -3.5296600342e+01
    1.8740075684e+02   -3.5377700806e+01
    1.8750199890e+02   -3.5460201263e+01
    1.8760191345e+02   -3.5541599274e+01
    1.8770089722e+02   -3.5622398376e+01
    1.8780128479e+02   -3.5704399109e+01
    1.8790164185e+02   -3.5786399841e+01
    1.8800190735e+02   -3.5868499756e+01
    1.8810209656e+02   -3.5950599670e+01
    1.8820188904e+02   -3.6032501221e+01
    1.8830163574e+02   -3.6114398956e+01
    1.8840135193e+02   -3.6196300507e+01
    1.8850146484e+02   -3.6278701782e+01
    1.8860133362e+02   -3.6361000061e+01
    1.8870106506e+02   -3.6443199158e+01
    1.8880215454e+02   -3.6526798248e+01
    1.8890155029e+02   -3.6609001160e+01
    1.8900082397e+02   -3.6691299438e+01
    1.8910166931e+02   -3.6774898529e+01
    1.8920079041e+02   -3.6857299805e+01
    1.8930154419e+02   -3.6941200256e+01
    1.8940090942e+02   -3.7023998260e+01
    1.8950192261e+02   -3.7108200073e+01
    1.8960197449e+02   -3.7191799164e+01
    1.8970231628e+02   -3.7275798798e+01
    1.8980235291e+02   -3.7359600067e+01
    1.8990199280e+02   -3.7443099976e+01
    1.9000164795e+02   -3.7526699066e+01
    1.9010229492e+02   -3.7611301422e+01
    1.9020149231e+02   -3.7694698334e+01
    1.9030114746e+02   -3.7778499603e+01
    1.9040095520e+02   -3.7862499237e+01
    1.9050236511e+02   -3.7947898865e+01
    1.9060209656e+02   -3.8031898499e+01
    1.9070182800e+02   -3.8115898132e+01
    1.9080157471e+02   -3.8200000763e+01
    1.9090141296e+02   -3.8284301758e+01
    1.9100149536e+02   -3.8368801117e+01
    1.9110159302e+02   -3.8453300476e+01
    1.9120138550e+02   -3.8537700653e+01
    1.9130099487e+02   -3.8621898651e+01
    1.9140217590e+02   -3.8707401276e+01
    1.9150137329e+02   -3.8791301727e+01
    1.9160223389e+02   -3.8876598358e+01
    1.9170120239e+02   -3.8960399628e+01
    1.9180186462e+02   -3.9045600891e+01
    1.9190155029e+02   -3.9130001068e+01
    1.9200210571e+02   -3.9215198517e+01
    1.9210203552e+02   -3.9299900055e+01
    1.9220196533e+02   -3.9384601593e+01
    1.9230184937e+02   -3.9469200134e+01
    1.9240197754e+02   -3.9554100037e+01
    1.9250201416e+02   -3.9638900757e+01
    1.9260168457e+02   -3.9723400116e+01
    1.9270121765e+02   -3.9807899475e+01
    1.9280232239e+02   -3.9893699646e+01
    1.9290171814e+02   -3.9978199005e+01
    1.9300105286e+02   -4.0062698364e+01
    1.9310189819e+02   -4.0148601532e+01
    1.9320108032e+02   -4.0233200073e+01
    1.9330180359e+02   -4.0319198608e+01
    1.9340252686e+02   -4.0405300140e+01
    1.9350158691e+02   -4.0490001678e+01
    1.9360174561e+02   -4.0575801849e+01
    1.9370143127e+02   -4.0661300659e+01
    1.9380213928e+02   -4.0747699738e+01
    1.9390182495e+02   -4.0833400726e+01
    1.9400187683e+02   -4.0919399261e+01
    1.9410223389e+02   -4.1005901337e+01
    1.9420115662e+02   -4.1091098785e+01
    1.9430235291e+02   -4.1178398132e+01
    1.9440165710e+02   -4.1264099121e+01
[...]
    2.5130548096e+02   -7.5341003418e+01
    2.5140556335e+02   -7.5355300903e+01
    2.5150500488e+02   -7.5369499207e+01
    2.5160597229e+02   -7.5383796692e+01
    2.5170532227e+02   -7.5397697449e+01
    2.5180613708e+02   -7.5411697388e+01
    2.5190553284e+02   -7.5425399780e+01
    2.5200570679e+02   -7.5439102173e+01
    2.5210476685e+02   -7.5452499390e+01
    2.5220555115e+02   -7.5466003418e+01
    2.5230470276e+02   -7.5479202271e+01
    2.5240509033e+02   -7.5492401123e+01
    2.5250524902e+02   -7.5505500793e+01
    2.5260606384e+02   -7.5518402100e+01
    2.5270576477e+02   -7.5531097412e+01
    2.5280520630e+02   -7.5543701172e+01
    2.5290475464e+02   -7.5555999756e+01
    2.5300595093e+02   -7.5568496704e+01
    2.5310609436e+02   -7.5580596924e+01
    2.5320559692e+02   -7.5592399597e+01
    2.5330505371e+02   -7.5603996277e+01
    2.5340594482e+02   -7.5615600586e+01
    2.5350544739e+02   -7.5626800537e+01
    2.5360604858e+02   -7.5637901306e+01
    2.5370535278e+02   -7.5648696899e+01
    2.5380526733e+02   -7.5659301758e+01
    2.5390547180e+02   -7.5669700623e+01
    2.5400564575e+02   -7.5679901123e+01
    2.5410580444e+02   -7.5689903259e+01
    2.5420594788e+02   -7.5699600220e+01
    2.5430604553e+02   -7.5709098816e+01
    2.5440631104e+02   -7.5718399048e+01
    2.5450515747e+02   -7.5727401733e+01
    2.5460601807e+02   -7.5736396790e+01
    2.5470509338e+02   -7.5745002747e+01
    2.5480586243e+02   -7.5753501892e+01
    2.5490501404e+02   -7.5761703491e+01
    2.5500595093e+02   -7.5769798279e+01
    2.5510525513e+02   -7.5777603149e+01
    2.5520550537e+02   -7.5785202026e+01
    2.5530529785e+02   -7.5792602539e+01
    2.5540565491e+02   -7.5799797058e+01
    2.5550486755e+02   -7.5806800842e+01
    2.5560517883e+02   -7.5813598633e+01
    2.5570542908e+02   -7.5820198059e+01
    2.5580558777e+02   -7.5826499939e+01
    2.5590563965e+02   -7.5832702637e+01
    2.5600558472e+02   -7.5838600159e+01
    2.5610534668e+02   -7.5844398499e+01
    2.5620498657e+02   -7.5849899292e+01
    2.5630621338e+02   -7.5855300903e+01
    2.5640496826e+02   -7.5860496521e+01
    2.5650531006e+02   -7.5865501404e+01
    2.5660574341e+02   -7.5870399475e+01
    2.5670626831e+02   -7.5875099182e+01
    2.5680499268e+02   -7.5879699707e+01
    2.5690524292e+02   -7.5884101868e+01
    2.5700595093e+02   -7.5888397217e+01
    2.5710598755e+02   -7.5892601013e+01
    2.5720565796e+02   -7.5896598816e+01
    2.5730535889e+02   -7.5900398254e+01
    2.5740637207e+02   -7.5904197693e+01
    2.5750570679e+02   -7.5907699585e+01
    2.5760626221e+02   -7.5911102295e+01
    2.5770608521e+02   -7.5914299011e+01
    2.5780584717e+02   -7.5917297363e+01
    2.5790557861e+02   -7.5920097351e+01
    2.5800524902e+02   -7.5922698975e+01
    2.5810641479e+02   -7.5925201416e+01
    2.5820599365e+02   -7.5927398682e+01
    2.5830551147e+02   -7.5929397583e+01
    2.5840499878e+02   -7.5931198120e+01
    2.5850607300e+02   -7.5932899475e+01
    2.5860537720e+02   -7.5934303284e+01
    2.5870535278e+02   -7.5935501099e+01
    2.5880538940e+02   -7.5936599731e+01
    2.5890646362e+02   -7.5937400818e+01
    2.5900610352e+02   -7.5938003540e+01
    2.5910583496e+02   -7.5938499451e+01
    2.5920565796e+02   -7.5938697815e+01
    2.5930551147e+02   -7.5938697815e+01
    2.5940530396e+02   -7.5938400269e+01
    2.5950650024e+02   -7.5938003540e+01
    2.5960607910e+02   -7.5937301636e+01
    2.5970584106e+02   -7.5936302185e+01
    2.5980657959e+02   -7.5935096741e+01
    2.5990573120e+02   -7.5933700562e+01
    2.6000640869e+02   -7.5931900024e+01
    2.6010549927e+02   -7.5930000305e+01
    2.6020614624e+02   -7.5927696228e+01
    2.6030517578e+02   -7.5925300598e+01
    2.6040570068e+02   -7.5922599792e+01
    2.6050610352e+02   -7.5919601440e+01
    2.6060641479e+02   -7.5916397095e+01
    2.6070513916e+02   -7.5913002014e+01
    2.6080636597e+02   -7.5909301758e+01
    2.6090652466e+02   -7.5905502319e+01
    2.6100588989e+02   -7.5901397705e+01
    2.6110534668e+02   -7.5897102356e+01
    2.6120532227e+02   -7.5892601013e+01
    2.6130514526e+02   -7.5887901306e+01
    2.6140655518e+02   -7.5882896423e+01
    2.6150625610e+02   -7.5877799988e+01
    2.6160571289e+02   -7.5872497559e+01
    2.6170529175e+02   -7.5866897583e+01
    2.6180612183e+02   -7.5861000061e+01
    2.6190530396e+02   -7.5855003357e+01
    2.6200595093e+02   -7.5848701477e+01
    2.6210650635e+02   -7.5842102051e+01
    2.6220538330e+02   -7.5835403442e+01
    2.6230569458e+02   -7.5828498840e+01
    2.6240591431e+02   -7.5821296692e+01
    2.6250598145e+02   -7.5814002991e+01
    2.6260543823e+02   -7.5806503296e+01
    2.6270596313e+02   -7.5798797607e+01
    2.6280545044e+02   -7.5791000366e+01
    2.6290551758e+02   -7.5782997131e+01
    2.6300650024e+02   -7.5774696350e+01
    2.6310595703e+02   -7.5766403198e+01
    2.6320639038e+02   -7.5757896423e+01
    2.6330584717e+02   -7.5749198914e+01
    2.6340530396e+02   -7.5740501404e+01
    2.6350607300e+02   -7.5731399536e+01
    2.6360549927e+02   -7.5722297668e+01
    2.6370584106e+02   -7.5712898254e+01
    2.6380624390e+02   -7.5703399658e+01
    2.6390667725e+02   -7.5693603516e+01
    2.6400558472e+02   -7.5683799744e+01
    2.6410604858e+02   -7.5673698425e+01
    2.6420651245e+02   -7.5663299561e+01
    2.6430538940e+02   -7.5652900696e+01
    2.6440585327e+02   -7.5642196655e+01
    2.6450631714e+02   -7.5631301880e+01
    2.6460665894e+02   -7.5620201111e+01
    2.6470547485e+02   -7.5609001160e+01
    2.6480563354e+02   -7.5597602844e+01
    2.6490655518e+02   -7.5585800171e+01
    2.6500588989e+02   -7.5574096680e+01
    2.6510568237e+02   -7.5562103271e+01
    2.6520584106e+02   -7.5549797058e+01
    2.6530612183e+02   -7.5537399292e+01
    2.6540646362e+02   -7.5524696350e+01
    2.6550677490e+02   -7.5511802673e+01
    2.6560693359e+02   -7.5498802185e+01
    2.6570556641e+02   -7.5485702515e+01
    2.6580688477e+02   -7.5472000122e+01
    2.6590670776e+02   -7.5458198547e+01
    2.6600659180e+02   -7.5444198608e+01
    2.6610644531e+02   -7.5429901123e+01
    2.6620629883e+02   -7.5415397644e+01
    2.6630606079e+02   -7.5400596619e+01
    2.6640576172e+02   -7.5385597229e+01
    2.6650622559e+02   -7.5370201111e+01
    2.6660610962e+02   -7.5354598999e+01
    2.6670596313e+02   -7.5338798523e+01
    2.6680572510e+02   -7.5322700500e+01
    2.6690557861e+02   -7.5306396484e+01
    2.6700570679e+02   -7.5289802551e+01
    2.6710577393e+02   -7.5273002625e+01
    2.6720642090e+02   -7.5255798340e+01
    2.6730694580e+02   -7.5238403320e+01
    2.6740579224e+02   -7.5221099854e+01
    2.6750619507e+02   -7.5203300476e+01
    2.6760653687e+02   -7.5185203552e+01
    2.6770666504e+02   -7.5166999817e+01
    2.6780706787e+02   -7.5148399353e+01
    2.6790673828e+02   -7.5129798889e+01
    2.6800640869e+02   -7.5110900879e+01
    2.6810607910e+02   -7.5091697693e+01
    2.6820571899e+02   -7.5072402954e+01
    2.6830685425e+02   -7.5052497864e+01
    2.6840625000e+02   -7.5032699585e+01
    2.6850714111e+02   -7.5012496948e+01
    2.6860632324e+02   -7.4992401123e+01
    2.6870703125e+02   -7.4971702576e+01
    2.6880630493e+02   -7.4951202393e+01
    2.6890652466e+02   -7.4930297852e+01
    2.6900588989e+02   -7.4909400940e+01
    2.6910681152e+02   -7.4888099670e+01
    2.6920669556e+02   -7.4866798401e+01
    2.6930697632e+02   -7.4845199585e+01
    2.6940560913e+02   -7.4823799133e+01
    2.6950576782e+02   -7.4802001953e+01
    2.6960568237e+02   -7.4779998779e+01
    2.6970681763e+02   -7.4757598877e+01
    2.6980648804e+02   -7.4735198975e+01
    2.6990628052e+02   -7.4712699890e+01
    2.7000576782e+02   -7.4690002441e+01
    2.7010620117e+02   -7.4666900635e+01
    2.7020629883e+02   -7.4643699646e+01
    2.7030630493e+02   -7.4620201111e+01
    2.7040628052e+02   -7.4596496582e+01
    2.7050619507e+02   -7.4572601318e+01
    2.7060601807e+02   -7.4548500061e+01
    2.7070578003e+02   -7.4524200439e+01
    2.7080706787e+02   -7.4499298096e+01
    2.7090676880e+02   -7.4474502563e+01
    2.7100698853e+02   -7.4449302673e+01
    2.7110592651e+02   -7.4424301147e+01
    2.7120596313e+02   -7.4398696899e+01
    2.7130661011e+02   -7.4372703552e+01
    2.7140722656e+02   -7.4346496582e+01
    2.7150613403e+02   -7.4320602417e+01
    2.7160626221e+02   -7.4293998718e+01
    2.7170651245e+02   -7.4267097473e+01
    2.7180718994e+02   -7.4239799500e+01
    2.7190618896e+02   -7.4212699890e+01
    2.7200680542e+02   -7.4184799194e+01
    2.7210690308e+02   -7.4156799316e+01
    2.7220623779e+02   -7.4128601074e+01
    2.7230722046e+02   -7.4099700928e+01
    2.7240655518e+02   -7.4070899963e+01
    2.7250738525e+02   -7.4041397095e+01
    2.7260650635e+02   -7.4012001038e+01
    2.7270712280e+02   -7.3981903076e+01
    2.7280599976e+02   -7.3952003479e+01
    2.7290640259e+02   -7.3921401978e+01
    2.7300668335e+02   -7.3890403748e+01
    2.7310690308e+02   -7.3859298706e+01
    2.7320675659e+02   -7.3827903748e+01
    2.7330718994e+02   -7.3796096802e+01
    2.7340585327e+02   -7.3764602661e+01
    2.7350604248e+02   -7.3732299805e+01
    2.7360620117e+02   -7.3699798584e+01
    2.7370629883e+02   -7.3666999817e+01
    2.7380636597e+02   -7.3633903503e+01
    2.7390695190e+02   -7.3600402832e+01
    2.7400598145e+02   -7.3567100525e+01
    2.7410662842e+02   -7.3533096313e+01
    2.7420721436e+02   -7.3498703003e+01
    2.7430615234e+02   -7.3464599609e+01
    2.7440667725e+02   -7.3429801941e+01
    2.7450717163e+02   -7.3394699097e+01
    2.7460595703e+02   -7.3359901428e+01
    2.7470620728e+02   -7.3324302673e+01
    2.7480636597e+02   -7.3288597107e+01
    2.7490643311e+02   -7.3252601624e+01
    2.7500640869e+02   -7.3216400146e+01
    2.7510632324e+02   -7.3180000305e+01
    2.7520620728e+02   -7.3143501282e+01
    2.7530734253e+02   -7.3106201172e+01
    2.7540643311e+02   -7.3069503784e+01
    2.7550708008e+02   -7.3031898499e+01
    2.7560610962e+02   -7.2994796753e+01
    2.7570645142e+02   -7.2956901550e+01
    2.7580645752e+02   -7.2918899536e+01
    2.7590649414e+02   -7.2880599976e+01
    2.7600671387e+02   -7.2842002869e+01
    2.7610736084e+02   -7.2802902222e+01
    2.7620748901e+02   -7.2763702393e+01
    2.7630679321e+02   -7.2724601746e+01
    2.7640612793e+02   -7.2685203552e+01
    2.7650708008e+02   -7.2644798279e+01
    2.7660644531e+02   -7.2604698181e+01
    2.7670742798e+02   -7.2563697815e+01
    2.7680679321e+02   -7.2523002625e+01
    2.7690615845e+02   -7.2482002258e+01
    2.7700708008e+02   -7.2440002441e+01
    2.7710641479e+02   -7.2398498535e+01
    2.7720739746e+02   -7.2355903625e+01
    2.7730606079e+02   -7.2314002991e+01
    2.7740673828e+02   -7.2270896912e+01
    2.7750634766e+02   -7.2227996826e+01
    2.7760760498e+02   -7.2184097290e+01
    2.7770727539e+02   -7.2140502930e+01
    2.7780697632e+02   -7.2096603394e+01
    2.7790664673e+02   -7.2052299500e+01
    2.7800753784e+02   -7.2007202148e+01
    2.7810671997e+02   -7.1962501526e+01
    2.7820748901e+02   -7.1916603088e+01
    2.7830654907e+02   -7.1871200562e+01
    2.7840679932e+02   -7.1824996948e+01
    2.7850698853e+02   -7.1778297424e+01
    2.7860711670e+02   -7.1731399536e+01
    2.7870718384e+02   -7.1684097290e+01
    2.7880718994e+02   -7.1636497498e+01
    2.7890713501e+02   -7.1588600159e+01
    2.7900692749e+02   -7.1540496826e+01
    2.7910662842e+02   -7.1492103577e+01
    2.7920626831e+02   -7.1443496704e+01
    2.7930740356e+02   -7.1393798828e+01
    2.7940686035e+02   -7.1344703674e+01
    2.7950668335e+02   -7.1295097351e+01
    2.7960632324e+02   -7.1245300293e+01
    2.7970764160e+02   -7.1194396973e+01
    2.7980725098e+02   -7.1144096375e+01
    2.7990673828e+02   -7.1093498230e+01
    2.8000778198e+02   -7.1041900635e+01
    2.8010717773e+02   -7.0990798950e+01
    2.8020651245e+02   -7.0939498901e+01
    2.8030755615e+02   -7.0886901855e+01
    2.8040768433e+02   -7.0834602356e+01
    2.8050738525e+02   -7.0782203674e+01
    2.8060699463e+02   -7.0729499817e+01
    2.8070639038e+02   -7.0676696777e+01
    2.8080725098e+02   -7.0622802734e+01
    2.8090640259e+02   -7.0569602966e+01
    2.8100704956e+02   -7.0515296936e+01
    2.8110763550e+02   -7.0460800171e+01
    2.8120654297e+02   -7.0406898499e+01
    2.8130697632e+02   -7.0351997375e+01
    2.8140783691e+02   -7.0296600342e+01
    2.8150747681e+02   -7.0241600037e+01
    2.8160708618e+02   -7.0186401367e+01
    2.8170669556e+02   -7.0130996704e+01
    2.8180633545e+02   -7.0075302124e+01
    2.8190771484e+02   -7.0018302917e+01
    2.8200744629e+02   -6.9961997986e+01
    2.8210717773e+02   -6.9905502319e+01
    2.8220690918e+02   -6.9848602295e+01
    2.8230654907e+02   -6.9791603088e+01
    2.8240698242e+02   -6.9733802795e+01
    2.8250729370e+02   -6.9675697327e+01
    2.8260760498e+02   -6.9617401123e+01
    2.8270794678e+02   -6.9558700562e+01
    2.8280661011e+02   -6.9500801086e+01
    2.8290682983e+02   -6.9441703796e+01
    2.8300695801e+02   -6.9382301331e+01
    2.8310702515e+02   -6.9322799683e+01
    2.8320706177e+02   -6.9263000488e+01
    2.8330722046e+02   -6.9202796936e+01
    2.8340652466e+02   -6.9142898560e+01
    2.8350738525e+02   -6.9081802368e+01
    2.8360653687e+02   -6.9021499634e+01
    2.8370748901e+02   -6.8959800720e+01
    2.8380703735e+02   -6.8898696899e+01
    2.8390747070e+02   -6.8836700439e+01
    2.8400787354e+02   -6.8774497986e+01
    2.8410653687e+02   -6.8713096619e+01
    2.8420681763e+02   -6.8650299072e+01
    2.8430703735e+02   -6.8587303162e+01
    2.8440795898e+02   -6.8523597717e+01
    2.8450729370e+02   -6.8460601807e+01
    2.8460659790e+02   -6.8397300720e+01
    2.8470745850e+02   -6.8332702637e+01
    2.8480654907e+02   -6.8268997192e+01
    2.8490716553e+02   -6.8204002380e+01
    2.8500765991e+02   -6.8138900757e+01
    2.8510803223e+02   -6.8073600769e+01
    2.8520660400e+02   -6.8009300232e+01
    2.8530667114e+02   -6.7943702698e+01
    2.8540817261e+02   -6.7876998901e+01
    2.8550711060e+02   -6.7811798096e+01
    2.8560745239e+02   -6.7745399475e+01
    2.8570748901e+02   -6.7679000854e+01
    2.8580804443e+02   -6.7612098694e+01
    2.8590698242e+02   -6.7545997620e+01
    2.8600778198e+02   -6.7478500366e+01
    2.8610791016e+02   -6.7411201477e+01
    2.8620800781e+02   -6.7343696594e+01
    2.8630804443e+02   -6.7276000977e+01
    2.8640802002e+02   -6.7208198547e+01
    2.8650738525e+02   -6.7140502930e+01
    2.8660745239e+02   -6.7072097778e+01
    2.8670742798e+02   -6.7003601074e+01
    2.8680737305e+02   -6.6934898376e+01
    2.8690719604e+02   -6.6866096497e+01
    2.8700689697e+02   -6.6797203064e+01
    2.8710812378e+02   -6.6727096558e+01
    2.8720764160e+02   -6.6657997131e+01
    2.8730712891e+02   -6.6588798523e+01
    2.8740823364e+02   -6.6518203735e+01
    2.8750814819e+02   -6.6448402405e+01
    2.8760690308e+02   -6.6379203796e+01
    2.8770733643e+02   -6.6308700562e+01
    2.8780789185e+02   -6.6237998962e+01
    2.8790676880e+02   -6.6168296814e+01
    2.8800814819e+02   -6.6096603394e+01
    2.8810723877e+02   -6.6026397705e+01
    2.8820794678e+02   -6.5954803467e+01
    2.8830789185e+02   -6.5883598328e+01
    2.8840673828e+02   -6.5813003540e+01
    2.8850827026e+02   -6.5740303040e+01
    2.8860733032e+02   -6.5669097900e+01
    2.8870803833e+02   -6.5596603394e+01
    2.8880712891e+02   -6.5525001526e+01
    2.8890786743e+02   -6.5452003479e+01
    2.8900695801e+02   -6.5379997253e+01
    2.8910763550e+02   -6.5306701660e+01
    2.8920828247e+02   -6.5233200073e+01
    2.8930725098e+02   -6.5160697937e+01
    2.8940780640e+02   -6.5086997986e+01
    2.8950836182e+02   -6.5013000488e+01
    2.8960733032e+02   -6.4940101624e+01
    2.8970837402e+02   -6.4865402222e+01
    2.8980752563e+02   -6.4791999817e+01
    2.8990820312e+02   -6.4717300415e+01
    2.9000750732e+02   -6.4643402100e+01
    2.9010842896e+02   -6.4568000793e+01
    2.9020767212e+02   -6.4493797302e+01
    2.9030685425e+02   -6.4419403076e+01
    2.9040765381e+02   -6.4343597412e+01
    2.9050735474e+02   -6.4268402100e+01
    2.9060848999e+02   -6.4192001343e+01
    2.9070785522e+02   -6.4116699219e+01
    2.9080706787e+02   -6.4041297913e+01
    2.9090774536e+02   -6.3964698792e+01
    2.9100830078e+02   -6.3888000488e+01
    2.9110702515e+02   -6.3812599182e+01
    2.9120724487e+02   -6.3735900879e+01
    2.9130725098e+02   -6.3659301758e+01
    2.9140713501e+02   -6.3582599640e+01
    2.9150851440e+02   -6.3504798889e+01
    2.9160806274e+02   -6.3428298950e+01
    2.9170712280e+02   -6.3352001190e+01
    2.9180786133e+02   -6.3274398804e+01
    2.9190856934e+02   -6.3196800232e+01
    2.9200750732e+02   -6.3120399475e+01
    2.9210809326e+02   -6.3042598724e+01
    2.9220715332e+02   -6.2965900421e+01
    2.9230789185e+02   -6.2887901306e+01
    2.9240832520e+02   -6.2810001373e+01
    2.9250735474e+02   -6.2733100891e+01
    2.9260784912e+02   -6.2654899597e+01
    2.9270825195e+02   -6.2576801300e+01
    2.9280862427e+02   -6.2498600006e+01
    2.9290728760e+02   -6.2421699524e+01
    2.9300747681e+02   -6.2343498230e+01
    2.9310754395e+02   -6.2265399933e+01
    2.9320748901e+02   -6.2187301636e+01
    2.9330740356e+02   -6.2109100342e+01
    2.9340728760e+02   -6.2030998230e+01
    2.9350720215e+02   -6.1952800751e+01
    2.9360757446e+02   -6.1874099731e+01
    2.9370809937e+02   -6.1795299530e+01
    2.9380786133e+02   -6.1716999054e+01
    2.9390768433e+02   -6.1638599396e+01
    2.9400762939e+02   -6.1560001373e+01
    2.9410775757e+02   -6.1481201172e+01
    2.9420758057e+02   -6.1402400970e+01
    2.9430740356e+02   -6.1323600769e+01
    2.9440719604e+02   -6.1244598389e+01
    2.9450872803e+02   -6.1164100647e+01
    2.9460760498e+02   -6.1085601807e+01
    2.9470721436e+02   -6.1006401062e+01
    2.9480838013e+02   -6.0925701141e+01
    2.9490792847e+02   -6.0846298218e+01
    2.9500738525e+02   -6.0766700745e+01
    2.9510848999e+02   -6.0685699463e+01
    2.9520791626e+02   -6.0605899811e+01
    2.9530722046e+02   -6.0526000977e+01
    2.9540808105e+02   -6.0444801331e+01
    2.9550723267e+02   -6.0364898682e+01
    2.9560806274e+02   -6.0283500671e+01
    2.9570745850e+02   -6.0203098297e+01
    2.9580862427e+02   -6.0121299744e+01
    2.9590881348e+02   -6.0040000916e+01
    2.9600726318e+02   -5.9960098267e+01
    2.9610736084e+02   -5.9878700256e+01
    2.9620742798e+02   -5.9797199249e+01
    2.9630746460e+02   -5.9715499878e+01
    2.9640737915e+02   -5.9633899689e+01
    2.9650869751e+02   -5.9550998688e+01
    2.9660818481e+02   -5.9469501495e+01
    2.9670758057e+02   -5.9387901306e+01
    2.9680847168e+02   -5.9305000305e+01
    2.9690756226e+02   -5.9223499298e+01
    2.9700811768e+02   -5.9140701294e+01
    2.9710855103e+02   -5.9057899475e+01
    2.9720883179e+02   -5.8975299835e+01
    2.9730737305e+02   -5.8894001007e+01
    2.9740747070e+02   -5.8811401367e+01
    2.9750750732e+02   -5.8728801727e+01
    2.9760748291e+02   -5.8646301270e+01
    2.9770886230e+02   -5.8562500000e+01
    2.9780856323e+02   -5.8480098724e+01
    2.9790829468e+02   -5.8397701263e+01
    2.9800769043e+02   -5.8315498352e+01
    2.9810821533e+02   -5.8232398987e+01
    2.9820874023e+02   -5.8149200439e+01
    2.9830737305e+02   -5.8067501068e+01
    2.9840737915e+02   -5.7984600067e+01
    2.9850802612e+02   -5.7901199341e+01
    2.9860736084e+02   -5.7818801880e+01
    2.9870864868e+02   -5.7734798431e+01
    2.9880749512e+02   -5.7652698517e+01
    2.9890789795e+02   -5.7569301605e+01
    2.9900830078e+02   -5.7485801697e+01
    2.9910870361e+02   -5.7402301788e+01
    2.9920745850e+02   -5.7320098877e+01
    2.9930783081e+02   -5.7236499786e+01
    2.9940823364e+02   -5.7152900696e+01
    2.9950863647e+02   -5.7069198608e+01
    2.9960751343e+02   -5.6986698151e+01
    2.9970837402e+02   -5.6902599335e+01
    2.9980886841e+02   -5.6818599701e+01
    2.9990774536e+02   -5.6736000061e+01
endcurve
