Curveplot
LS-DYNA keyword deck by LS-PrePost
Abscissa
Ordinate
XY data
CHOP_NASX_mo-1 #pts=3000
* Minval=     0.0000000000e+00 at time=         0.0000000000
* Maxval=     5.6143997192e+01 at time=       176.3013763428
    0.0000000000e+00    0.0000000000e+00
    9.9464751780e-02    1.5549300006e-03
    1.9892950356e-01    3.1098600011e-03
    2.9839426279e-01    4.6648001298e-03
    3.9954483509e-01    6.2460801564e-03
    4.9942851067e-01    7.8075695783e-03
    5.9996843338e-01    9.3792965636e-03
    6.9903308153e-01    1.0927960277e-02
    7.9898971319e-01    1.2490570545e-02
    8.9870619774e-01    1.4049495570e-02
    9.9832719564e-01    1.5606814064e-02
    1.0987064838e+00    1.7176127061e-02
    1.1984105110e+00    1.8734734505e-02
    1.2990113497e+00    2.0307414234e-02
    1.3987237215e+00    2.1866139024e-02
    1.4983510971e+00    2.3423515260e-02
    1.5998450518e+00    2.5010125712e-02
    1.6997693777e+00    2.6572309434e-02
    1.7992914915e+00    2.8128463775e-02
    1.8987305164e+00    2.9683655128e-02
    1.9995558262e+00    3.1260486692e-02
    2.0989930630e+00    3.2815340906e-02
    2.1988964081e+00    3.4376833588e-02
    2.2983624935e+00    3.5930935293e-02
    2.3995113373e+00    3.7510696799e-02
    2.4991292953e+00    3.9066039026e-02
    2.5988953114e+00    4.0623549372e-02
    2.6990334988e+00    4.2187187821e-02
    2.7999768257e+00    4.3763928115e-02
    2.8986215591e+00    4.5305725187e-02
    2.9999651909e+00    4.6891007572e-02
    3.0982911587e+00    4.8430237919e-02
    3.1994810104e+00    5.0015620887e-02
    3.2985146046e+00    5.1568366587e-02
    3.3995308876e+00    5.3153119981e-02
    3.4992942810e+00    5.4718848318e-02
    3.5992443562e+00    5.6287940592e-02
    3.6997017860e+00    5.7865332812e-02
    3.7997844219e+00    5.9437282383e-02
    3.8996450901e+00    6.1006195843e-02
    3.9991934299e+00    6.2570847571e-02
    4.0987963676e+00    6.4136847854e-02
    4.1988434792e+00    6.5710201859e-02
    4.2990441322e+00    6.7286066711e-02
    4.3993158340e+00    6.8862870336e-02
    4.4997820854e+00    7.0442095399e-02
    4.5993552208e+00    7.2006464005e-02
    4.6989359856e+00    7.3570214212e-02
    4.7984833717e+00    7.5132615864e-02
    4.8998222351e+00    7.6722443104e-02
    4.9990921021e+00    7.8279212117e-02
    5.0988354683e+00    7.9842567444e-02
    5.1993360519e+00    8.1416405737e-02
    5.2995219231e+00    8.2983359694e-02
    5.3999071121e+00    8.4550753236e-02
    5.4998264313e+00    8.6107745767e-02
    5.5985350609e+00    8.7642341852e-02
    5.6994929314e+00    8.9208282530e-02
    5.7988901138e+00    9.0746432543e-02
    5.8996505737e+00    9.2302441597e-02
    5.9994015694e+00    9.3839719892e-02
    6.0993700027e+00    9.5377393067e-02
    6.1991348267e+00    9.6908703446e-02
    6.2990393639e+00    9.8438940942e-02
    6.3993287086e+00    9.9971972406e-02
    6.4993214607e+00    1.0149654746e-01
    6.5992870331e+00    1.0301777720e-01
    6.6991810799e+00    1.0453407466e-01
    6.7992568016e+00    1.0605187714e-01
    6.8996944427e+00    1.0757255554e-01
    6.9985542297e+00    1.0906741023e-01
    7.0983304977e+00    1.1057525873e-01
    7.1995105743e+00    1.1210251600e-01
    7.2986025810e+00    1.1359567195e-01
    7.3996238708e+00    1.1511498690e-01
    7.4986691475e+00    1.1660247296e-01
    7.5986065865e+00    1.1809936166e-01
    7.6987509727e+00    1.1959728599e-01
    7.7989277840e+00    1.2109274417e-01
    7.8990669250e+00    1.2258525193e-01
    7.9994649887e+00    1.2408092618e-01
    8.0992126465e+00    1.2556461990e-01
    8.1989650726e+00    1.2704679370e-01
    8.2987585068e+00    1.2852826715e-01
    8.3991155624e+00    1.3001652062e-01
    8.4986467361e+00    1.3149051368e-01
    8.5988225937e+00    1.3297207654e-01
    8.6984376907e+00    1.3444456458e-01
    8.7989006042e+00    1.3592714071e-01
    8.8993473053e+00    1.3740886748e-01
    8.9996347427e+00    1.3888792694e-01
    9.0994272232e+00    1.4035837352e-01
    9.1991558075e+00    1.4182648063e-01
    9.2995166779e+00    1.4330205321e-01
    9.3997058868e+00    1.4477348328e-01
    9.4993000031e+00    1.4623308182e-01
    9.5994148254e+00    1.4769801497e-01
    9.6993246078e+00    1.4915846288e-01
    9.7999086380e+00    1.5062700212e-01
    9.8996906281e+00    1.5208351612e-01
    9.9983539581e+00    1.5352253616e-01
    1.0098776817e+01    1.5744593740e-01
    1.0199974060e+01    1.6143943369e-01
    1.0299807549e+01    1.6537675261e-01
    1.0399882317e+01    1.6932176054e-01
    1.0499086380e+01    1.7323043942e-01
    1.0599964142e+01    1.7720298469e-01
    1.0698753357e+01    1.8109197915e-01
    1.0799943924e+01    1.8507267535e-01
    1.0899674416e+01    1.8899494410e-01
    1.0999250412e+01    1.9291140139e-01
    1.1098734856e+01    1.9682180882e-01
    1.1198295593e+01    2.0073448122e-01
    1.1298688889e+01    2.0467686653e-01
    1.1398441315e+01    2.0859122276e-01
    1.1499759674e+01    2.1256442368e-01
    1.1599696159e+01    2.1647952497e-01
    1.1699482918e+01    2.2038742900e-01
    1.1798439026e+01    2.2426070273e-01
    1.1899127007e+01    2.2820021212e-01
    1.1999129295e+01    2.3211227357e-01
    1.2098378181e+01    2.3599261045e-01
    1.2199556351e+01    2.3994572461e-01
    1.2299053192e+01    2.4383027852e-01
    1.2398647308e+01    2.4771450460e-01
    1.2498376846e+01    2.5160250068e-01
    1.2599818230e+01    2.5555336475e-01
    1.2699797630e+01    2.5944691896e-01
    1.2798932076e+01    2.6330631971e-01
    1.2898642540e+01    2.6718920469e-01
    1.2998365402e+01    2.7107304335e-01
    1.3099049568e+01    2.7499544621e-01
    1.3199813843e+01    2.7892127633e-01
    1.3299559593e+01    2.8280764818e-01
    1.3399120331e+01    2.8668656945e-01
    1.3498905182e+01    2.9057186842e-01
    1.3599467278e+01    2.9448658228e-01
    1.3699761391e+01    2.9838967323e-01
    1.3798336029e+01    3.0222582817e-01
    1.3899527550e+01    3.0616346002e-01
    1.3999031067e+01    3.1003457308e-01
    1.4098828316e+01    3.1391647458e-01
    1.4199101448e+01    3.1781503558e-01
    1.4298841476e+01    3.2169067860e-01
    1.4399201393e+01    3.2558625937e-01
    1.4498683929e+01    3.2944247127e-01
    1.4598467827e+01    3.3330580592e-01
    1.4699681282e+01    3.3721810579e-01
    1.4799235344e+01    3.4106123447e-01
    1.4898760796e+01    3.4489840269e-01
    1.4998624802e+01    3.4874382615e-01
    1.5098646164e+01    3.5258910060e-01
    1.5198759079e+01    3.5643139482e-01
    1.5299009323e+01    3.6027121544e-01
    1.5398717880e+01    3.6407980323e-01
    1.5498489380e+01    3.6788100004e-01
    1.5598818779e+01    3.7169328332e-01
    1.5699117661e+01    3.7549319863e-01
    1.5799583435e+01    3.7928971648e-01
    1.5899871826e+01    3.8307020068e-01
    1.5999478340e+01    3.8681659102e-01
    1.6099449158e+01    3.9056670666e-01
    1.6199344635e+01    3.9430442452e-01
    1.6298311234e+01    3.9799720049e-01
    1.6399280548e+01    4.0175512433e-01
    1.6499456406e+01    4.0547218919e-01
    1.6599891663e+01    4.0918931365e-01
    1.6699474335e+01    4.1286638379e-01
    1.6799285889e+01    4.1654288769e-01
    1.6899448395e+01    4.2022630572e-01
    1.6999370575e+01    4.2389452457e-01
    1.7098960876e+01    4.2754498124e-01
    1.7198543549e+01    4.3118929863e-01
    1.7298900604e+01    4.3485349417e-01
    1.7399660110e+01    4.3852528930e-01
    1.7499763489e+01    4.4216567278e-01
    1.7599826813e+01    4.4579651952e-01
    1.7698766708e+01    4.4937899709e-01
    1.7798652649e+01    4.5298999548e-01
    1.7899885178e+01    4.5664340258e-01
    1.7999441147e+01    4.6023100615e-01
    1.8099081039e+01    4.6381717920e-01
    1.8198738098e+01    4.6739810705e-01
    1.8298597336e+01    4.7098138928e-01
    1.8398353577e+01    4.7455438972e-01
    1.8499578476e+01    4.7817450762e-01
    1.8599134445e+01    4.8172959685e-01
    1.8698827744e+01    4.8528388143e-01
    1.8798677444e+01    4.8883911967e-01
    1.8898756027e+01    4.9239847064e-01
    1.8998662949e+01    4.9594938755e-01
    1.9098571777e+01    4.9949568510e-01
    1.9199846268e+01    5.0308680534e-01
    1.9299310684e+01    5.0660920143e-01
    1.9399698257e+01    5.1015818119e-01
    1.9499458313e+01    5.1367837191e-01
    1.9599454880e+01    5.1720267534e-01
    1.9698984146e+01    5.2070450783e-01
    1.9798959732e+01    5.2421754599e-01
    1.9899436951e+01    5.2774548531e-01
    1.9999118805e+01    5.3124117851e-01
    2.0099168777e+01    5.3741639853e-01
    2.0199909210e+01    5.4365241528e-01
    2.0299455643e+01    5.4981070757e-01
    2.0399011612e+01    5.5596172810e-01
    2.0499410629e+01    5.6215900183e-01
    2.0599679947e+01    5.6834101677e-01
    2.0699424744e+01    5.7448476553e-01
    2.0798988342e+01    5.8061099052e-01
    2.0898712158e+01    5.8674252033e-01
    2.1000001907e+01    5.9296578169e-01
    2.1099746704e+01    5.9908843040e-01
    2.1199533463e+01    6.0520881414e-01
    2.1299509048e+01    6.1133271456e-01
    2.1399370193e+01    6.1744207144e-01
    2.1499067307e+01    6.2353157997e-01
    2.1598766327e+01    6.2961357832e-01
    2.1698854446e+01    6.3571029902e-01
    2.1799589157e+01    6.4184099436e-01
    2.1898881912e+01    6.4787715673e-01
    2.1998535156e+01    6.5392959118e-01
    2.2098470688e+01    6.5999424458e-01
    2.2199756622e+01    6.6613310575e-01
    2.2299312592e+01    6.7216038704e-01
    2.2399084091e+01    6.7819255590e-01
    2.2498928070e+01    6.8422269821e-01
    2.2598659515e+01    6.9023782015e-01
    2.2699615479e+01    6.9632261992e-01
    2.2798957825e+01    7.0230501890e-01
    2.2899362564e+01    7.0834916830e-01
    2.2999063492e+01    7.1434980631e-01
    2.3098274231e+01    7.2031831741e-01
    2.3198720932e+01    7.2635924816e-01
    2.3299123764e+01    7.3239338398e-01
    2.3398838043e+01    7.3838138580e-01
    2.3498641968e+01    7.4436759949e-01
    2.3598989487e+01    7.5038141012e-01
    2.3698787689e+01    7.5635516644e-01
    2.3798978806e+01    7.6234668493e-01
    2.3898551941e+01    7.6829707623e-01
    2.3999811172e+01    7.7434343100e-01
    2.4099420547e+01    7.8028589487e-01
    2.4199401855e+01    7.8624248505e-01
    2.4299226761e+01    7.9218125343e-01
    2.4399587631e+01    7.9814100266e-01
    2.4499139786e+01    8.0404102802e-01
    2.4599426270e+01    8.0997079611e-01
    2.4699037552e+01    8.1584709883e-01
    2.4798646927e+01    8.2171142101e-01
    2.4899942398e+01    8.2766109705e-01
    2.4999668121e+01    8.3350551128e-01
    2.5099618912e+01    8.3935028315e-01
    2.5198926926e+01    8.4514206648e-01
    2.5298934937e+01    8.5095793009e-01
    2.5398624420e+01    8.5673761368e-01
    2.5499940872e+01    8.6259251833e-01
    2.5598714828e+01    8.6828082800e-01
    2.5698675156e+01    8.7401866913e-01
    2.5798614502e+01    8.7973755598e-01
    2.5899971008e+01    8.8551950455e-01
    2.5999608994e+01    8.9118641615e-01
    2.6098581314e+01    8.9679980278e-01
    2.6199052811e+01    9.0248095989e-01
    2.6298778534e+01    9.0810167789e-01
    2.6399559021e+01    9.1376370192e-01
    2.6499544144e+01    9.1936373711e-01
    2.6599950790e+01    9.2497247458e-01
    2.6699823380e+01    9.3052756786e-01
    2.6799711227e+01    9.3607825041e-01
    2.6899591446e+01    9.4160628319e-01
    2.6999383926e+01    9.4712352753e-01
    2.7098993301e+01    9.5262193680e-01
    2.7198612213e+01    9.5810836554e-01
    2.7298538208e+01    9.6359896660e-01
    2.7398777008e+01    9.6909254789e-01
    2.7498676300e+01    9.7455710173e-01
    2.7598691940e+01    9.8000711203e-01
    2.7699125290e+01    9.8546934128e-01
    2.7799142838e+01    9.9090570211e-01
    2.7898748398e+01    9.9630737305e-01
    2.7998449326e+01    1.0016984940e+00
    2.8099901199e+01    1.0071769953e+00
    2.8199600220e+01    1.0125499964e+00
    2.8299894333e+01    1.0179549456e+00
    2.8399692535e+01    1.0233170986e+00
    2.8499328613e+01    1.0286610126e+00
    2.8598970413e+01    1.0339949131e+00
    2.8699272156e+01    1.0393509865e+00
    2.8799259186e+01    1.0446820259e+00
    2.8898515701e+01    1.0499759912e+00
    2.9000066757e+01    1.0553809404e+00
    2.9099683762e+01    1.0606659651e+00
    2.9199268341e+01    1.0659549236e+00
    2.9299737930e+01    1.0712829828e+00
    2.9399843216e+01    1.0765769482e+00
    2.9499868393e+01    1.0818529129e+00
    2.9599601746e+01    1.0871139765e+00
    2.9699186325e+01    1.0923479795e+00
    2.9799734116e+01    1.0976279974e+00
    2.9898603439e+01    1.1028169394e+00
    3.0000049591e+01    1.1081379652e+00
    3.0100063324e+01    1.1193530560e+00
    3.0198907852e+01    1.1304270029e+00
    3.0298509598e+01    1.1415688992e+00
    3.0399875641e+01    1.1529119015e+00
    3.0500019073e+01    1.1640899181e+00
    3.0598609924e+01    1.1750890017e+00
    3.0698406219e+01    1.1862061024e+00
    3.0799718857e+01    1.1974860430e+00
    3.0899356842e+01    1.2085620165e+00
    3.0998962402e+01    1.2196270227e+00
    3.1098665237e+01    1.2306909561e+00
    3.1199056625e+01    1.2418110371e+00
    3.1299251556e+01    1.2529119253e+00
    3.1399110794e+01    1.2639539242e+00
    3.1498756409e+01    1.2749530077e+00
    3.1598405838e+01    1.2859380245e+00
    3.1699913025e+01    1.2971169949e+00
    3.1799804688e+01    1.3081109524e+00
    3.1899681091e+01    1.3190840483e+00
    3.1999052048e+01    1.3299950361e+00
    3.2099323273e+01    1.3409879208e+00
    3.2199371338e+01    1.3519430161e+00
    3.2298988342e+01    1.3628420830e+00
    3.2398632050e+01    1.3737369776e+00
    3.2498420715e+01    1.3846240044e+00
    3.2599910736e+01    1.3956779242e+00
    3.2699768066e+01    1.4065500498e+00
    3.2799617767e+01    1.4174150229e+00
    3.2899360657e+01    1.4282659292e+00
    3.2999015808e+01    1.4390959740e+00
    3.3098899841e+01    1.4499469995e+00
    3.3198604584e+01    1.4607880116e+00
    3.3298553467e+01    1.4716379642e+00
    3.3399997711e+01    1.4826409817e+00
    3.3499824524e+01    1.4934540987e+00
    3.3599815369e+01    1.5042810440e+00
    3.3699512482e+01    1.5150610209e+00
    3.3799373627e+01    1.5258469582e+00
    3.3899036407e+01    1.5366060734e+00
    3.3998699188e+01    1.5473439693e+00
    3.4098373413e+01    1.5580821037e+00
    3.4199874878e+01    1.5690000057e+00
    3.4299705505e+01    1.5797159672e+00
    3.4399768829e+01    1.5904470682e+00
    3.4498657227e+01    1.6010199785e+00
    3.4598381042e+01    1.6116720438e+00
    3.4699794769e+01    1.6224650145e+00
    3.4799514771e+01    1.6330699921e+00
    3.4899227142e+01    1.6436429024e+00
    3.4998603821e+01    1.6541600227e+00
    3.5098575592e+01    1.6647119522e+00
    3.5198608398e+01    1.6752469540e+00
    3.5298660278e+01    1.6857630014e+00
    3.5398582458e+01    1.6962308884e+00
    3.5500026703e+01    1.7068200111e+00
    3.5598468781e+01    1.7170630693e+00
    3.5698684692e+01    1.7274500132e+00
    3.5799022675e+01    1.7378209829e+00
    3.5898857117e+01    1.7481130362e+00
    3.5998668671e+01    1.7583659887e+00
    3.6098640442e+01    1.7686151266e+00
    3.6198802948e+01    1.7788510323e+00
    3.6299861908e+01    1.7891430855e+00
    3.6399528503e+01    1.7992701530e+00
    3.6499515533e+01    1.8093869686e+00
    3.6599578857e+01    1.8194921017e+00
    3.6699325562e+01    1.8295269012e+00
    3.6799152374e+01    1.8395550251e+00
    3.6899131775e+01    1.8495669365e+00
    3.6998886108e+01    1.8595449924e+00
    3.7098606110e+01    1.8694950342e+00
    3.7200000763e+01    1.8795989752e+00
    3.7299800873e+01    1.8895159960e+00
    3.7399890900e+01    1.8994429111e+00
    3.7499855042e+01    1.9093290567e+00
    3.7599784851e+01    1.9191929102e+00
    3.7699523926e+01    1.9290199280e+00
    3.7799243927e+01    1.9388160706e+00
    3.7898952484e+01    1.9485958815e+00
    3.7998653412e+01    1.9583599567e+00
    3.8098350525e+01    1.9681100845e+00
    3.8199798584e+01    1.9780138731e+00
    3.8299514771e+01    1.9877339602e+00
    3.8399158478e+01    1.9974400997e+00
    3.8498821259e+01    2.0071182251e+00
    3.8598445892e+01    2.0167808533e+00
    3.8699844360e+01    2.0266029835e+00
    3.8799057007e+01    2.0361881256e+00
    3.8898952484e+01    2.0458390713e+00
    3.8998905182e+01    2.0554780960e+00
    3.9098583221e+01    2.0650830269e+00
    3.9199935913e+01    2.0748329163e+00
    3.9299739838e+01    2.0844171047e+00
    3.9399703979e+01    2.0939991474e+00
    3.9499378204e+01    2.1035408974e+00
    3.9599060059e+01    2.1130640507e+00
    3.9698734283e+01    2.1225590706e+00
    3.9799339294e+01    2.1321380138e+00
    3.9899013519e+01    2.1416118145e+00
    3.9998680115e+01    2.1510620117e+00
    4.0098403931e+01    2.1681768894e+00
    4.0198535919e+01    2.1854419708e+00
    4.0299880981e+01    2.2028980255e+00
    4.0399543762e+01    2.2200469971e+00
    4.0499343872e+01    2.2371871471e+00
    4.0598827362e+01    2.2542521954e+00
    4.0698852539e+01    2.2713940144e+00
    4.0798526764e+01    2.2884349823e+00
    4.0899890900e+01    2.3057579994e+00
    4.0999519348e+01    2.3227610588e+00
    4.1099147797e+01    2.3397459984e+00
    4.1198783875e+01    2.3567090034e+00
    4.1298873901e+01    2.3737339973e+00
    4.1398681641e+01    2.3906710148e+00
    4.1499885559e+01    2.4078211784e+00
    4.1598258972e+01    2.4244742393e+00
    4.1699592590e+01    2.4415938854e+00
    4.1799850464e+01    2.4585108757e+00
    4.1898513794e+01    2.4751369953e+00
    4.1999584198e+01    2.4921450615e+00
    4.2099063873e+01    2.5088739395e+00
    4.2198543549e+01    2.5255830288e+00
    4.2299808502e+01    2.5425710678e+00
    4.2399459839e+01    2.5592558384e+00
    4.2499191284e+01    2.5759339333e+00
    4.2598945618e+01    2.5925989151e+00
    4.2699180603e+01    2.6093149185e+00
    4.2798889160e+01    2.6259360313e+00
    4.2899635315e+01    2.6427159309e+00
    4.2999271393e+01    2.6592998505e+00
    4.3098159790e+01    2.6757540703e+00
    4.3198822021e+01    2.6924898624e+00
    4.3298522949e+01    2.7090480328e+00
    4.3398273468e+01    2.7256069183e+00
    4.3499622345e+01    2.7424011230e+00
    4.3599685669e+01    2.7589631081e+00
    4.3698249817e+01    2.7752540112e+00
    4.3799583435e+01    2.7919828892e+00
    4.3899295807e+01    2.8084292412e+00
    4.3999069214e+01    2.8248538971e+00
    4.4098800659e+01    2.8412709236e+00
    4.4198482513e+01    2.8576478958e+00
    4.4299835205e+01    2.8742680550e+00
    4.4398761749e+01    2.8904640675e+00
    4.4498676300e+01    2.9067709446e+00
    4.4598949432e+01    2.9231128693e+00
    4.4698806763e+01    2.9393310547e+00
    4.4798488617e+01    2.9554870129e+00
    4.4899852753e+01    2.9718809128e+00
    4.4999008179e+01    2.9878740311e+00
    4.5099197388e+01    3.0040018559e+00
    4.5199680328e+01    3.0201249123e+00
    4.5299793243e+01    3.0361480713e+00
    4.5399318695e+01    3.0520260334e+00
    4.5499282837e+01    3.0679221153e+00
    4.5599781036e+01    3.0838370323e+00
    4.5699436188e+01    3.0995788574e+00
    4.5799232483e+01    3.1152818203e+00
    4.5898929596e+01    3.1309309006e+00
    4.5998806000e+01    3.1465559006e+00
    4.6099487305e+01    3.1622550488e+00
    4.6198360443e+01    3.1776371002e+00
    4.6298870087e+01    3.1932210922e+00
    4.6398773193e+01    3.2086660862e+00
    4.6498664856e+01    3.2240538597e+00
    4.6598819733e+01    3.2394390106e+00
    4.6698665619e+01    3.2547259331e+00
    4.6798358917e+01    3.2699511051e+00
    4.6898403168e+01    3.2852020264e+00
    4.6998260498e+01    3.3003909588e+00
    4.7099792480e+01    3.3158011436e+00
    4.7199512482e+01    3.3308968544e+00
    4.7299133301e+01    3.3459568024e+00
    4.7398738861e+01    3.3609838486e+00
    4.7498825073e+01    3.3760380745e+00
    4.7599601746e+01    3.3911690712e+00
    4.7699115753e+01    3.4060661793e+00
    4.7798767090e+01    3.4209637642e+00
    4.7898601532e+01    3.4358558655e+00
    4.7999797821e+01    3.4509270191e+00
    4.8099239349e+01    3.4657130241e+00
    4.8198898315e+01    3.4805152416e+00
    4.8298545837e+01    3.4952847958e+00
    4.8399639130e+01    3.5102467537e+00
    4.8499305725e+01    3.5249738693e+00
    4.8598670959e+01    3.5396220684e+00
    4.8698516846e+01    3.5543260574e+00
    4.8799671173e+01    3.5691902637e+00
    4.8899730682e+01    3.5838770866e+00
    4.8999511719e+01    3.5985000134e+00
    4.9099212646e+01    3.6130902767e+00
    4.9198623657e+01    3.6276268959e+00
    4.9298419952e+01    3.6421868801e+00
    4.9398452759e+01    3.6567661762e+00
    4.9499637604e+01    3.6714761257e+00
    4.9599388123e+01    3.6859407425e+00
    4.9698822021e+01    3.7003350258e+00
    4.9799747467e+01    3.7149200439e+00
    4.9899806976e+01    3.7293419838e+00
    4.9999237061e+01    3.7436571121e+00
    5.0098670959e+01    3.7674171925e+00
    5.0199291229e+01    3.7915158272e+00
    5.0298717499e+01    3.8152871132e+00
    5.0398162842e+01    3.8390302658e+00
    5.0498939514e+01    3.8630499840e+00
    5.0599620819e+01    3.8870029449e+00
    5.0699768066e+01    3.9107899666e+00
    5.0799293518e+01    3.9343900681e+00
    5.0898853302e+01    3.9579739571e+00
    5.0998249054e+01    3.9814770222e+00
    5.1099605560e+01    4.0054211617e+00
    5.1199153900e+01    4.0288991928e+00
    5.1299350739e+01    4.0524859428e+00
    5.1399227142e+01    4.0759620667e+00
    5.1498455048e+01    4.0992360115e+00
    5.1598487854e+01    4.1226630211e+00
    5.1699230194e+01    4.1462101936e+00
    5.1799263000e+01    4.1695590019e+00
    5.1899345398e+01    4.1928811073e+00
    5.1998989105e+01    4.2160620689e+00
    5.2098205566e+01    4.2391233444e+00
    5.2199108124e+01    4.2625460625e+00
    5.2298542023e+01    4.2855958939e+00
    5.2398197174e+01    4.3086528778e+00
    5.2499481201e+01    4.3320498466e+00
    5.2599246979e+01    4.3550672531e+00
    5.2699344635e+01    4.3781208992e+00
    5.2799541473e+01    4.4011802673e+00
    5.2898468018e+01    4.4239196777e+00
    5.2999664307e+01    4.4471797943e+00
    5.3098884583e+01    4.4699497223e+00
    5.3199352264e+01    4.4930000305e+00
    5.3299064636e+01    4.5158500671e+00
    5.3399028778e+01    4.5387201309e+00
    5.3498477936e+01    4.5614404678e+00
    5.3598152161e+01    4.5841798782e+00
    5.3699234009e+01    4.6071996689e+00
    5.3798679352e+01    4.6298098564e+00
    5.3898395538e+01    4.6524500847e+00
    5.3998210907e+01    4.6750802994e+00
    5.4099525452e+01    4.6980199814e+00
    5.4199005127e+01    4.7205100060e+00
    5.4298465729e+01    4.7429499626e+00
    5.4398651123e+01    4.7655000687e+00
    5.4498073578e+01    4.7878198624e+00
    5.4598510742e+01    4.8103098869e+00
    5.4698493958e+01    4.8326301575e+00
    5.4799705505e+01    4.8551597595e+00
    5.4899185181e+01    4.8772497177e+00
    5.4998458862e+01    4.8992400169e+00
    5.5098869324e+01    4.9214100838e+00
    5.5198421478e+01    4.9433498383e+00
    5.5298675537e+01    4.9653601646e+00
    5.5398860931e+01    4.9872803688e+00
    5.5498931885e+01    5.0091099739e+00
    5.5599720001e+01    5.0310096741e+00
    5.5699172974e+01    5.0525302887e+00
    5.5798778534e+01    5.0740299225e+00
    5.5898418427e+01    5.0954599380e+00
    5.5998451233e+01    5.1168899536e+00
    5.6099250793e+01    5.1384401321e+00
    5.6199199677e+01    5.1597299576e+00
    5.6298458099e+01    5.1808099747e+00
    5.6399513245e+01    5.2021999359e+00
    5.6499183655e+01    5.2232303619e+00
    5.6598861694e+01    5.2441997528e+00
    5.6698699951e+01    5.2651400566e+00
    5.6798175812e+01    5.2859396935e+00
    5.6898345947e+01    5.3068399429e+00
    5.6998332977e+01    5.3276600838e+00
    5.7098285675e+01    5.3484201431e+00
    5.7199680328e+01    5.3694400787e+00
    5.7299068451e+01    5.3900003433e+00
    5.7398483276e+01    5.4105195999e+00
    5.7498657227e+01    5.4311399460e+00
    5.7599300385e+01    5.4518098831e+00
    5.7698551178e+01    5.4721598625e+00
    5.7798160553e+01    5.4925203323e+00
    5.7898082733e+01    5.5129299164e+00
    5.7999015808e+01    5.5334897041e+00
    5.8098190308e+01    5.5536699295e+00
    5.8199565887e+01    5.5742597580e+00
    5.8298091888e+01    5.5942401886e+00
    5.8398857117e+01    5.6146397591e+00
    5.8498310089e+01    5.6347398758e+00
    5.8599094391e+01    5.6550703049e+00
    5.8698657990e+01    5.6751098633e+00
    5.8798557281e+01    5.6951799393e+00
    5.8898353577e+01    5.7152099609e+00
    5.8998191833e+01    5.7351999283e+00
    5.9098022461e+01    5.7551803589e+00
    5.9198860168e+01    5.7753200531e+00
    5.9298591614e+01    5.7952003479e+00
    5.9398792267e+01    5.8151402473e+00
    5.9498268127e+01    5.8348903656e+00
    5.9598152161e+01    5.8546800613e+00
    5.9699028015e+01    5.8746099472e+00
    5.9798957825e+01    5.8943099976e+00
    5.9898925781e+01    5.9139900208e+00
    5.9998096466e+01    5.9334702492e+00
    6.0098972321e+01    5.9643402100e+00
    6.0198276520e+01    5.9949102402e+00
    6.0299133301e+01    6.0258998871e+00
    6.0398368835e+01    6.0563497543e+00
    6.0498920441e+01    6.0871300697e+00
    6.0598987579e+01    6.1177000999e+00
    6.0699398041e+01    6.1483302116e+00
    6.0798805237e+01    6.1785802841e+00
    6.0898227692e+01    6.2087903023e+00
    6.0999065399e+01    6.2393703461e+00
    6.1098628998e+01    6.2695302963e+00
    6.1198814392e+01    6.2998304367e+00
    6.1299121857e+01    6.3301000595e+00
    6.1399040222e+01    6.3601999283e+00
    6.1498008728e+01    6.3899397850e+00
    6.1598419189e+01    6.4200601578e+00
    6.1698120117e+01    6.4499096870e+00
    6.1798183441e+01    6.4798102379e+00
    6.1899089813e+01    6.5099105835e+00
    6.1997974396e+01    6.5393695831e+00
    6.2098632812e+01    6.5693101883e+00
    6.2199283600e+01    6.5991997719e+00
    6.2298591614e+01    6.6286501884e+00
    6.2398288727e+01    6.6581597328e+00
    6.2499523163e+01    6.6880598068e+00
    6.2599418640e+01    6.7175297737e+00
    6.2697952271e+01    6.7465400696e+00
    6.2798286438e+01    6.7760496140e+00
    6.2898574829e+01    6.8055100441e+00
    6.2997989655e+01    6.8346900940e+00
    6.3097953796e+01    6.8639898300e+00
    6.3199584961e+01    6.8937597275e+00
    6.3299255371e+01    6.9229197502e+00
    6.3399276733e+01    6.9521303177e+00
    6.3498580933e+01    6.9810895920e+00
    6.3598197937e+01    7.0100703239e+00
    6.3698497772e+01    7.0392098427e+00
    6.3799430847e+01    7.0684700012e+00
    6.3899143219e+01    7.0973401070e+00
    6.3999095917e+01    7.1262097359e+00
    6.4098510742e+01    7.1548805237e+00
    6.4199485779e+01    7.1839599609e+00
    6.4298751831e+01    7.2124700546e+00
    6.4399353027e+01    7.2412900925e+00
    6.4499092102e+01    7.2697901726e+00
    6.4599304199e+01    7.2983293533e+00
    6.4699501038e+01    7.3267803192e+00
    6.4798828125e+01    7.3548898697e+00
    6.4898124695e+01    7.3829298019e+00
    6.4998863220e+01    7.4112796783e+00
    6.5099067688e+01    7.4393901825e+00
    6.5199142456e+01    7.4673900604e+00
    6.5297943115e+01    7.4949398041e+00
    6.5398216248e+01    7.5227999687e+00
    6.5498413086e+01    7.5505394936e+00
    6.5599433899e+01    7.5783901215e+00
    6.5698699951e+01    7.6056504250e+00
    6.5797973633e+01    7.6328306198e+00
    6.5898910522e+01    7.6604003906e+00
    6.5998947144e+01    7.6875305176e+00
    6.6098472595e+01    7.7145500183e+00
    6.6198242188e+01    7.7414493561e+00
    6.6297935486e+01    7.7682704926e+00
    6.6398002625e+01    7.7951498032e+00
    6.6499168396e+01    7.8221898079e+00
    6.6598495483e+01    7.8487005234e+00
    6.6698181152e+01    7.8751797676e+00
    6.6799133301e+01    7.9018902779e+00
    6.6899520874e+01    7.9284200668e+00
    6.6997894287e+01    7.9543905258e+00
    6.7097915649e+01    7.9807605743e+00
    6.7199249268e+01    8.0073795319e+00
    6.7298408508e+01    8.0333604813e+00
    6.7397857666e+01    8.0593395233e+00
    6.7498176575e+01    8.0855302811e+00
    6.7598976135e+01    8.1116704941e+00
    6.7697982788e+01    8.1374292374e+00
    6.7799400330e+01    8.1636600494e+00
    6.7899383545e+01    8.1894702911e+00
    6.7998321533e+01    8.2149801254e+00
    6.8098915100e+01    8.2409000397e+00
    6.8198638916e+01    8.2666206360e+00
    6.8298904419e+01    8.2923002243e+00
    6.8399398804e+01    8.3181095123e+00
    6.8498512268e+01    8.3433799744e+00
    6.8599021912e+01    8.3690795898e+00
    6.8698196411e+01    8.3943405151e+00
    6.8798377991e+01    8.4197902679e+00
    6.8899055481e+01    8.4453201294e+00
    6.8998924255e+01    8.4706306458e+00
    6.9098777771e+01    8.4959001541e+00
    6.9199478149e+01    8.5212898254e+00
    6.9299110413e+01    8.5464096069e+00
    6.9399406433e+01    8.5716600418e+00
    6.9498710632e+01    8.5965995789e+00
    6.9598670959e+01    8.6215801239e+00
    6.9697883606e+01    8.6463098526e+00
    6.9799194336e+01    8.6715297699e+00
    6.9898956299e+01    8.6962499619e+00
    6.9997909546e+01    8.7207508087e+00
    7.0098564148e+01    8.7566003799e+00
    7.0198677063e+01    8.7923803329e+00
    7.0299339294e+01    8.8283004761e+00
    7.0398384094e+01    8.8635196686e+00
    7.0498428345e+01    8.8990802765e+00
    7.0599357605e+01    8.9348106384e+00
    7.0698265076e+01    8.9697904587e+00
    7.0799247742e+01    9.0054492950e+00
    7.0898490906e+01    9.0403194427e+00
    7.0999168396e+01    9.0756797791e+00
    7.1098709106e+01    9.1105699539e+00
    7.1198440552e+01    9.1454696655e+00
    7.1298713684e+01    9.1804895401e+00
    7.1398773193e+01    9.2153606415e+00
    7.1499237061e+01    9.2502803802e+00
    7.1599029541e+01    9.2848396301e+00
    7.1699096680e+01    9.3194694519e+00
    7.1799247742e+01    9.3540000916e+00
    7.1897949219e+01    9.3880405426e+00
    7.1998474121e+01    9.4225902557e+00
    7.2098976135e+01    9.4570808411e+00
    7.2197792053e+01    9.4910202026e+00
    7.2298767090e+01    9.5254993439e+00
    7.2398544312e+01    9.5596303940e+00
    7.2497924805e+01    9.5934705734e+00
    7.2597839355e+01    9.6274394989e+00
    7.2698532104e+01    9.6616001129e+00
    7.2797851562e+01    9.6952705383e+00
    7.2899330139e+01    9.7295799255e+00
    7.2998680115e+01    9.7631607056e+00
    7.3098632812e+01    9.7968797684e+00
    7.3198600769e+01    9.8306398392e+00
    7.3298156738e+01    9.8641395569e+00
    7.3398269653e+01    9.8977594376e+00
    7.3499168396e+01    9.9315605164e+00
    7.3598701477e+01    9.9648504257e+00
    7.3699394226e+01    9.9984397888e+00
    7.3798507690e+01    1.0031450272e+01
    7.3898231506e+01    1.0064579964e+01
    7.3998115540e+01    1.0097709656e+01
    7.4099342346e+01    1.0131219864e+01
    7.4198501587e+01    1.0163940430e+01
    7.4299324036e+01    1.0197059631e+01
    7.4398574829e+01    1.0229689598e+01
    7.4498466492e+01    1.0262380600e+01
    7.4598838806e+01    1.0295070648e+01
    7.4699096680e+01    1.0327660561e+01
    7.4798225403e+01    1.0359769821e+01
    7.4899070740e+01    1.0392319679e+01
    7.4999382019e+01    1.0424580574e+01
    7.5098289490e+01    1.0456310272e+01
    7.5197906494e+01    1.0488100052e+01
    7.5298370361e+01    1.0520090103e+01
    7.5398590088e+01    1.0551909447e+01
    7.5498809814e+01    1.0583499908e+01
    7.5597846985e+01    1.0614720345e+01
    7.5698677063e+01    1.0646219254e+01
    7.5798011780e+01    1.0677229881e+01
    7.5898864746e+01    1.0708589554e+01
    7.5998992920e+01    1.0739690781e+01
    7.6098281860e+01    1.0770270348e+01
    7.6197845459e+01    1.0800900459e+01
    7.6299232483e+01    1.0832010269e+01
    7.6398193359e+01    1.0862260818e+01
    7.6499282837e+01    1.0893019676e+01
    7.6598464966e+01    1.0923210144e+01
    7.6697837830e+01    1.0953249931e+01
    7.6798622131e+01    1.0983590126e+01
    7.6898971558e+01    1.1013850212e+01
    7.6999008179e+01    1.1043800354e+01
    7.7098983765e+01    1.1073799133e+01
    7.7198654175e+01    1.1103500366e+01
    7.7299316406e+01    1.1133510590e+01
    7.7398513794e+01    1.1162980080e+01
    7.7498863220e+01    1.1192819595e+01
    7.7597900391e+01    1.1222080231e+01
    7.7698417664e+01    1.1251729965e+01
    7.7798255920e+01    1.1281169891e+01
    7.7898216248e+01    1.1310520172e+01
    7.7998725891e+01    1.1339990616e+01
    7.8099159241e+01    1.1369421005e+01
    7.8198577881e+01    1.1398540497e+01
    7.8299102783e+01    1.1427850723e+01
    7.8397781372e+01    1.1456539154e+01
    7.8498405457e+01    1.1485811234e+01
    7.8599090576e+01    1.1515009880e+01
    7.8698196411e+01    1.1543699265e+01
    7.8798538208e+01    1.1572650909e+01
    7.8899223328e+01    1.1601640701e+01
    7.8998992920e+01    1.1630299568e+01
    7.9098937988e+01    1.1659059525e+01
    7.9197990417e+01    1.1687379837e+01
    7.9299171448e+01    1.1716320038e+01
    7.9397720337e+01    1.1744419098e+01
    7.9499130249e+01    1.1773159981e+01
    7.9599044800e+01    1.1801460266e+01
    7.9698135376e+01    1.1829481125e+01
    7.9797996521e+01    1.1857629776e+01
    7.9899307251e+01    1.1886049271e+01
    7.9998176575e+01    1.1913780212e+01
    8.0098747253e+01    1.1953418732e+01
    8.0198181152e+01    1.1992849350e+01
    8.0298767090e+01    1.2032510757e+01
    8.0397712708e+01    1.2071571350e+01
    8.0498893738e+01    1.2111280441e+01
    8.0599304199e+01    1.2150659561e+01
    8.0698326111e+01    1.2189291000e+01
    8.0799285889e+01    1.2228719711e+01
    8.0898399353e+01    1.2267230988e+01
    8.0999038696e+01    1.2306270599e+01
    8.1098533630e+01    1.2344810486e+01
    8.1198959351e+01    1.2383540154e+01
    8.1299057007e+01    1.2422150612e+01
    8.1398963928e+01    1.2460520744e+01
    8.1497779846e+01    1.2498460770e+01
    8.1599166870e+01    1.2537240028e+01
    8.1698730469e+01    1.2575189590e+01
    8.1798835754e+01    1.2613220215e+01
    8.1899276733e+01    1.2651371002e+01
    8.1997909546e+01    1.2688730240e+01
    8.2098396301e+01    1.2726730347e+01
    8.2198867798e+01    1.2764760971e+01
    8.2298049927e+01    1.2802061081e+01
    8.2397987366e+01    1.2839670181e+01
    8.2498893738e+01    1.2877550125e+01
    8.2598670959e+01    1.2914839745e+01
    8.2699256897e+01    1.2952440262e+01
    8.2798698425e+01    1.2989480972e+01
    8.2898689270e+01    1.3026720047e+01
    8.2998016357e+01    1.3063680649e+01
    8.3097946167e+01    1.3100728989e+01
    8.3198799133e+01    1.3138169289e+01
    8.3298324585e+01    1.3174999237e+01
    8.3398475647e+01    1.3211979866e+01
    8.3497711182e+01    1.3248519897e+01
    8.3598815918e+01    1.3285649300e+01
    8.3698532104e+01    1.3322160721e+01
    8.3797630310e+01    1.3358360291e+01
    8.3899002075e+01    1.3395330429e+01
    8.3998886108e+01    1.3431631088e+01
    8.4098083496e+01    1.3467630386e+01
    8.4198913574e+01    1.3504089355e+01
    8.4298049927e+01    1.3539918900e+01
    8.4397842407e+01    1.3575740814e+01
    8.4497871399e+01    1.3611669540e+01
    8.4598182678e+01    1.3647490501e+01
    8.4698356628e+01    1.3683109283e+01
    8.4797630310e+01    1.3718248367e+01
    8.4898460388e+01    1.3753820419e+01
    8.4999137878e+01    1.3789299011e+01
    8.5098823547e+01    1.3824250221e+01
    8.5199111938e+01    1.3859190941e+01
    8.5297897339e+01    1.3893640518e+01
    8.5398010254e+01    1.3928259850e+01
    8.5497940063e+01    1.3962789536e+01
    8.5599052429e+01    1.3997510910e+01
    8.5698196411e+01    1.4031379700e+01
    8.5798408508e+01    1.4065580368e+01
    8.5897590637e+01    1.4099159241e+01
    8.5999221802e+01    1.4133569717e+01
    8.6098236084e+01    1.4166959763e+01
    8.6198234558e+01    1.4200539589e+01
    8.6297973633e+01    1.4233880997e+01
    8.6398239136e+01    1.4267339706e+01
    8.6497825623e+01    1.4300399780e+01
    8.6598640442e+01    1.4333749771e+01
    8.6697860718e+01    1.4366498947e+01
    8.6798599243e+01    1.4399669647e+01
    8.6899116516e+01    1.4432619095e+01
    8.6999008179e+01    1.4465290070e+01
    8.7098831177e+01    1.4497900009e+01
    8.7198524475e+01    1.4530380249e+01
    8.7297599792e+01    1.4562599182e+01
    8.7398666382e+01    1.4595400810e+01
    8.7498992920e+01    1.4627850533e+01
    8.7597908020e+01    1.4659770012e+01
    8.7698410034e+01    1.4692100525e+01
    8.7798126221e+01    1.4724109650e+01
    8.7897895813e+01    1.4756130219e+01
    8.7998588562e+01    1.4788299561e+01
    8.8099029541e+01    1.4820388794e+01
    8.8198051453e+01    1.4851989746e+01
    8.8297927856e+01    1.4883749962e+01
    8.8398300171e+01    1.4915579796e+01
    8.8498802185e+01    1.4947509766e+01
    8.8597846985e+01    1.4978731155e+01
    8.8698600769e+01    1.5010519981e+01
    8.8798103333e+01    1.5041830063e+01
    8.8898239136e+01    1.5073270798e+01
    8.8997764587e+01    1.5104431152e+01
    8.9097564697e+01    1.5135641098e+01
    8.9198410034e+01    1.5167019844e+01
    8.9297744751e+01    1.5197931290e+01
    8.9397682190e+01    1.5228839874e+01
    8.9497871399e+01    1.5259769440e+01
    8.9597648621e+01    1.5290540695e+01
    8.9698661804e+01    1.5321479797e+01
    8.9798271179e+01    1.5351989746e+01
    8.9897743225e+01    1.5382339478e+01
    8.9998344421e+01    1.5412820816e+01
    9.0098991394e+01    1.5457680702e+01
    9.0197540283e+01    1.5501749039e+01
    9.0298309326e+01    1.5546760559e+01
    9.0399032593e+01    1.5591569901e+01
    9.0498954773e+01    1.5635820389e+01
    9.0598358154e+01    1.5679830551e+01
    9.0697532654e+01    1.5723581314e+01
    9.0798568726e+01    1.5768070221e+01
    9.0898002625e+01    1.5811609268e+01
    9.0998703003e+01    1.5855710030e+01
    9.1098129272e+01    1.5899160385e+01
    9.1197578430e+01    1.5942500114e+01
    9.1299072266e+01    1.5986618996e+01
    9.1398910522e+01    1.6029918671e+01
    9.1497810364e+01    1.6072729111e+01
    9.1597610474e+01    1.6115810394e+01
    9.1698753357e+01    1.6159309387e+01
    9.1798583984e+01    1.6202171326e+01
    9.1897865295e+01    1.6244739532e+01
    9.1998123169e+01    1.6287590027e+01
    9.2098678589e+01    1.6330551147e+01
    9.2197540283e+01    1.6372640610e+01
    9.2298370361e+01    1.6415531158e+01
    9.2398117065e+01    1.6457920074e+01
    9.2498939514e+01    1.6500518799e+01
    9.2598602295e+01    1.6542659760e+01
    9.2697456360e+01    1.6584308624e+01
    9.2798309326e+01    1.6626750946e+01
    9.2897972107e+01    1.6668659210e+01
    9.2998962402e+01    1.6711029053e+01
    9.3098892212e+01    1.6752929688e+01
    9.3198997498e+01    1.6794790268e+01
    9.3298439026e+01    1.6836330414e+01
    9.3398330688e+01    1.6878009796e+01
    9.3497573853e+01    1.6919219971e+01
    9.3598655701e+01    1.6961149216e+01
    9.3698608398e+01    1.7002479553e+01
    9.3797752380e+01    1.7043399811e+01
    9.3899002075e+01    1.7085039139e+01
    9.3998741150e+01    1.7125940323e+01
    9.4098075867e+01    1.7166610718e+01
    9.4198997498e+01    1.7207859039e+01
    9.4298240662e+01    1.7248229980e+01
    9.4398742676e+01    1.7288978577e+01
    9.4498855591e+01    1.7329540253e+01
    9.4599044800e+01    1.7369920731e+01
    9.4698997498e+01    1.7409931183e+01
    9.4798210144e+01    1.7449680328e+01
    9.4897445679e+01    1.7489170074e+01
    9.4998138428e+01    1.7529159546e+01
    9.5097686768e+01    1.7568550110e+01
    9.5198081970e+01    1.7608070374e+01
    9.5298728943e+01    1.7647541046e+01
    9.5398635864e+01    1.7686639786e+01
    9.5498374939e+01    1.7725450516e+01
    9.5597663879e+01    1.7763999939e+01
    9.5698524475e+01    1.7802902222e+01
    9.5797790527e+01    1.7841100693e+01
    9.5898986816e+01    1.7879800797e+01
    9.5998985291e+01    1.7917999268e+01
    9.6098060608e+01    1.7955600739e+01
    9.6197578430e+01    1.7993400574e+01
    9.6297988892e+01    1.8031200409e+01
    9.6398582458e+01    1.8069099426e+01
    9.6498344421e+01    1.8106599808e+01
    9.6597564697e+01    1.8143600464e+01
    9.6698661804e+01    1.8181299210e+01
    9.6797798157e+01    1.8218101501e+01
    9.6898208618e+01    1.8255300522e+01
    9.6997932434e+01    1.8292201996e+01
    9.7097503662e+01    1.8328899384e+01
    9.7198707581e+01    1.8366199493e+01
    9.7297836304e+01    1.8402599335e+01
    9.7398887634e+01    1.8439598083e+01
    9.7497428894e+01    1.8475700378e+01
    9.7598175049e+01    1.8512399673e+01
    9.7698791504e+01    1.8548999786e+01
    9.7798393250e+01    1.8585199356e+01
    9.7897941589e+01    1.8621200562e+01
    9.7998611450e+01    1.8657600403e+01
    9.8097488403e+01    1.8693300247e+01
    9.8198631287e+01    1.8729799271e+01
    9.8297607422e+01    1.8765298843e+01
    9.8398071289e+01    1.8801399231e+01
    9.8498641968e+01    1.8837398529e+01
    9.8597709656e+01    1.8872800827e+01
    9.8698402405e+01    1.8908599854e+01
    9.8798988342e+01    1.8944398880e+01
    9.8899047852e+01    1.8979799271e+01
    9.8998474121e+01    1.9014900208e+01
    9.9098030090e+01    1.9049999237e+01
    9.9198913574e+01    1.9085601807e+01
    9.9298187256e+01    1.9120300293e+01
    9.9397727966e+01    1.9155101776e+01
    9.9497390747e+01    1.9189899445e+01
    9.9598632812e+01    1.9224998474e+01
    9.9697845459e+01    1.9259300232e+01
    9.9798309326e+01    1.9293899536e+01
    9.9898513794e+01    1.9328300476e+01
    9.9997566223e+01    1.9362199783e+01
    1.0009834290e+02    1.9413799286e+01
    1.0019773865e+02    1.9465200424e+01
    1.0029878998e+02    1.9517099380e+01
    1.0039791870e+02    1.9568000793e+01
    1.0049799347e+02    1.9619199753e+01
    1.0059751129e+02    1.9669898987e+01
    1.0069835663e+02    1.9721302032e+01
    1.0079770660e+02    1.9771699905e+01
    1.0089897919e+02    1.9822898865e+01
    1.0099813843e+02    1.9873001099e+01
    1.0109767151e+02    1.9923198700e+01
    1.0119863129e+02    1.9974100113e+01
    1.0129815674e+02    2.0023998260e+01
    1.0139785004e+02    2.0073898315e+01
    1.0149839783e+02    2.0124099731e+01
    1.0159835815e+02    2.0173896790e+01
    1.0169811249e+02    2.0223503113e+01
    1.0179760742e+02    2.0272800446e+01
    1.0189794922e+02    2.0322498322e+01
    1.0199787140e+02    2.0371898651e+01
    1.0209844208e+02    2.0421499252e+01
    1.0219899750e+02    2.0471099854e+01
    1.0229805756e+02    2.0519702911e+01
    1.0239761353e+02    2.0568599701e+01
    1.0249828339e+02    2.0617900848e+01
    1.0259786224e+02    2.0666500092e+01
    1.0269793701e+02    2.0715297699e+01
    1.0279759979e+02    2.0763797760e+01
    1.0289862823e+02    2.0812900543e+01
    1.0299786377e+02    2.0861101151e+01
    1.0309763336e+02    2.0909400940e+01
    1.0319763947e+02    2.0957798004e+01
    1.0329869080e+02    2.1006698608e+01
    1.0339829254e+02    2.1054700851e+01
    1.0349752045e+02    2.1102500916e+01
    1.0359850311e+02    2.1150897980e+01
    1.0369854736e+02    2.1198699951e+01
    1.0379776001e+02    2.1246101379e+01
    1.0389884949e+02    2.1294301987e+01
    1.0399832153e+02    2.1341499329e+01
    1.0409761810e+02    2.1388599396e+01
    1.0419864655e+02    2.1436401367e+01
    1.0429798889e+02    2.1483100891e+01
    1.0439884186e+02    2.1530599594e+01
    1.0449725342e+02    2.1576698303e+01
    1.0459738159e+02    2.1623298645e+01
    1.0469876099e+02    2.1670501709e+01
    1.0479804993e+02    2.1716398239e+01
    1.0489736176e+02    2.1762302399e+01
    1.0499845886e+02    2.1808696747e+01
    1.0509780121e+02    2.1854301453e+01
    1.0519824982e+02    2.1899999619e+01
    1.0529734039e+02    2.1945201874e+01
    1.0539868164e+02    2.1991001129e+01
    1.0549820709e+02    2.2035900116e+01
    1.0559748840e+02    2.2080501556e+01
    1.0569841766e+02    2.2125598907e+01
    1.0579753113e+02    2.2169700623e+01
    1.0589762878e+02    2.2214097977e+01
    1.0599735260e+02    2.2258197784e+01
    1.0609765625e+02    2.2302402496e+01
    1.0619872284e+02    2.2346698761e+01
    1.0629737854e+02    2.2389900208e+01
    1.0639750671e+02    2.2433502197e+01
    1.0649858856e+02    2.2477500916e+01
    1.0659793091e+02    2.2520500183e+01
    1.0669734192e+02    2.2563400269e+01
    1.0679827118e+02    2.2606800079e+01
    1.0689855194e+02    2.2649898529e+01
    1.0699799347e+02    2.2692501068e+01
    1.0709887695e+02    2.2735698700e+01
    1.0719808960e+02    2.2777999878e+01
    1.0729727936e+02    2.2820199966e+01
    1.0739816284e+02    2.2863098145e+01
    1.0749823761e+02    2.2905498505e+01
    1.0759735870e+02    2.2947502136e+01
    1.0769805145e+02    2.2989900589e+01
    1.0779737091e+02    2.3031600952e+01
    1.0789832306e+02    2.3073997498e+01
    1.0799729919e+02    2.3115501404e+01
    1.0809792328e+02    2.3157497406e+01
    1.0819731903e+02    2.3199001312e+01
    1.0829875946e+02    2.3241199493e+01
    1.0839759064e+02    2.3282299042e+01
    1.0849822235e+02    2.3323900223e+01
    1.0859729767e+02    2.3364900589e+01
    1.0869792938e+02    2.3406301498e+01
    1.0879718018e+02    2.3447101593e+01
    1.0889888763e+02    2.3488801956e+01
    1.0899825287e+02    2.3529399872e+01
    1.0909754181e+02    2.3569801331e+01
    1.0919841003e+02    2.3610898972e+01
    1.0929756927e+02    2.3650999069e+01
    1.0939753723e+02    2.3691398621e+01
    1.0949871063e+02    2.3732101440e+01
    1.0959799194e+02    2.3771898270e+01
    1.0969882202e+02    2.3812101364e+01
    1.0979721832e+02    2.3851301193e+01
    1.0989875793e+02    2.3891502380e+01
    1.0999787140e+02    2.3930698395e+01
    1.1009870911e+02    2.3991401672e+01
    1.1019789124e+02    2.4051599503e+01
    1.1029884338e+02    2.4112600327e+01
    1.1039797974e+02    2.4172399521e+01
    1.1049723816e+02    2.4232101440e+01
    1.1059748077e+02    2.4292201996e+01
    1.1069818878e+02    2.4352401733e+01
    1.1079756927e+02    2.4411699295e+01
    1.1089885712e+02    2.4472000122e+01
    1.1099804688e+02    2.4530998230e+01
    1.1109879303e+02    2.4590801239e+01
    1.1119789886e+02    2.4649400711e+01
    1.1129876709e+02    2.4708997726e+01
    1.1139830017e+02    2.4767599106e+01
    1.1149875641e+02    2.4826700211e+01
    1.1159799957e+02    2.4884901047e+01
    1.1169873810e+02    2.4943799973e+01
    1.1179791260e+02    2.5001699448e+01
    1.1189804840e+02    2.5060100555e+01
    1.1199755859e+02    2.5117900848e+01
    1.1209803009e+02    2.5176198959e+01
    1.1219847107e+02    2.5234500885e+01
    1.1229734802e+02    2.5291797638e+01
    1.1239826202e+02    2.5350000381e+01
    1.1249878693e+02    2.5408000946e+01
    1.1259828949e+02    2.5465200424e+01
    1.1269821930e+02    2.5522500992e+01
    1.1279791260e+02    2.5579597473e+01
    1.1289859772e+02    2.5637300491e+01
    1.1299759674e+02    2.5693901062e+01
    1.1309866333e+02    2.5751701355e+01
    1.1319850159e+02    2.5808601379e+01
    1.1329772186e+02    2.5865100861e+01
    1.1339862823e+02    2.5922302246e+01
    1.1349777222e+02    2.5978500366e+01
    1.1359857941e+02    2.6035499573e+01
    1.1369802094e+02    2.6091499329e+01
    1.1379718781e+02    2.6147298813e+01
    1.1389807129e+02    2.6203800201e+01
    1.1399727631e+02    2.6259298325e+01
    1.1409815216e+02    2.6315601349e+01
    1.1419738770e+02    2.6370798111e+01
    1.1429837799e+02    2.6426898956e+01
    1.1439730072e+02    2.6481601715e+01
    1.1449720764e+02    2.6536600113e+01
    1.1459716797e+02    2.6591499329e+01
    1.1469831848e+02    2.6646799088e+01
    1.1479756165e+02    2.6700899124e+01
    1.1489849854e+02    2.6755701065e+01
    1.1499820709e+02    2.6809499741e+01
    1.1509728241e+02    2.6862899780e+01
    1.1519814301e+02    2.6917100906e+01
    1.1529728699e+02    2.6970100403e+01
    1.1539869690e+02    2.7024000168e+01
    1.1549806976e+02    2.7076700211e+01
    1.1559735107e+02    2.7129198074e+01
    1.1569825745e+02    2.7182100296e+01
    1.1579724884e+02    2.7233900070e+01
    1.1589794922e+02    2.7286399841e+01
    1.1599851227e+02    2.7338600159e+01
    1.1609796906e+02    2.7390001297e+01
    1.1619730377e+02    2.7441198349e+01
    1.1629730988e+02    2.7492601395e+01
    1.1639865112e+02    2.7544399261e+01
    1.1649848938e+02    2.7595401764e+01
    1.1659783936e+02    2.7645898819e+01
    1.1669870758e+02    2.7697000504e+01
    1.1679785156e+02    2.7746999741e+01
    1.1689777374e+02    2.7797399521e+01
    1.1699874878e+02    2.7848199844e+01
    1.1709776306e+02    2.7897800446e+01
    1.1719838715e+02    2.7948200226e+01
    1.1729730225e+02    2.7997499466e+01
    1.1739804840e+02    2.8047700882e+01
    1.1749797058e+02    2.8097301483e+01
    1.1759831238e+02    2.8146900177e+01
    1.1769725800e+02    2.8195800781e+01
    1.1779801941e+02    2.8245399475e+01
    1.1789868927e+02    2.8294799805e+01
    1.1799755859e+02    2.8343200684e+01
    1.1809806061e+02    2.8392299652e+01
    1.1819732666e+02    2.8440700531e+01
    1.1829740143e+02    2.8489299774e+01
    1.1839772797e+02    2.8537998199e+01
    1.1849816895e+02    2.8586500168e+01
    1.1859873962e+02    2.8635000229e+01
    1.1869751740e+02    2.8682498932e+01
    1.1879865265e+02    2.8730899811e+01
    1.1889803314e+02    2.8778400421e+01
    1.1899707031e+02    2.8825599670e+01
    1.1909777069e+02    2.8873399734e+01
    1.1919844055e+02    2.8920999527e+01
    1.1929756927e+02    2.8967798233e+01
    1.1939790344e+02    2.9015001297e+01
    1.1949729156e+02    2.9061399460e+01
    1.1959799957e+02    2.9108398438e+01
    1.1969866180e+02    2.9155200958e+01
    1.1979846954e+02    2.9201299667e+01
    1.1989839935e+02    2.9247402191e+01
    1.1999738312e+02    2.9292798996e+01
    1.2009808350e+02    2.9361999512e+01
    1.2019773865e+02    2.9430999756e+01
    1.2029847717e+02    2.9500499725e+01
    1.2039740753e+02    2.9568601608e+01
    1.2049803162e+02    2.9637601852e+01
    1.2059742737e+02    2.9705600739e+01
    1.2069798279e+02    2.9774099350e+01
    1.2079718018e+02    2.9841701508e+01
    1.2089823151e+02    2.9910301208e+01
    1.2099719238e+02    2.9977298737e+01
    1.2109765625e+02    3.0045301437e+01
    1.2119815826e+02    3.0113100052e+01
    1.2129705811e+02    3.0179601669e+01
    1.2139801025e+02    3.0247398376e+01
    1.2149819183e+02    3.0314500809e+01
    1.2159750366e+02    3.0380901337e+01
    1.2169822693e+02    3.0447999954e+01
    1.2179718781e+02    3.0513700485e+01
    1.2189714050e+02    3.0580099106e+01
    1.2199787140e+02    3.0646799088e+01
    1.2209808350e+02    3.0713100433e+01
    1.2219827271e+02    3.0779098511e+01
    1.2229856110e+02    3.0845199585e+01
    1.2239752197e+02    3.0910200119e+01
    1.2249797058e+02    3.0975999832e+01
    1.2259732056e+02    3.1040998459e+01
    1.2269754028e+02    3.1106401443e+01
    1.2279802704e+02    3.1171800613e+01
    1.2289845276e+02    3.1237098694e+01
    1.2299719238e+02    3.1301198959e+01
    1.2309793854e+02    3.1366498947e+01
    1.2319763184e+02    3.1431100845e+01
    1.2329828644e+02    3.1496097565e+01
    1.2339723206e+02    3.1559801102e+01
    1.2349777222e+02    3.1624401093e+01
    1.2359832001e+02    3.1688699722e+01
    1.2369721985e+02    3.1751901627e+01
    1.2379785919e+02    3.1815898895e+01
    1.2389851379e+02    3.1879699707e+01
    1.2399751282e+02    3.1942398071e+01
    1.2409815216e+02    3.2005996704e+01
    1.2419718170e+02    3.2068298340e+01
    1.2429795837e+02    3.2131500244e+01
    1.2439791107e+02    3.2193901062e+01
    1.2449751282e+02    3.2255798340e+01
    1.2459761047e+02    3.2317699432e+01
    1.2469860077e+02    3.2380001068e+01
    1.2479763794e+02    3.2440700531e+01
    1.2489837646e+02    3.2502201080e+01
    1.2499784088e+02    3.2562698364e+01
    1.2509841919e+02    3.2623703003e+01
    1.2519795227e+02    3.2683700562e+01
    1.2529863739e+02    3.2744197845e+01
    1.2539840698e+02    3.2803901672e+01
    1.2549758148e+02    3.2862899780e+01
    1.2559835815e+02    3.2922401428e+01
    1.2569743347e+02    3.2980796814e+01
    1.2579795837e+02    3.3039703369e+01
    1.2589849854e+02    3.3098396301e+01
    1.2599730682e+02    3.3155899048e+01
    1.2609815979e+02    3.3214199066e+01
    1.2619728088e+02    3.3271400452e+01
    1.2629692841e+02    3.3328598022e+01
    1.2639739227e+02    3.3386100769e+01
    1.2649748993e+02    3.3443199158e+01
    1.2659832001e+02    3.3500297546e+01
    1.2669731903e+02    3.3556301117e+01
    1.2679792786e+02    3.3612899780e+01
    1.2689849091e+02    3.3669399261e+01
    1.2699733734e+02    3.3724800110e+01
    1.2709779358e+02    3.3780899048e+01
    1.2719818115e+02    3.3836799622e+01
    1.2729853058e+02    3.3892501831e+01
    1.2739724731e+02    3.3947097778e+01
    1.2749758148e+02    3.4002502441e+01
    1.2759700012e+02    3.4056999207e+01
    1.2769730377e+02    3.4111999512e+01
    1.2779781342e+02    3.4166698456e+01
    1.2789823914e+02    3.4221397400e+01
    1.2799846649e+02    3.4275699615e+01
    1.2809695435e+02    3.4329002380e+01
    1.2819735718e+02    3.4383102417e+01
    1.2829838562e+02    3.4437400818e+01
    1.2839834595e+02    3.4490898132e+01
    1.2849844360e+02    3.4544303894e+01
    1.2859716797e+02    3.4596797943e+01
    1.2869725037e+02    3.4649803162e+01
    1.2879832458e+02    3.4703102112e+01
    1.2889860535e+02    3.4755901337e+01
    1.2899740601e+02    3.4807697296e+01
    1.2909783936e+02    3.4860202789e+01
    1.2919859314e+02    3.4912597656e+01
    1.2929730225e+02    3.4963802338e+01
    1.2939770508e+02    3.5015602112e+01
    1.2949868774e+02    3.5067504883e+01
    1.2959751892e+02    3.5117996216e+01
    1.2969787598e+02    3.5169097900e+01
    1.2979809570e+02    3.5219799042e+01
    1.2989840698e+02    3.5270401001e+01
    1.2999867249e+02    3.5320800781e+01
    1.3009730530e+02    3.5395202637e+01
    1.3019839478e+02    3.5471500397e+01
    1.3029724121e+02    3.5545803070e+01
    1.3039744568e+02    3.5621101379e+01
    1.3049769592e+02    3.5695999146e+01
    1.3059817505e+02    3.5770797729e+01
    1.3069857788e+02    3.5845401764e+01
    1.3079743958e+02    3.5918601990e+01
    1.3089842224e+02    3.5993297577e+01
    1.3099862671e+02    3.6067104340e+01
    1.3109870911e+02    3.6140701294e+01
    1.3119718933e+02    3.6213001251e+01
    1.3129754639e+02    3.6286403656e+01
    1.3139839172e+02    3.6359901428e+01
    1.3149821472e+02    3.6432403564e+01
    1.3159819031e+02    3.6504898071e+01
    1.3169831848e+02    3.6577201843e+01
    1.3179718018e+02    3.6648395538e+01
    1.3189866638e+02    3.6721401215e+01
    1.3199807739e+02    3.6792598724e+01
    1.3209796143e+02    3.6864101410e+01
    1.3219781494e+02    3.6935398102e+01
    1.3229782104e+02    3.7006599426e+01
    1.3239814758e+02    3.7077800751e+01
    1.3249740601e+02    3.7148097992e+01
    1.3259811401e+02    3.7219001770e+01
    1.3269793701e+02    3.7289299011e+01
    1.3279815674e+02    3.7359695435e+01
    1.3289840698e+02    3.7429901123e+01
    1.3299867249e+02    3.7499996185e+01
    1.3309739685e+02    3.7568901062e+01
    1.3319863892e+02    3.7639297485e+01
    1.3329887390e+02    3.7708797455e+01
    1.3339753723e+02    3.7777000427e+01
    1.3349780273e+02    3.7845996857e+01
    1.3359806824e+02    3.7914703369e+01
    1.3369839478e+02    3.7983196259e+01
    1.3379867554e+02    3.8051403046e+01
    1.3389851379e+02    3.8119098663e+01
    1.3399891663e+02    3.8186901093e+01
    1.3409765625e+02    3.8253303528e+01
    1.3419812012e+02    3.8320598602e+01
    1.3429856873e+02    3.8387599945e+01
    1.3439782715e+02    3.8453502655e+01
    1.3449870300e+02    3.8520099640e+01
    1.3459771729e+02    3.8585098267e+01
    1.3469856262e+02    3.8651000977e+01
    1.3479890442e+02    3.8716197968e+01
    1.3489761353e+02    3.8779998779e+01
    1.3499873352e+02    3.8845100403e+01
    1.3509901428e+02    3.8909198761e+01
    1.3519869995e+02    3.8972702026e+01
    1.3529754639e+02    3.9035301208e+01
    1.3539869690e+02    3.9098903656e+01
    1.3549760437e+02    3.9160804749e+01
    1.3559799194e+02    3.9223297119e+01
    1.3569842529e+02    3.9285400391e+01
    1.3579827881e+02    3.9346904755e+01
    1.3589862061e+02    3.9408199310e+01
    1.3599896240e+02    3.9469303131e+01
    1.3609774780e+02    3.9529197693e+01
    1.3619810486e+02    3.9589698792e+01
    1.3629826355e+02    3.9649898529e+01
    1.3639825439e+02    3.9709598541e+01
    1.3649757385e+02    3.9768699646e+01
    1.3659808350e+02    3.9828102112e+01
    1.3669847107e+02    3.9887199402e+01
    1.3679878235e+02    3.9946002960e+01
    1.3689747620e+02    4.0003597260e+01
    1.3699780273e+02    4.0062000275e+01
    1.3709785461e+02    4.0119998932e+01
    1.3719793701e+02    4.0177700043e+01
    1.3729806519e+02    4.0235397339e+01
    1.3739796448e+02    4.0292499542e+01
    1.3749807739e+02    4.0349601746e+01
    1.3759907532e+02    4.0406902313e+01
    1.3769883728e+02    4.0463199615e+01
    1.3779774475e+02    4.0518798828e+01
    1.3789756775e+02    4.0574600220e+01
    1.3799891663e+02    4.0631099701e+01
    1.3809855652e+02    4.0686397552e+01
    1.3819862366e+02    4.0741897583e+01
    1.3829768372e+02    4.0796401978e+01
    1.3839877319e+02    4.0852001190e+01
    1.3849853516e+02    4.0906497955e+01
    1.3859878540e+02    4.0960895538e+01
    1.3869836426e+02    4.1014801025e+01
    1.3879866028e+02    4.1068798065e+01
    1.3889797974e+02    4.1122100830e+01
    1.3899824524e+02    4.1175598145e+01
    1.3909844971e+02    4.1228904724e+01
    1.3919772339e+02    4.1281497955e+01
    1.3929809570e+02    4.1334300995e+01
    1.3939799500e+02    4.1386604309e+01
    1.3949855042e+02    4.1438896179e+01
    1.3959912109e+02    4.1490997314e+01
    1.3969908142e+02    4.1542297363e+01
    1.3979875183e+02    4.1593303680e+01
    1.3989852905e+02    4.1644100189e+01
    1.3999824524e+02    4.1694602966e+01
    1.4009802246e+02    4.1769199371e+01
    1.4019888306e+02    4.1844902039e+01
    1.4029925537e+02    4.1919898987e+01
    1.4039895630e+02    4.1994098663e+01
    1.4049870300e+02    4.2067897797e+01
    1.4059858704e+02    4.2141605377e+01
    1.4069889832e+02    4.2215301514e+01
    1.4079934692e+02    4.2288795471e+01
    1.4089869690e+02    4.2361301422e+01
    1.4099873352e+02    4.2434097290e+01
    1.4109840393e+02    4.2506298065e+01
    1.4119822693e+02    4.2578304291e+01
    1.4129843140e+02    4.2650402069e+01
    1.4139924622e+02    4.2722599030e+01
    1.4149940491e+02    4.2794002533e+01
    1.4159899902e+02    4.2864803314e+01
    1.4169871521e+02    4.2935401917e+01
    1.4179858398e+02    4.3005798340e+01
    1.4189810181e+02    4.3075702667e+01
    1.4199940491e+02    4.3146701813e+01
    1.4209890747e+02    4.3216201782e+01
    1.4219841003e+02    4.3285396576e+01
    1.4229815674e+02    4.3354496002e+01
    1.4239845276e+02    4.3423702240e+01
    1.4249946594e+02    4.3493095398e+01
    1.4259826660e+02    4.3560703278e+01
    1.4269929504e+02    4.3629497528e+01
    1.4279949951e+02    4.3697597504e+01
    1.4289939880e+02    4.3765102386e+01
    1.4299945068e+02    4.3832595825e+01
    1.4309793091e+02    4.3898700714e+01
    1.4319804382e+02    4.3965801239e+01
    1.4329939270e+02    4.4033199310e+01
    1.4339944458e+02    4.4099498749e+01
    1.4349937439e+02    4.4165195465e+01
    1.4359838867e+02    4.4230098724e+01
    1.4369842529e+02    4.4295303345e+01
    1.4379821777e+02    4.4359901428e+01
    1.4389837646e+02    4.4424400330e+01
    1.4399838257e+02    4.4488601685e+01
    1.4409854126e+02    4.4552505493e+01
    1.4419802856e+02    4.4615501404e+01
    1.4429800415e+02    4.4678501129e+01
    1.4439950562e+02    4.4742095947e+01
    1.4449960327e+02    4.4804298401e+01
    1.4459878540e+02    4.4865596771e+01
    1.4469810486e+02    4.4926395416e+01
    1.4479824829e+02    4.4987396240e+01
    1.4489863586e+02    4.5048099518e+01
    1.4499844360e+02    4.5108100891e+01
    1.4509855652e+02    4.5167800903e+01
    1.4519798279e+02    4.5226699829e+01
    1.4529832458e+02    4.5285804749e+01
    1.4539889526e+02    4.5344596863e+01
    1.4549913025e+02    4.5402702332e+01
    1.4559898376e+02    4.5460102081e+01
    1.4569894409e+02    4.5517196655e+01
    1.4579841614e+02    4.5573699951e+01
    1.4589828491e+02    4.5629997253e+01
    1.4599812317e+02    4.5685802460e+01
    1.4609942627e+02    4.5742198944e+01
    1.4619918823e+02    4.5797397614e+01
    1.4629907227e+02    4.5852302551e+01
    1.4639834595e+02    4.5906501770e+01
    1.4649894714e+02    4.5961105347e+01
    1.4659930420e+02    4.6015201569e+01
    1.4669927979e+02    4.6068595886e+01
    1.4679940796e+02    4.6121997833e+01
    1.4689947510e+02    4.6174999237e+01
    1.4699952698e+02    4.6227699280e+01
    1.4709942627e+02    4.6280097961e+01
    1.4719911194e+02    4.6331996918e+01
    1.4729884338e+02    4.6383697510e+01
    1.4739976501e+02    4.6435802460e+01
    1.4749906921e+02    4.6486598969e+01
    1.4759840393e+02    4.6537097931e+01
    1.4769970703e+02    4.6588302612e+01
    1.4779841614e+02    4.6637901306e+01
    1.4789926147e+02    4.6688301086e+01
    1.4799838257e+02    4.6737602234e+01
    1.4809913635e+02    4.6787300110e+01
    1.4819918823e+02    4.6836402893e+01
    1.4829852295e+02    4.6885002136e+01
    1.4839909363e+02    4.6933803558e+01
    1.4849845886e+02    4.6981700897e+01
    1.4859901428e+02    4.7029899597e+01
    1.4869975281e+02    4.7077899933e+01
    1.4879985046e+02    4.7125202179e+01
    1.4889826965e+02    4.7171604156e+01
    1.4899830627e+02    4.7218498230e+01
    1.4909826660e+02    4.7264099121e+01
    1.4919912720e+02    4.7311000824e+01
    1.4929981995e+02    4.7356899261e+01
    1.4939924622e+02    4.7402202606e+01
    1.4949879456e+02    4.7446994781e+01
    1.4959976196e+02    4.7491298676e+01
    1.4969953918e+02    4.7535999298e+01
    1.4979870605e+02    4.7579299927e+01
    1.4989965820e+02    4.7623500824e+01
    1.4999891663e+02    4.7666004181e+01
    1.5009838867e+02    4.7731800079e+01
    1.5019891357e+02    4.7798702240e+01
    1.5029913330e+02    4.7865600586e+01
    1.5039889526e+02    4.7930904388e+01
    1.5049899292e+02    4.7996299744e+01
    1.5059843445e+02    4.8060302734e+01
    1.5069836426e+02    4.8125099182e+01
    1.5079855347e+02    4.8189300537e+01
    1.5089982605e+02    4.8254394531e+01
    1.5099908447e+02    4.8317302704e+01
    1.5109852600e+02    4.8379596710e+01
    1.5119973755e+02    4.8443901062e+01
    1.5129978943e+02    4.8506603241e+01
    1.5139848328e+02    4.8568000793e+01
    1.5149995422e+02    4.8630802155e+01
    1.5159938049e+02    4.8691299438e+01
    1.5169859314e+02    4.8751903534e+01
    1.5179953003e+02    4.8813396454e+01
    1.5189860535e+02    4.8873504639e+01
    1.5199931335e+02    4.8933696747e+01
    1.5209863281e+02    4.8992801666e+01
    1.5219967651e+02    4.9052898407e+01
    1.5229913330e+02    4.9111999512e+01
    1.5239923096e+02    4.9170795441e+01
    1.5249870300e+02    4.9229202271e+01
    1.5259909058e+02    4.9286796570e+01
    1.5269920349e+02    4.9344398499e+01
    1.5279948425e+02    4.9402503967e+01
    1.5289895630e+02    4.9458400726e+01
    1.5299873352e+02    4.9514595032e+01
    1.5309861755e+02    4.9571300507e+01
    1.5320013428e+02    4.9628002167e+01
    1.5329937744e+02    4.9682899475e+01
    1.5339901733e+02    4.9737701416e+01
    1.5349862671e+02    4.9792198181e+01
    1.5359895325e+02    4.9847000122e+01
    1.5369897461e+02    4.9899799347e+01
    1.5379997253e+02    4.9953701019e+01
    1.5389973450e+02    5.0007102966e+01
    1.5399942017e+02    5.0059299469e+01
    1.5409916687e+02    5.0110897064e+01
    1.5419989014e+02    5.0162597656e+01
    1.5429939270e+02    5.0213703156e+01
    1.5439872742e+02    5.0263698578e+01
    1.5450015259e+02    5.0314701080e+01
    1.5459936523e+02    5.0363899231e+01
    1.5469862366e+02    5.0412601471e+01
    1.5479869080e+02    5.0461399078e+01
    1.5489889526e+02    5.0509502411e+01
    1.5499986267e+02    5.0557895660e+01
    1.5510018921e+02    5.0605998993e+01
    1.5519934082e+02    5.0652595520e+01
    1.5529936218e+02    5.0699199677e+01
    1.5539950562e+02    5.0745204926e+01
    1.5549931335e+02    5.0790199280e+01
    1.5559864807e+02    5.0834598541e+01
    1.5569966125e+02    5.0879699707e+01
    1.5579980469e+02    5.0923805237e+01
    1.5589907837e+02    5.0968002319e+01
    1.5599989319e+02    5.1011100769e+01
    1.5609898376e+02    5.1053794861e+01
    1.5619949341e+02    5.1096702576e+01
    1.5629893494e+02    5.1138099670e+01
    1.5640017700e+02    5.1180900574e+01
    1.5650030518e+02    5.1222305298e+01
    1.5659988403e+02    5.1263298035e+01
    1.5669958496e+02    5.1303596497e+01
    1.5679930115e+02    5.1343597412e+01
    1.5689979553e+02    5.1383903503e+01
    1.5699882507e+02    5.1422500610e+01
    1.5709938049e+02    5.1462005615e+01
    1.5719938660e+02    5.1501197815e+01
    1.5729985046e+02    5.1540298462e+01
    1.5740026855e+02    5.1578994751e+01
    1.5749960327e+02    5.1616302490e+01
    1.5759928894e+02    5.1653594971e+01
    1.5770018005e+02    5.1691398621e+01
    1.5779916382e+02    5.1727195740e+01
    1.5789964294e+02    5.1763999939e+01
    1.5800004578e+02    5.1800605774e+01
    1.5810040283e+02    5.1835899353e+01
    1.5820005798e+02    5.1871101379e+01
    1.5829896545e+02    5.1906402588e+01
    1.5839921570e+02    5.1940803528e+01
    1.5849998474e+02    5.1975997925e+01
    1.5859967041e+02    5.2009704590e+01
    1.5870037842e+02    5.2043098450e+01
    1.5879989624e+02    5.2076400757e+01
    1.5889967346e+02    5.2108795166e+01
    1.5899940491e+02    5.2140899658e+01
    1.5909904480e+02    5.2172798157e+01
    1.5919958496e+02    5.2204704285e+01
    1.5929911804e+02    5.2235900879e+01
    1.5939991760e+02    5.2266403198e+01
    1.5949905396e+02    5.2296493530e+01
    1.5959948730e+02    5.2326797485e+01
    1.5969940186e+02    5.2356605530e+01
    1.5980003357e+02    5.2385597229e+01
    1.5989930725e+02    5.2413803101e+01
    1.5999998474e+02    5.2441902161e+01
    1.6010011292e+02    5.2491699219e+01
    1.6019888306e+02    5.2540596008e+01
    1.6029980469e+02    5.2590003967e+01
    1.6040043640e+02    5.2638504028e+01
    1.6049995422e+02    5.2685699463e+01
    1.6059945679e+02    5.2733398438e+01
    1.6070010376e+02    5.2780601501e+01
    1.6079989624e+02    5.2826995850e+01
    1.6090049744e+02    5.2873397827e+01
    1.6100001526e+02    5.2919494629e+01
    1.6109985352e+02    5.2964599609e+01
    1.6119900513e+02    5.3009597778e+01
    1.6130030823e+02    5.3055099487e+01
    1.6139974976e+02    5.3098701477e+01
    1.6149926758e+02    5.3142799377e+01
    1.6159988403e+02    5.3186203003e+01
    1.6170040894e+02    5.3229499817e+01
    1.6179924011e+02    5.3270606995e+01
    1.6189978027e+02    5.3313102722e+01
    1.6199972534e+02    5.3355293274e+01
    1.6209907532e+02    5.3396301270e+01
    1.6220005798e+02    5.3437698364e+01
    1.6229914856e+02    5.3478401184e+01
    1.6240036011e+02    5.3518394470e+01
    1.6249923706e+02    5.3557693481e+01
    1.6259989929e+02    5.3596908569e+01
    1.6269950867e+02    5.3635803223e+01
    1.6279928589e+02    5.3674003601e+01
    1.6290002441e+02    5.3712898254e+01
    1.6299935913e+02    5.3750205994e+01
    1.6310037231e+02    5.3787696838e+01
    1.6319979858e+02    5.3824005127e+01
    1.6330026245e+02    5.3860702515e+01
    1.6339941406e+02    5.3896591187e+01
    1.6350062561e+02    5.3931900024e+01
    1.6359965515e+02    5.3967002869e+01
    1.6370031738e+02    5.4001403809e+01
    1.6379924011e+02    5.4034904480e+01
    1.6389910889e+02    5.4067901611e+01
    1.6400036621e+02    5.4101699829e+01
    1.6409971619e+02    5.4133995056e+01
    1.6419929504e+02    5.4166290283e+01
    1.6430053711e+02    5.4197799683e+01
    1.6439923096e+02    5.4228996277e+01
    1.6449960327e+02    5.4260299683e+01
    1.6460072327e+02    5.4290504456e+01
    1.6469943237e+02    5.4320304871e+01
    1.6479927063e+02    5.4349205017e+01
    1.6490065002e+02    5.4378402710e+01
    1.6500033569e+02    5.4406700134e+01
    1.6509953308e+02    5.4433601379e+01
    1.6520048523e+02    5.4461410522e+01
    1.6529978943e+02    5.4488098145e+01
    1.6539950562e+02    5.4514595032e+01
    1.6550042725e+02    5.4540901184e+01
    1.6559939575e+02    5.4566993713e+01
    1.6570001221e+02    5.4592094421e+01
    1.6580070496e+02    5.4616592407e+01
    1.6590083313e+02    5.4640800476e+01
    1.6599975586e+02    5.4664299011e+01
    1.6610025024e+02    5.4687896729e+01
    1.6620011902e+02    5.4710494995e+01
    1.6630036926e+02    5.4733894348e+01
    1.6639933777e+02    5.4755699158e+01
    1.6650041199e+02    5.4777503967e+01
    1.6659968567e+02    5.4798797607e+01
    1.6670066833e+02    5.4819999695e+01
    1.6679992676e+02    5.4840591431e+01
    1.6689953613e+02    5.4860992432e+01
    1.6699974060e+02    5.4880798340e+01
    1.6709938049e+02    5.4900497437e+01
    1.6719966125e+02    5.4919403076e+01
    1.6729985046e+02    5.4938095093e+01
    1.6740003967e+02    5.4956405640e+01
    1.6750053406e+02    5.4974700928e+01
    1.6760096741e+02    5.4992599487e+01
    1.6769992065e+02    5.5009399414e+01
    1.6780101013e+02    5.5026008606e+01
    1.6789971924e+02    5.5042503357e+01
    1.6800006104e+02    5.5057998657e+01
    1.6809945679e+02    5.5074195862e+01
    1.6819952393e+02    5.5088500977e+01
    1.6829986572e+02    5.5103797913e+01
    1.6840026855e+02    5.5118591309e+01
    1.6849960327e+02    5.5132202148e+01
    1.6860047913e+02    5.5144996643e+01
    1.6869975281e+02    5.5157989502e+01
    1.6880039978e+02    5.5171401978e+01
    1.6889967346e+02    5.5183502197e+01
    1.6900054932e+02    5.5194503784e+01
    1.6909971619e+02    5.5205894470e+01
    1.6919961548e+02    5.5216194153e+01
    1.6930058289e+02    5.5226699829e+01
    1.6939970398e+02    5.5236793518e+01
    1.6950042725e+02    5.5245796204e+01
    1.6959986877e+02    5.5255210876e+01
    1.6969992065e+02    5.5263801575e+01
    1.6980070496e+02    5.5271293640e+01
    1.6989967346e+02    5.5278396606e+01
    1.7000035095e+02    5.5286201477e+01
    1.7010105896e+02    5.5313499451e+01
    1.7019952393e+02    5.5339492798e+01
    1.7030058289e+02    5.5365104675e+01
    1.7040028381e+02    5.5391403198e+01
    1.7049955750e+02    5.5416198730e+01
    1.7059980774e+02    5.5440292358e+01
    1.7070106506e+02    5.5465499878e+01
    1.7080041504e+02    5.5488800049e+01
    1.7089991760e+02    5.5512405396e+01
    1.7100047302e+02    5.5535003662e+01
    1.7110046387e+02    5.5557601929e+01
    1.7119970703e+02    5.5579498291e+01
    1.7130049133e+02    5.5601409912e+01
    1.7140101624e+02    5.5623298645e+01
    1.7149992371e+02    5.5643806458e+01
    1.7160052490e+02    5.5663696289e+01
    1.7170057678e+02    5.5684494019e+01
    1.7180087280e+02    5.5703407288e+01
    1.7190121460e+02    5.5722694397e+01
    1.7200007629e+02    5.5741203308e+01
    1.7210067749e+02    5.5760093689e+01
    1.7219967651e+02    5.5777496338e+01
    1.7230105591e+02    5.5795692444e+01
    1.7240118408e+02    5.5812400818e+01
    1.7250021362e+02    5.5829399109e+01
    1.7260110474e+02    5.5845397949e+01
    1.7270118713e+02    5.5861007690e+01
    1.7280120850e+02    5.5876403809e+01
    1.7289999390e+02    5.5891304016e+01
    1.7300036621e+02    5.5905990601e+01
    1.7310069275e+02    5.5919998169e+01
    1.7320106506e+02    5.5933998108e+01
    1.7330119324e+02    5.5947998047e+01
    1.7339979553e+02    5.5960998535e+01
    1.7350003052e+02    5.5973999023e+01
    1.7360105896e+02    5.5984992981e+01
    1.7370126343e+02    5.5997001648e+01
    1.7379988098e+02    5.6006996155e+01
    1.7390127563e+02    5.6019004822e+01
    1.7400016785e+02    5.6028991699e+01
    1.7410078430e+02    5.6039001465e+01
    1.7419984436e+02    5.6047996521e+01
    1.7430050659e+02    5.6057006836e+01
    1.7440010071e+02    5.6064994812e+01
    1.7450057983e+02    5.6072998047e+01
    1.7460093689e+02    5.6081001282e+01
    1.7470027161e+02    5.6087997437e+01
    1.7480104065e+02    5.6095001221e+01
    1.7490008545e+02    5.6100997925e+01
    1.7500077820e+02    5.6106994629e+01
    1.7510008240e+02    5.6111991882e+01
    1.7520135498e+02    5.6116996765e+01
    1.7530017090e+02    5.6122001648e+01
    1.7540055847e+02    5.6125999451e+01
    1.7550108337e+02    5.6129997253e+01
    1.7560006714e+02    5.6133003235e+01
    1.7570068359e+02    5.6135993958e+01
    1.7580131531e+02    5.6138000488e+01
    1.7590080261e+02    5.6139999390e+01
    1.7600148010e+02    5.6141998291e+01
    1.7610046387e+02    5.6141998291e+01
    1.7620103455e+02    5.6142997742e+01
    1.7630137634e+02    5.6143997192e+01
    1.7640054321e+02    5.6143997192e+01
    1.7650120544e+02    5.6142997742e+01
    1.7660021973e+02    5.6141998291e+01
    1.7670088196e+02    5.6141006470e+01
    1.7680137634e+02    5.6139007568e+01
    1.7690008545e+02    5.6136001587e+01
    1.7700097656e+02    5.6134010315e+01
    1.7710043335e+02    5.6131004333e+01
    1.7720098877e+02    5.6127998352e+01
    1.7730128479e+02    5.6125000000e+01
    1.7740147400e+02    5.6119995117e+01
    1.7750160217e+02    5.6115997314e+01
    1.7760011292e+02    5.6111000061e+01
    1.7770024109e+02    5.6104995728e+01
    1.7780085754e+02    5.6099998474e+01
    1.7790127563e+02    5.6093002319e+01
    1.7800007629e+02    5.6085990906e+01
    1.7810043335e+02    5.6078994751e+01
    1.7819999695e+02    5.6071998596e+01
    1.7830093384e+02    5.6062995911e+01
    1.7840130615e+02    5.6055000305e+01
    1.7850007629e+02    5.6046005249e+01
    1.7860058594e+02    5.6036003113e+01
    1.7870144653e+02    5.6026000977e+01
    1.7880006409e+02    5.6017005920e+01
    1.7890025330e+02    5.6006004333e+01
    1.7900039673e+02    5.5995002747e+01
    1.7910046387e+02    5.5983001709e+01
    1.7920065308e+02    5.5970993042e+01
    1.7930134583e+02    5.5959007263e+01
    1.7940043640e+02    5.5945999146e+01
    1.7950114441e+02    5.5932998657e+01
    1.7960130310e+02    5.5918006897e+01
    1.7970114136e+02    5.5904998779e+01
    1.7980035400e+02    5.5889999390e+01
    1.7990080261e+02    5.5875000000e+01
    1.8000129700e+02    5.5859001160e+01
    1.8010101318e+02    5.5861000061e+01
    1.8020059204e+02    5.5861999512e+01
    1.8030053711e+02    5.5862998962e+01
    1.8040177917e+02    5.5863990784e+01
    1.8050073242e+02    5.5862998962e+01
    1.8060098267e+02    5.5862998962e+01
    1.8070153809e+02    5.5862007141e+01
    1.8080041504e+02    5.5861000061e+01
    1.8090086365e+02    5.5859001160e+01
    1.8100143433e+02    5.5856994629e+01
    1.8110075378e+02    5.5855995178e+01
    1.8120121765e+02    5.5853004456e+01
    1.8130143738e+02    5.5850006104e+01
    1.8140159607e+02    5.5847007751e+01
    1.8150175476e+02    5.5843009949e+01
    1.8160064697e+02    5.5838996887e+01
    1.8170027161e+02    5.5833999634e+01
    1.8180053711e+02    5.5828994751e+01
    1.8190083313e+02    5.5824005127e+01
    1.8200117493e+02    5.5818008423e+01
    1.8210145569e+02    5.5811988831e+01
    1.8220170593e+02    5.5805992126e+01
    1.8230059814e+02    5.5800003052e+01
    1.8240180969e+02    5.5792999268e+01
    1.8250039673e+02    5.5785003662e+01
    1.8260043335e+02    5.5777992249e+01
    1.8270037842e+02    5.5769004822e+01
    1.8280059814e+02    5.5761001587e+01
    1.8290039062e+02    5.5751998901e+01
    1.8300172424e+02    5.5742004395e+01
    1.8310171509e+02    5.5733001709e+01
    1.8320158386e+02    5.5722999573e+01
    1.8330119324e+02    5.5712997437e+01
    1.8340075684e+02    5.5702003479e+01
    1.8350190735e+02    5.5690994263e+01
    1.8360156250e+02    5.5679000854e+01
    1.8370103455e+02    5.5666992188e+01
    1.8380128479e+02    5.5655014038e+01
    1.8390066528e+02    5.5641998291e+01
    1.8400117493e+02    5.5628997803e+01
    1.8410192871e+02    5.5614990234e+01
    1.8420103455e+02    5.5602005005e+01
    1.8430105591e+02    5.5587005615e+01
    1.8440144348e+02    5.5572006226e+01
    1.8450190735e+02    5.5555999756e+01
    1.8460188293e+02    5.5541000366e+01
    1.8470184326e+02    5.5525009155e+01
    1.8480177307e+02    5.5509002686e+01
    1.8490177917e+02    5.5492004395e+01
    1.8500079346e+02    5.5475006104e+01
    1.8510118103e+02    5.5456985474e+01
    1.8520118713e+02    5.5438995361e+01
    1.8530137634e+02    5.5419998169e+01
    1.8540170288e+02    5.5401992798e+01
    1.8550166321e+02    5.5382003784e+01
    1.8560166931e+02    5.5363006592e+01
    1.8570152283e+02    5.5343002319e+01
    1.8580065918e+02    5.5322998047e+01
    1.8590188599e+02    5.5300994873e+01
    1.8600158691e+02    5.5279998779e+01
    1.8610093689e+02    5.5259002686e+01
    1.8620077515e+02    5.5236999512e+01
    1.8630198669e+02    5.5214004517e+01
    1.8640144348e+02    5.5190994263e+01
    1.8650210571e+02    5.5167999268e+01
    1.8660079956e+02    5.5145004272e+01
    1.8670104980e+02    5.5120010376e+01
    1.8680114746e+02    5.5095001221e+01
    1.8690106201e+02    5.5070999146e+01
    1.8700085449e+02    5.5046997070e+01
    1.8710122681e+02    5.5020996094e+01
    1.8720141602e+02    5.4994995117e+01
    1.8730111694e+02    5.4969009399e+01
    1.8740075684e+02    5.4941986084e+01
    1.8750199890e+02    5.4914993286e+01
    1.8760191345e+02    5.4886993408e+01
    1.8770089722e+02    5.4860000610e+01
    1.8780128479e+02    5.4832000732e+01
    1.8790164185e+02    5.4804000854e+01
    1.8800190735e+02    5.4774002075e+01
    1.8810209656e+02    5.4744995117e+01
    1.8820188904e+02    5.4715988159e+01
    1.8830163574e+02    5.4686004639e+01
    1.8840135193e+02    5.4654998779e+01
    1.8850146484e+02    5.4625000000e+01
    1.8860133362e+02    5.4593002319e+01
    1.8870106506e+02    5.4561996460e+01
    1.8880215454e+02    5.4529998779e+01
    1.8890155029e+02    5.4498001099e+01
    1.8900082397e+02    5.4466003418e+01
    1.8910166931e+02    5.4432998657e+01
    1.8920079041e+02    5.4399993896e+01
    1.8930154419e+02    5.4367004395e+01
    1.8940090942e+02    5.4332992554e+01
    1.8950192261e+02    5.4298995972e+01
    1.8960197449e+02    5.4263992310e+01
    1.8970231628e+02    5.4229003906e+01
    1.8980235291e+02    5.4194000244e+01
    1.8990199280e+02    5.4159011841e+01
    1.9000164795e+02    5.4123001099e+01
    1.9010229492e+02    5.4100997925e+01
    1.9020149231e+02    5.4080001831e+01
    1.9030114746e+02    5.4057998657e+01
    1.9040095520e+02    5.4036010742e+01
    1.9050236511e+02    5.4013000488e+01
    1.9060209656e+02    5.3990005493e+01
    1.9070182800e+02    5.3967010498e+01
    1.9080157471e+02    5.3944000244e+01
    1.9090141296e+02    5.3919998169e+01
    1.9100149536e+02    5.3895996094e+01
    1.9110159302e+02    5.3871994019e+01
    1.9120138550e+02    5.3847000122e+01
    1.9130099487e+02    5.3821990967e+01
    1.9140217590e+02    5.3797012329e+01
    1.9150137329e+02    5.3771011353e+01
    1.9160223389e+02    5.3745010376e+01
    1.9170120239e+02    5.3718994141e+01
    1.9180186462e+02    5.3692001343e+01
    1.9190155029e+02    5.3666000366e+01
    1.9200210571e+02    5.3638000488e+01
    1.9210203552e+02    5.3611007690e+01
    1.9220196533e+02    5.3582992554e+01
    1.9230184937e+02    5.3555007935e+01
    1.9240197754e+02    5.3526000977e+01
    1.9250201416e+02    5.3498001099e+01
    1.9260168457e+02    5.3468994141e+01
    1.9270121765e+02    5.3440002441e+01
    1.9280232239e+02    5.3408996582e+01
    1.9290171814e+02    5.3378997803e+01
    1.9300105286e+02    5.3348007202e+01
    1.9310189819e+02    5.3318008423e+01
    1.9320108032e+02    5.3287002563e+01
    1.9330180359e+02    5.3255004883e+01
    1.9340252686e+02    5.3222991943e+01
    1.9350158691e+02    5.3191986084e+01
    1.9360174561e+02    5.3158004761e+01
    1.9370143127e+02    5.3125000000e+01
    1.9380213928e+02    5.3093002319e+01
    1.9390182495e+02    5.3059997559e+01
    1.9400187683e+02    5.3026000977e+01
    1.9410223389e+02    5.2992004395e+01
    1.9420115662e+02    5.2957992554e+01
    1.9430235291e+02    5.2923004150e+01
    1.9440165710e+02    5.2889007568e+01
[...]
    2.5130548096e+02    4.4320983887e+01
    2.5140556335e+02    4.4321990967e+01
    2.5150500488e+02    4.4322998047e+01
    2.5160597229e+02    4.4324005127e+01
    2.5170532227e+02    4.4325012207e+01
    2.5180613708e+02    4.4324005127e+01
    2.5190553284e+02    4.4325012207e+01
    2.5200570679e+02    4.4324981689e+01
    2.5210476685e+02    4.4324981689e+01
    2.5220555115e+02    4.4325988770e+01
    2.5230470276e+02    4.4324981689e+01
    2.5240509033e+02    4.4325012207e+01
    2.5250524902e+02    4.4324005127e+01
    2.5260606384e+02    4.4324005127e+01
    2.5270576477e+02    4.4322021484e+01
    2.5280520630e+02    4.4321014404e+01
    2.5290475464e+02    4.4320007324e+01
    2.5300595093e+02    4.4319000244e+01
    2.5310609436e+02    4.4316986084e+01
    2.5320559692e+02    4.4315002441e+01
    2.5330505371e+02    4.4312011719e+01
    2.5340594482e+02    4.4309997559e+01
    2.5350544739e+02    4.4307006836e+01
    2.5360604858e+02    4.4304992676e+01
    2.5370535278e+02    4.4300994873e+01
    2.5380526733e+02    4.4299011230e+01
    2.5390547180e+02    4.4295013428e+01
    2.5400564575e+02    4.4292022705e+01
    2.5410580444e+02    4.4288024902e+01
    2.5420594788e+02    4.4283996582e+01
    2.5430604553e+02    4.4280975342e+01
    2.5440631104e+02    4.4276000977e+01
    2.5450515747e+02    4.4272003174e+01
    2.5460601807e+02    4.4268005371e+01
    2.5470509338e+02    4.4263000488e+01
    2.5480586243e+02    4.4257995605e+01
    2.5490501404e+02    4.4252990723e+01
    2.5500595093e+02    4.4248016357e+01
    2.5510525513e+02    4.4243988037e+01
    2.5520550537e+02    4.4238006592e+01
    2.5530529785e+02    4.4231994629e+01
    2.5540565491e+02    4.4226013184e+01
    2.5550486755e+02    4.4220977783e+01
    2.5560517883e+02    4.4213989258e+01
    2.5570542908e+02    4.4208007812e+01
    2.5580558777e+02    4.4200988770e+01
    2.5590563965e+02    4.4194000244e+01
    2.5600558472e+02    4.4187988281e+01
    2.5610534668e+02    4.4179992676e+01
    2.5620498657e+02    4.4174011230e+01
    2.5630621338e+02    4.4166015625e+01
    2.5640496826e+02    4.4158020020e+01
    2.5650531006e+02    4.4150970459e+01
    2.5660574341e+02    4.4144012451e+01
    2.5670626831e+02    4.4135009766e+01
    2.5680499268e+02    4.4128021240e+01
    2.5690524292e+02    4.4119018555e+01
    2.5700595093e+02    4.4111999512e+01
    2.5710598755e+02    4.4104003906e+01
    2.5720565796e+02    4.4095001221e+01
    2.5730535889e+02    4.4087005615e+01
    2.5740637207e+02    4.4079010010e+01
    2.5750570679e+02    4.4070983887e+01
    2.5760626221e+02    4.4063018799e+01
    2.5770608521e+02    4.4054016113e+01
    2.5780584717e+02    4.4044982910e+01
    2.5790557861e+02    4.4035980225e+01
    2.5800524902e+02    4.4028015137e+01
    2.5810641479e+02    4.4018005371e+01
    2.5820599365e+02    4.4009002686e+01
    2.5830551147e+02    4.3999023438e+01
    2.5840499878e+02    4.3989990234e+01
    2.5850607300e+02    4.3979003906e+01
    2.5860537720e+02    4.3970001221e+01
    2.5870535278e+02    4.3960021973e+01
    2.5880538940e+02    4.3950012207e+01
    2.5890646362e+02    4.3938995361e+01
    2.5900610352e+02    4.3928985596e+01
    2.5910583496e+02    4.3918975830e+01
    2.5920565796e+02    4.3908020020e+01
    2.5930551147e+02    4.3897003174e+01
    2.5940530396e+02    4.3885986328e+01
    2.5950650024e+02    4.3875000000e+01
    2.5960607910e+02    4.3863983154e+01
    2.5970584106e+02    4.3852996826e+01
    2.5980657959e+02    4.3841003418e+01
    2.5990573120e+02    4.3830017090e+01
    2.6000640869e+02    4.3817993164e+01
    2.6010549927e+02    4.3805999756e+01
    2.6020614624e+02    4.3795989990e+01
    2.6030517578e+02    4.3783996582e+01
    2.6040570068e+02    4.3773986816e+01
    2.6050610352e+02    4.3763000488e+01
    2.6060641479e+02    4.3750976562e+01
    2.6070513916e+02    4.3739990234e+01
    2.6080636597e+02    4.3727996826e+01
    2.6090652466e+02    4.3716003418e+01
    2.6100588989e+02    4.3705993652e+01
    2.6110534668e+02    4.3692993164e+01
    2.6120532227e+02    4.3682006836e+01
    2.6130514526e+02    4.3670989990e+01
    2.6140655518e+02    4.3658996582e+01
    2.6150625610e+02    4.3647003174e+01
    2.6160571289e+02    4.3634979248e+01
    2.6170529175e+02    4.3623016357e+01
    2.6180612183e+02    4.3611999512e+01
    2.6190530396e+02    4.3600006104e+01
    2.6200595093e+02    4.3588012695e+01
    2.6210650635e+02    4.3576019287e+01
    2.6220538330e+02    4.3563995361e+01
    2.6230569458e+02    4.3552001953e+01
    2.6240591431e+02    4.3540008545e+01
    2.6250598145e+02    4.3528015137e+01
    2.6260543823e+02    4.3516998291e+01
    2.6270596313e+02    4.3504974365e+01
    2.6280545044e+02    4.3494018555e+01
    2.6290551758e+02    4.3481994629e+01
    2.6300650024e+02    4.3470001221e+01
    2.6310595703e+02    4.3459014893e+01
    2.6320639038e+02    4.3446990967e+01
    2.6330584717e+02    4.3436004639e+01
    2.6340530396e+02    4.3425018311e+01
    2.6350607300e+02    4.3414001465e+01
    2.6360549927e+02    4.3402008057e+01
    2.6370584106e+02    4.3390991211e+01
    2.6380624390e+02    4.3381011963e+01
    2.6390667725e+02    4.3368988037e+01
    2.6400558472e+02    4.3359008789e+01
    2.6410604858e+02    4.3347991943e+01
    2.6420651245e+02    4.3337005615e+01
    2.6430538940e+02    4.3325988770e+01
    2.6440585327e+02    4.3316009521e+01
    2.6450631714e+02    4.3304992676e+01
    2.6460665894e+02    4.3295013428e+01
    2.6470547485e+02    4.3283996582e+01
    2.6480563354e+02    4.3273010254e+01
    2.6490655518e+02    4.3263000488e+01
    2.6500588989e+02    4.3252990723e+01
    2.6510568237e+02    4.3243011475e+01
    2.6520584106e+02    4.3233001709e+01
    2.6530612183e+02    4.3223999023e+01
    2.6540646362e+02    4.3212982178e+01
    2.6550677490e+02    4.3204010010e+01
    2.6560693359e+02    4.3194000244e+01
    2.6570556641e+02    4.3183990479e+01
    2.6580688477e+02    4.3174987793e+01
    2.6590670776e+02    4.3165985107e+01
    2.6600659180e+02    4.3156005859e+01
    2.6610644531e+02    4.3147003174e+01
    2.6620629883e+02    4.3138000488e+01
    2.6630606079e+02    4.3128997803e+01
    2.6640576172e+02    4.3119995117e+01
    2.6650622559e+02    4.3111022949e+01
    2.6660610962e+02    4.3102996826e+01
    2.6670596313e+02    4.3095001221e+01
    2.6680572510e+02    4.3085021973e+01
    2.6690557861e+02    4.3077026367e+01
    2.6700570679e+02    4.3069000244e+01
    2.6710577393e+02    4.3061004639e+01
    2.6720642090e+02    4.3052978516e+01
    2.6730694580e+02    4.3045013428e+01
    2.6740579224e+02    4.3037017822e+01
    2.6750619507e+02    4.3029998779e+01
    2.6760653687e+02    4.3020996094e+01
    2.6770666504e+02    4.3014007568e+01
    2.6780706787e+02    4.3006011963e+01
    2.6790673828e+02    4.3000000000e+01
    2.6800640869e+02    4.2992004395e+01
    2.6810607910e+02    4.2985992432e+01
    2.6820571899e+02    4.2977996826e+01
    2.6830685425e+02    4.2970977783e+01
    2.6840625000e+02    4.2964996338e+01
    2.6850714111e+02    4.2958007812e+01
    2.6860632324e+02    4.2951995850e+01
    2.6870703125e+02    4.2947021484e+01
    2.6880630493e+02    4.2941009521e+01
    2.6890652466e+02    4.2934997559e+01
    2.6900588989e+02    4.2929992676e+01
    2.6910681152e+02    4.2923980713e+01
    2.6920669556e+02    4.2919982910e+01
    2.6930697632e+02    4.2915008545e+01
    2.6940560913e+02    4.2911010742e+01
    2.6950576782e+02    4.2906982422e+01
    2.6960568237e+02    4.2901977539e+01
    2.6970681763e+02    4.2898986816e+01
    2.6980648804e+02    4.2894989014e+01
    2.6990628052e+02    4.2891998291e+01
    2.7000576782e+02    4.2889007568e+01
    2.7010620117e+02    4.2884002686e+01
    2.7020629883e+02    4.2878997803e+01
    2.7030630493e+02    4.2873992920e+01
    2.7040628052e+02    4.2869995117e+01
    2.7050619507e+02    4.2866973877e+01
    2.7060601807e+02    4.2863006592e+01
    2.7070578003e+02    4.2858978271e+01
    2.7080706787e+02    4.2855010986e+01
    2.7090676880e+02    4.2851989746e+01
    2.7100698853e+02    4.2848999023e+01
    2.7110592651e+02    4.2846008301e+01
    2.7120596313e+02    4.2842987061e+01
    2.7130661011e+02    4.2839996338e+01
    2.7140722656e+02    4.2838012695e+01
    2.7150613403e+02    4.2835998535e+01
    2.7160626221e+02    4.2834014893e+01
    2.7170651245e+02    4.2832000732e+01
    2.7180718994e+02    4.2831024170e+01
    2.7190618896e+02    4.2829010010e+01
    2.7200680542e+02    4.2828002930e+01
    2.7210690308e+02    4.2826019287e+01
    2.7220623779e+02    4.2825988770e+01
    2.7230722046e+02    4.2825012207e+01
    2.7240655518e+02    4.2825012207e+01
    2.7250738525e+02    4.2824005127e+01
    2.7260650635e+02    4.2824005127e+01
    2.7270712280e+02    4.2822998047e+01
    2.7280599976e+02    4.2822998047e+01
    2.7290640259e+02    4.2822998047e+01
    2.7300668335e+02    4.2822998047e+01
    2.7310690308e+02    4.2822998047e+01
    2.7320675659e+02    4.2824005127e+01
    2.7330718994e+02    4.2824005127e+01
    2.7340585327e+02    4.2825988770e+01
    2.7350604248e+02    4.2826019287e+01
    2.7360620117e+02    4.2827026367e+01
    2.7370629883e+02    4.2828002930e+01
    2.7380636597e+02    4.2829010010e+01
    2.7390695190e+02    4.2830993652e+01
    2.7400598145e+02    4.2832000732e+01
    2.7410662842e+02    4.2833007812e+01
    2.7420721436e+02    4.2834991455e+01
    2.7430615234e+02    4.2837982178e+01
    2.7440667725e+02    4.2838989258e+01
    2.7450717163e+02    4.2842010498e+01
    2.7460595703e+02    4.2843994141e+01
    2.7470620728e+02    4.2845977783e+01
    2.7480636597e+02    4.2848999023e+01
    2.7490643311e+02    4.2852020264e+01
    2.7500640869e+02    4.2855010986e+01
    2.7510632324e+02    4.2858001709e+01
    2.7520620728e+02    4.2861999512e+01
    2.7530734253e+02    4.2865997314e+01
    2.7540643311e+02    4.2869018555e+01
    2.7550708008e+02    4.2872985840e+01
    2.7560610962e+02    4.2876983643e+01
    2.7570645142e+02    4.2880981445e+01
    2.7580645752e+02    4.2885009766e+01
    2.7590649414e+02    4.2890014648e+01
    2.7600671387e+02    4.2895019531e+01
    2.7610736084e+02    4.2900024414e+01
    2.7620748901e+02    4.2903991699e+01
    2.7630679321e+02    4.2909973145e+01
    2.7640612793e+02    4.2914001465e+01
    2.7650708008e+02    4.2920013428e+01
    2.7660644531e+02    4.2925018311e+01
    2.7670742798e+02    4.2929992676e+01
    2.7680679321e+02    4.2936004639e+01
    2.7690615845e+02    4.2941986084e+01
    2.7700708008e+02    4.2946990967e+01
    2.7710641479e+02    4.2954010010e+01
    2.7720739746e+02    4.2959991455e+01
    2.7730606079e+02    4.2964996338e+01
    2.7740673828e+02    4.2971008301e+01
    2.7750634766e+02    4.2977996826e+01
    2.7760760498e+02    4.2984008789e+01
    2.7770727539e+02    4.2990997314e+01
    2.7780697632e+02    4.2998016357e+01
    2.7790664673e+02    4.3005004883e+01
    2.7800753784e+02    4.3011016846e+01
    2.7810671997e+02    4.3018005371e+01
    2.7820748901e+02    4.3023986816e+01
    2.7830654907e+02    4.3031005859e+01
    2.7840679932e+02    4.3037994385e+01
    2.7850698853e+02    4.3044982910e+01
    2.7860711670e+02    4.3050994873e+01
    2.7870718384e+02    4.3059020996e+01
    2.7880718994e+02    4.3066009521e+01
    2.7890713501e+02    4.3071990967e+01
    2.7900692749e+02    4.3079010010e+01
    2.7910662842e+02    4.3085998535e+01
    2.7920626831e+02    4.3094024658e+01
    2.7930740356e+02    4.3101013184e+01
    2.7940686035e+02    4.3108001709e+01
    2.7950668335e+02    4.3114990234e+01
    2.7960632324e+02    4.3122985840e+01
    2.7970764160e+02    4.3130004883e+01
    2.7980725098e+02    4.3138000488e+01
    2.7990673828e+02    4.3144989014e+01
    2.8000778198e+02    4.3152984619e+01
    2.8010717773e+02    4.3156005859e+01
    2.8020651245e+02    4.3160003662e+01
    2.8030755615e+02    4.3164001465e+01
    2.8040768433e+02    4.3167999268e+01
    2.8050738525e+02    4.3171997070e+01
    2.8060699463e+02    4.3174987793e+01
    2.8070639038e+02    4.3179992676e+01
    2.8080725098e+02    4.3182983398e+01
    2.8090640259e+02    4.3187011719e+01
    2.8100704956e+02    4.3191009521e+01
    2.8110763550e+02    4.3195007324e+01
    2.8120654297e+02    4.3199005127e+01
    2.8130697632e+02    4.3201995850e+01
    2.8140783691e+02    4.3204986572e+01
    2.8150747681e+02    4.3209014893e+01
    2.8160708618e+02    4.3212982178e+01
    2.8170669556e+02    4.3216979980e+01
    2.8180633545e+02    4.3221008301e+01
    2.8190771484e+02    4.3223999023e+01
    2.8200744629e+02    4.3227996826e+01
    2.8210717773e+02    4.3231994629e+01
    2.8220690918e+02    4.3235992432e+01
    2.8230654907e+02    4.3240020752e+01
    2.8240698242e+02    4.3243011475e+01
    2.8250729370e+02    4.3247985840e+01
    2.8260760498e+02    4.3250976562e+01
    2.8270794678e+02    4.3256011963e+01
    2.8280661011e+02    4.3259002686e+01
    2.8290682983e+02    4.3263000488e+01
    2.8300695801e+02    4.3266998291e+01
    2.8310702515e+02    4.3270996094e+01
    2.8320706177e+02    4.3274993896e+01
    2.8330722046e+02    4.3279998779e+01
    2.8340652466e+02    4.3284027100e+01
    2.8350738525e+02    4.3287994385e+01
    2.8360653687e+02    4.3292999268e+01
    2.8370748901e+02    4.3296997070e+01
    2.8380703735e+02    4.3301971436e+01
    2.8390747070e+02    4.3307006836e+01
    2.8400787354e+02    4.3311004639e+01
    2.8410653687e+02    4.3316009521e+01
    2.8420681763e+02    4.3320007324e+01
    2.8430703735e+02    4.3325012207e+01
    2.8440795898e+02    4.3329986572e+01
    2.8450729370e+02    4.3335021973e+01
    2.8460659790e+02    4.3339996338e+01
    2.8470745850e+02    4.3343994141e+01
    2.8480654907e+02    4.3348999023e+01
    2.8490716553e+02    4.3354003906e+01
    2.8500765991e+02    4.3358001709e+01
    2.8510803223e+02    4.3364013672e+01
    2.8520660400e+02    4.3369018555e+01
    2.8530667114e+02    4.3373016357e+01
    2.8540817261e+02    4.3378021240e+01
    2.8550711060e+02    4.3383026123e+01
    2.8560745239e+02    4.3388977051e+01
    2.8570748901e+02    4.3393981934e+01
    2.8580804443e+02    4.3398986816e+01
    2.8590698242e+02    4.3403991699e+01
    2.8600778198e+02    4.3408996582e+01
    2.8610791016e+02    4.3414978027e+01
    2.8620800781e+02    4.3418975830e+01
    2.8630804443e+02    4.3424987793e+01
    2.8640802002e+02    4.3429992676e+01
    2.8650738525e+02    4.3433990479e+01
    2.8660745239e+02    4.3440002441e+01
    2.8670742798e+02    4.3444000244e+01
    2.8680737305e+02    4.3449005127e+01
    2.8690719604e+02    4.3453979492e+01
    2.8700689697e+02    4.3458007812e+01
    2.8710812378e+02    4.3463012695e+01
    2.8720764160e+02    4.3468017578e+01
    2.8730712891e+02    4.3473022461e+01
    2.8740823364e+02    4.3477020264e+01
    2.8750814819e+02    4.3480987549e+01
    2.8760690308e+02    4.3487030029e+01
    2.8770733643e+02    4.3492004395e+01
    2.8780789185e+02    4.3496978760e+01
    2.8790676880e+02    4.3500976562e+01
    2.8800814819e+02    4.3506011963e+01
    2.8810723877e+02    4.3509979248e+01
    2.8820794678e+02    4.3516021729e+01
    2.8830789185e+02    4.3519958496e+01
    2.8840673828e+02    4.3526000977e+01
    2.8850827026e+02    4.3529968262e+01
    2.8860733032e+02    4.3535003662e+01
    2.8870803833e+02    4.3539978027e+01
    2.8880712891e+02    4.3544006348e+01
    2.8890786743e+02    4.3550018311e+01
    2.8900695801e+02    4.3553985596e+01
    2.8910763550e+02    4.3559020996e+01
    2.8920828247e+02    4.3563995361e+01
    2.8930725098e+02    4.3568969727e+01
    2.8940780640e+02    4.3572998047e+01
    2.8950836182e+02    4.3578002930e+01
    2.8960733032e+02    4.3583038330e+01
    2.8970837402e+02    4.3589019775e+01
    2.8980752563e+02    4.3592987061e+01
    2.8990820312e+02    4.3598999023e+01
    2.9000750732e+02    4.3602996826e+01
    2.9010842896e+02    4.3603973389e+01
    2.9020767212e+02    4.3603973389e+01
    2.9030685425e+02    4.3604003906e+01
    2.9040765381e+02    4.3604034424e+01
    2.9050735474e+02    4.3604980469e+01
    2.9060848999e+02    4.3604980469e+01
    2.9070785522e+02    4.3604980469e+01
    2.9080706787e+02    4.3604980469e+01
    2.9090774536e+02    4.3605010986e+01
    2.9100830078e+02    4.3605010986e+01
    2.9110702515e+02    4.3604003906e+01
    2.9120724487e+02    4.3604980469e+01
    2.9130725098e+02    4.3604980469e+01
    2.9140713501e+02    4.3606018066e+01
    2.9150851440e+02    4.3605987549e+01
    2.9160806274e+02    4.3605987549e+01
    2.9170712280e+02    4.3606994629e+01
    2.9180786133e+02    4.3607025146e+01
    2.9190856934e+02    4.3607971191e+01
    2.9200750732e+02    4.3608001709e+01
    2.9210809326e+02    4.3608978271e+01
    2.9220715332e+02    4.3609985352e+01
    2.9230789185e+02    4.3610015869e+01
    2.9240832520e+02    4.3610992432e+01
    2.9250735474e+02    4.3611022949e+01
    2.9260784912e+02    4.3611999512e+01
    2.9270825195e+02    4.3612976074e+01
    2.9280862427e+02    4.3612976074e+01
    2.9290728760e+02    4.3612976074e+01
    2.9300747681e+02    4.3614044189e+01
    2.9310754395e+02    4.3615020752e+01
    2.9320748901e+02    4.3615997314e+01
    2.9330740356e+02    4.3615997314e+01
    2.9340728760e+02    4.3616973877e+01
    2.9350720215e+02    4.3617004395e+01
    2.9360757446e+02    4.3617980957e+01
    2.9370809937e+02    4.3618011475e+01
    2.9380786133e+02    4.3618988037e+01
    2.9390768433e+02    4.3619995117e+01
    2.9400762939e+02    4.3621032715e+01
    2.9410775757e+02    4.3621032715e+01
    2.9420758057e+02    4.3621002197e+01
    2.9430740356e+02    4.3621978760e+01
    2.9440719604e+02    4.3622985840e+01
    2.9450872803e+02    4.3623016357e+01
    2.9460760498e+02    4.3622985840e+01
    2.9470721436e+02    4.3622985840e+01
    2.9480838013e+02    4.3623016357e+01
    2.9490792847e+02    4.3623016357e+01
    2.9500738525e+02    4.3622009277e+01
    2.9510848999e+02    4.3621002197e+01
    2.9520791626e+02    4.3620971680e+01
    2.9530722046e+02    4.3621002197e+01
    2.9540808105e+02    4.3619995117e+01
    2.9550723267e+02    4.3617980957e+01
    2.9560806274e+02    4.3616973877e+01
    2.9570745850e+02    4.3616973877e+01
    2.9580862427e+02    4.3616027832e+01
    2.9590881348e+02    4.3615020752e+01
    2.9600726318e+02    4.3612976074e+01
    2.9610736084e+02    4.3612976074e+01
    2.9620742798e+02    4.3610992432e+01
    2.9630746460e+02    4.3609985352e+01
    2.9640737915e+02    4.3608001709e+01
    2.9650869751e+02    4.3605987549e+01
    2.9660818481e+02    4.3603973389e+01
    2.9670758057e+02    4.3601959229e+01
    2.9680847168e+02    4.3599975586e+01
    2.9690756226e+02    4.3597015381e+01
    2.9700811768e+02    4.3593994141e+01
    2.9710855103e+02    4.3592010498e+01
    2.9720883179e+02    4.3589019775e+01
    2.9730737305e+02    4.3586029053e+01
    2.9740747070e+02    4.3582977295e+01
    2.9750750732e+02    4.3579986572e+01
    2.9760748291e+02    4.3576995850e+01
    2.9770886230e+02    4.3574035645e+01
    2.9780856323e+02    4.3570007324e+01
    2.9790829468e+02    4.3567016602e+01
    2.9800769043e+02    4.3562957764e+01
    2.9810821533e+02    4.3559020996e+01
    2.9820874023e+02    4.3554992676e+01
    2.9830737305e+02    4.3551971436e+01
    2.9840737915e+02    4.3546997070e+01
    2.9850802612e+02    4.3544006348e+01
    2.9860736084e+02    4.3539031982e+01
    2.9870864868e+02    4.3533996582e+01
    2.9880749512e+02    4.3529968262e+01
    2.9890789795e+02    4.3526000977e+01
    2.9900830078e+02    4.3520996094e+01
    2.9910870361e+02    4.3515991211e+01
    2.9920745850e+02    4.3509979248e+01
    2.9930783081e+02    4.3506011963e+01
    2.9940823364e+02    4.3500000000e+01
    2.9950863647e+02    4.3494995117e+01
    2.9960751343e+02    4.3489013672e+01
    2.9970837402e+02    4.3484039307e+01
    2.9980886841e+02    4.3477996826e+01
    2.9990774536e+02    4.3471008301e+01
endcurve
