Curveplot
LS-DYNA keyword deck by LS-PrePost
Time
Yrot-displ
Rigid Body Ids
300001 #pts=1800
* Minval=    -1.4105897522e+02 at time=       113.8973999023
* Maxval=     3.5174179357e-04 at time=         6.3987407684
    0.0000000000e+00   -1.3004442678e-07
    9.9464751780e-02   -1.2551294049e-07
    1.9892950356e-01   -1.1306944003e-07
    2.9839429259e-01   -9.0981430390e-08
    3.9954480529e-01   -5.7498063200e-08
    4.9900960922e-01   -1.0935924166e-08
    5.9847432375e-01    5.0212815239e-08
    6.9880908728e-01    1.2714896513e-07
    7.9923582077e-01    2.2061348659e-07
    8.9962542057e-01    3.3071967209e-07
    9.9958938360e-01    4.5677154503e-07
    1.0995169878e+00    5.9705439526e-07
    1.1996539831e+00    7.4858860444e-07
    1.2995330095e+00    9.0686563681e-07
    1.3995020390e+00    1.0656002587e-06
    1.4996249676e+00    1.2165297676e-06
    1.5996259451e+00    1.3492791595e-06
    1.6999139786e+00    1.4513057067e-06
    1.7996540070e+00    1.5079278910e-06
    1.8998240232e+00    1.5024462527e-06
    1.9989390373e+00    1.4163823607e-06
    2.0986530781e+00    1.2298729644e-06
    2.1985709667e+00    9.2227872983e-07
    2.2988870144e+00    4.7306332362e-07
    2.3985140324e+00   -1.3701026091e-07
    2.4998428822e+00   -9.2435715260e-07
    2.5984859467e+00   -1.9007521814e-06
    2.6983380318e+00   -3.0712942589e-06
    2.7985460758e+00   -4.4322705435e-06
    2.8987429142e+00   -5.9690605667e-06
    2.9989130497e+00   -7.6542319221e-06
    3.0987880230e+00   -9.4459646789e-06
    3.1992468834e+00   -1.1286922017e-05
    3.2998239994e+00   -1.3103641322e-05
    3.3988668919e+00   -1.4806486433e-05
    3.4990940094e+00   -1.6290130588e-05
    3.5987849236e+00   -1.7434573238e-05
    3.6987099648e+00   -1.8106638890e-05
    3.7983579636e+00   -1.8161937987e-05
    3.8997509480e+00   -1.7447287973e-05
    3.9993600845e+00   -1.5803583665e-05
    4.0990209579e+00   -1.3069118722e-05
    4.1990308762e+00   -9.0833927970e-06
    4.2985081673e+00   -3.6913600070e-06
    4.3996710777e+00    3.2518717035e-06
    4.4993810654e+00    1.1875975360e-05
    4.5988569260e+00    2.2289996195e-05
    4.6983308792e+00    3.4576594771e-05
    4.7994899750e+00    4.8785957915e-05
    4.8989610672e+00    6.4929474320e-05
    4.9984288216e+00    8.2973223471e-05
    5.0995807648e+00    1.0283116717e-04
    5.1990418434e+00    1.2435819372e-04
    5.2984991074e+00    1.4734322031e-04
    5.3996372223e+00    1.7150219355e-04
    5.4990839958e+00    1.9647150475e-04
    5.5985231400e+00    2.2180187807e-04
    5.6996412277e+00    2.4695292814e-04
    5.7990651131e+00    2.7128850343e-04
    5.8984789848e+00    2.9407296097e-04
    5.9995679855e+00    3.1446845969e-04
    6.0989608765e+00    3.3153299592e-04
    6.1983399391e+00    3.4421935561e-04
    6.2993898392e+00    3.5137488157e-04
    6.3987407684e+00    3.5174179357e-04
    6.4997601509e+00    3.4395809053e-04
    6.5990772247e+00    3.2655888936e-04
    6.6983771324e+00    2.9797802563e-04
    6.7993412018e+00    2.5655029458e-04
    6.8986020088e+00    2.0051353204e-04
    6.9995241165e+00    1.2801046250e-04
    7.0987420082e+00    3.7090132537e-05
    7.1996178627e+00   -7.4291201599e-05
    7.2987899780e+00   -2.0826971740e-04
    7.3996191025e+00   -3.6707427353e-04
    7.4987430573e+00   -5.5302708643e-04
    7.5995187759e+00   -7.6854450163e-04
    7.6985878944e+00   -1.0161380051e-03
    7.7993068695e+00   -1.2984144269e-03
    7.8983168602e+00   -1.6180763487e-03
    7.9989728928e+00   -1.9779209979e-03
    8.0995960236e+00   -2.3808397818e-03
    8.1985073090e+00   -2.8298182879e-03
    8.2990598679e+00   -3.3279350027e-03
    8.3995761871e+00   -3.8783599157e-03
    8.4983797073e+00   -4.4843507931e-03
    8.5988206863e+00   -5.1492499188e-03
    8.6992225647e+00   -5.8764792047e-03
    8.7995843887e+00   -6.6695339046e-03
    8.8999061584e+00   -7.5319875032e-03
    8.9985160828e+00   -8.4674861282e-03
    9.0987558365e+00   -9.4797452912e-03
    9.1989536285e+00   -1.0572534055e-02
    9.2991094589e+00   -1.1749664322e-02
    9.3992204666e+00   -1.3014991768e-02
    9.4992885590e+00   -1.4372404665e-02
    9.5993118286e+00   -1.5825824812e-02
    9.6992912292e+00   -1.7379196361e-02
    9.7992267609e+00   -1.9036486745e-02
    9.8991174698e+00   -2.0801661536e-02
    9.9989624023e+00   -2.2678686306e-02
    1.0098759651e+01   -2.4671500549e-02
    1.0198519707e+01   -2.6784013957e-02
    1.0299889565e+01   -2.9020080343e-02
    1.0399550438e+01   -3.1383499503e-02
    1.0499170303e+01   -3.3878032118e-02
    1.0598750114e+01   -3.6507379264e-02
    1.0699939728e+01   -3.9275184274e-02
    1.0799429893e+01   -4.2185019702e-02
    1.0898870468e+01   -4.5240387321e-02
    1.0999930382e+01   -4.8444725573e-02
    1.1099289894e+01   -5.1801394671e-02
    1.1198610306e+01   -5.5313702673e-02
    1.1299550056e+01   -5.8984875679e-02
    1.1398790359e+01   -6.2818042934e-02
    1.1499640465e+01   -6.6816277802e-02
    1.1598810196e+01   -7.0982545614e-02
    1.1699580193e+01   -7.5319796801e-02
    1.1798669815e+01   -7.9830877483e-02
    1.1899379730e+01   -8.4518603981e-02
    1.1998390198e+01   -8.9385695755e-02
    1.2099020004e+01   -9.4434797764e-02
    1.2199620247e+01   -9.9668473005e-02
    1.2298529625e+01   -1.0508919507e-01
    1.2399049759e+01   -1.1069940776e-01
    1.2499529839e+01   -1.1650144309e-01
    1.2599980354e+01   -1.2249760330e-01
    1.2698760033e+01   -1.2869013846e-01
    1.2799139977e+01   -1.3508127630e-01
    1.2899490356e+01   -1.4167317748e-01
    1.2999810219e+01   -1.4846800268e-01
    1.3098460197e+01   -1.5546785295e-01
    1.3198719978e+01   -1.6267475486e-01
    1.3298939705e+01   -1.7009067535e-01
    1.3399140358e+01   -1.7771747708e-01
    1.3499300003e+01   -1.8555687368e-01
    1.3599430084e+01   -1.9361056387e-01
    1.3699529648e+01   -2.0188018680e-01
    1.3799599648e+01   -2.1036741138e-01
    1.3899629593e+01   -2.1907392144e-01
    1.3999640465e+01   -2.2800143063e-01
    1.4099599838e+01   -2.3715174198e-01
    1.4199540138e+01   -2.4652671814e-01
    1.4299440384e+01   -2.5612831116e-01
    1.4399310112e+01   -2.6595848799e-01
    1.4499139786e+01   -2.7601933479e-01
    1.4598939896e+01   -2.8631293774e-01
    1.4698699951e+01   -2.9684147239e-01
    1.4798419952e+01   -3.0760699511e-01
    1.4899740219e+01   -3.1861159205e-01
    1.4999389648e+01   -3.2985728979e-01
    1.5098999977e+01   -3.4134617448e-01
    1.5198570251e+01   -3.5308045149e-01
    1.5299719810e+01   -3.6506238580e-01
    1.5399209976e+01   -3.7729427218e-01
    1.5498640060e+01   -3.8977843523e-01
    1.5599670410e+01   -4.0251737833e-01
    1.5699009895e+01   -4.1551363468e-01
    1.5799940109e+01   -4.2876979709e-01
    1.5899189949e+01   -4.4228866696e-01
    1.6000019073e+01   -4.5607316494e-01
    1.6099170685e+01   -4.7012653947e-01
    1.6199890137e+01   -4.8445209861e-01
    1.6298940659e+01   -4.9905350804e-01
    1.6399549484e+01   -5.1393443346e-01
    1.6498479843e+01   -5.2909874916e-01
    1.6598979950e+01   -5.4455059767e-01
    1.6699409485e+01   -5.6029373407e-01
    1.6799779892e+01   -5.7633233070e-01
    1.6898479462e+01   -5.9267044067e-01
    1.6998729706e+01   -6.0931223631e-01
    1.7098909378e+01   -6.2626200914e-01
    1.7199029922e+01   -6.4352393150e-01
    1.7299089432e+01   -6.6110217571e-01
    1.7399070740e+01   -6.7900091410e-01
    1.7498989105e+01   -6.9722419977e-01
    1.7598840714e+01   -7.1577632427e-01
    1.7698629379e+01   -7.3466128111e-01
    1.7799949646e+01   -7.5388318300e-01
    1.7899589539e+01   -7.7344608307e-01
    1.7999149323e+01   -7.9335433245e-01
    1.8098649979e+01   -8.1361228228e-01
    1.8199670792e+01   -8.3422428370e-01
    1.8299020767e+01   -8.5519480705e-01
    1.8399890900e+01   -8.7652826309e-01
    1.8499090195e+01   -8.9822930098e-01
    1.8599809647e+01   -9.2030245066e-01
    1.8698850632e+01   -9.4275236130e-01
    1.8799419403e+01   -9.6558380127e-01
    1.8899909973e+01   -9.8880147934e-01
    1.8998729706e+01   -1.0124102831e+00
    1.9099069595e+01   -1.0364149809e+00
    1.9199329376e+01   -1.0608202219e+00
    1.9299520493e+01   -1.0856305361e+00
    1.9399629593e+01   -1.1108503342e+00
    1.9499660492e+01   -1.1364841461e+00
    1.9599620819e+01   -1.1625362635e+00
    1.9699499130e+01   -1.1890112162e+00
    1.9799320221e+01   -1.2159134150e+00
    1.9899059296e+01   -1.2432473898e+00
    1.9998729706e+01   -1.2710173130e+00
    2.0099910736e+01   -1.2992268801e+00
    2.0199430466e+01   -1.3278801441e+00
    2.0298889160e+01   -1.3569804430e+00
    2.0399860382e+01   -1.3865314722e+00
    2.0499189377e+01   -1.4165363312e+00
    2.0600019455e+01   -1.4469983578e+00
    2.0699209213e+01   -1.4779207706e+00
    2.0799900055e+01   -1.5093066692e+00
    2.0898960114e+01   -1.5411592722e+00
    2.0999530792e+01   -1.5734816790e+00
    2.1100030899e+01   -1.6062771082e+00
    2.1198900223e+01   -1.6395484209e+00
    2.1299270630e+01   -1.6732989550e+00
    2.1399589539e+01   -1.7075318098e+00
    2.1499839783e+01   -1.7422499657e+00
    2.1600030899e+01   -1.7774566412e+00
    2.1698600769e+01   -1.8131551743e+00
    2.1798679352e+01   -1.8493489027e+00
    2.1898700714e+01   -1.8860414028e+00
    2.1998659134e+01   -1.9232350588e+00
    2.2098569870e+01   -1.9609322548e+00
    2.2199979782e+01   -1.9991347790e+00
    2.2299770355e+01   -2.0378437042e+00
    2.2399509430e+01   -2.0770609379e+00
    2.2499189377e+01   -2.1167883873e+00
    2.2598819733e+01   -2.1570279598e+00
    2.2699949265e+01   -2.1977815628e+00
    2.2799470901e+01   -2.2390508652e+00
    2.2898780823e+01   -2.2808377743e+00
    2.2999740601e+01   -2.3231441975e+00
    2.3099100113e+01   -2.3659722805e+00
    2.3199949265e+01   -2.4093234539e+00
    2.3299190521e+01   -2.4531998634e+00
    2.3399929047e+01   -2.4976034164e+00
    2.3499059677e+01   -2.5425364971e+00
    2.3599679947e+01   -2.5880010128e+00
    2.3698699951e+01   -2.6339998245e+00
    2.3799209595e+01   -2.6805350780e+00
    2.3899660110e+01   -2.7276089191e+00
    2.4000049591e+01   -2.7752232552e+00
    2.4098840714e+01   -2.8233802319e+00
    2.4199119568e+01   -2.8720822334e+00
    2.4299339294e+01   -2.9213314056e+00
    2.4399490356e+01   -2.9711296558e+00
    2.4499589920e+01   -3.0214793682e+00
    2.4599620819e+01   -3.0723829269e+00
    2.4699579239e+01   -3.1238427162e+00
    2.4799219131e+01   -3.1758613586e+00
    2.4899049759e+01   -3.2284426689e+00
    2.4998809814e+01   -3.2815890312e+00
    2.5100040436e+01   -3.3353035450e+00
    2.5199659348e+01   -3.3895893097e+00
    2.5299209595e+01   -3.4444491863e+00
    2.5398679733e+01   -3.4998869896e+00
    2.5499610901e+01   -3.5559060574e+00
    2.5598939896e+01   -3.6125102043e+00
    2.5699710846e+01   -3.6697022915e+00
    2.5798879623e+01   -3.7274858952e+00
    2.5899499893e+01   -3.7858645916e+00
    2.6000040054e+01   -3.8448419571e+00
    2.6098979950e+01   -3.9044220448e+00
    2.6199369431e+01   -3.9646089077e+00
    2.6299160004e+01   -4.0254073143e+00
    2.6399379730e+01   -4.0868206024e+00
    2.6499519348e+01   -4.1488547325e+00
    2.6599050522e+01   -4.2115125656e+00
    2.6698619843e+01   -4.2748003006e+00
    2.6799169540e+01   -4.3387203217e+00
    2.6898839951e+01   -4.4032773972e+00
    2.6999719620e+01   -4.4684743881e+00
    2.7099809647e+01   -4.5343141556e+00
    2.7199539185e+01   -4.6007990837e+00
    2.7299259186e+01   -4.6679329872e+00
    2.7399860382e+01   -4.7357187271e+00
    2.7499830246e+01   -4.8041605949e+00
    2.7598829269e+01   -4.8732619286e+00
    2.7699390411e+01   -4.9430270195e+00
    2.7799339294e+01   -5.0134596825e+00
    2.7900070190e+01   -5.0845623016e+00
    2.7999389648e+01   -5.1563386917e+00
    2.8099840164e+01   -5.2287921906e+00
    2.8199409485e+01   -5.3019266129e+00
    2.8299940109e+01   -5.3757448196e+00
    2.8400009155e+01   -5.4502511024e+00
    2.8499460220e+01   -5.5254497528e+00
    2.8599710464e+01   -5.6013445854e+00
    2.8698839188e+01   -5.6779403687e+00
    2.8799579620e+01   -5.7552413940e+00
    2.8899829865e+01   -5.8332514763e+00
    2.8998960495e+01   -5.9119739532e+00
    2.9099880219e+01   -5.9914112091e+00
    2.9198949814e+01   -6.0715665817e+00
    2.9299720764e+01   -6.1524424553e+00
    2.9399890900e+01   -6.2340412140e+00
    2.9499069214e+01   -6.3163652420e+00
    2.9598760605e+01   -6.3994178772e+00
    2.9699510574e+01   -6.4832024574e+00
    2.9799650192e+01   -6.5677213669e+00
    2.9899509430e+01   -6.6529774666e+00
    2.9999269485e+01   -6.7389740944e+00
    3.0098739624e+01   -6.8257141113e+00
    3.0199329376e+01   -6.9132003784e+00
    3.0299789429e+01   -7.0014343262e+00
    3.0399610519e+01   -7.0904178619e+00
    3.0499370575e+01   -7.1801528931e+00
    3.0598880768e+01   -7.2706427574e+00
    3.0699409485e+01   -7.3618888855e+00
    3.0799230576e+01   -7.4538946152e+00
    3.0898809433e+01   -7.5466613770e+00
    3.0998910904e+01   -7.6401910782e+00
    3.1099159241e+01   -7.7344846725e+00
    3.1198850632e+01   -7.8295407295e+00
    3.1299970627e+01   -7.9253597260e+00
    3.1400070190e+01   -8.0219402313e+00
    3.1499160767e+01   -8.1192836761e+00
    3.1599500656e+01   -8.2173891068e+00
    3.1699710846e+01   -8.3162593842e+00
    3.1799249649e+01   -8.4158945084e+00
    3.1898820877e+01   -8.5162973404e+00
    3.1999460220e+01   -8.6174678802e+00
    3.2099609375e+01   -8.7194051743e+00
    3.2199890137e+01   -8.8221092224e+00
    3.2299888611e+01   -8.9255790710e+00
    3.2398990631e+01   -9.0298166275e+00
    3.2498771667e+01   -9.1348209381e+00
    3.2599868774e+01   -9.2405929565e+00
    3.2699890137e+01   -9.3471326828e+00
    3.2800010681e+01   -9.4544410706e+00
    3.2899990082e+01   -9.5625171661e+00
    3.2999210358e+01   -9.6713647842e+00
    3.3099090576e+01   -9.7809858322e+00
    3.3199359894e+01   -9.8913841248e+00
    3.3298770905e+01   -1.0002563477e+01
    3.3398910522e+01   -1.0114523888e+01
    3.3499130249e+01   -1.0227269173e+01
    3.3598979950e+01   -1.0340798378e+01
    3.3700050354e+01   -1.0455111504e+01
    3.3799819946e+01   -1.0570208549e+01
    3.3899318695e+01   -1.0686090469e+01
    3.3998790741e+01   -1.0802757263e+01
    3.4099258423e+01   -1.0920209885e+01
    3.4199779510e+01   -1.1038449287e+01
    3.4299110413e+01   -1.1157475471e+01
    3.4399219513e+01   -1.1277288437e+01
    3.4499549866e+01   -1.1397888184e+01
    3.4599449158e+01   -1.1519275665e+01
    3.4699810028e+01   -1.1641448021e+01
    3.4799518585e+01   -1.1764407158e+01
    3.4899559021e+01   -1.1888152122e+01
    3.4999080658e+01   -1.2012682915e+01
    3.5099639893e+01   -1.2138002396e+01
    3.5200019836e+01   -1.2264112473e+01
    3.5299270630e+01   -1.2391015053e+01
    3.5399860382e+01   -1.2518712997e+01
    3.5499271393e+01   -1.2647210121e+01
    3.5599159241e+01   -1.2776507378e+01
    3.5698959351e+01   -1.2906609535e+01
    3.5799911499e+01   -1.3037515640e+01
    3.5899410248e+01   -1.3169227600e+01
    3.5998840332e+01   -1.3301745415e+01
    3.6099540710e+01   -1.3435068130e+01
    3.6199989319e+01   -1.3569195747e+01
    3.6299461365e+01   -1.3704126358e+01
    3.6399711609e+01   -1.3839858055e+01
    3.6499900818e+01   -1.3976391792e+01
    3.6599948883e+01   -1.4113724709e+01
    3.6699951172e+01   -1.4251858711e+01
    3.6799800873e+01   -1.4390794754e+01
    3.6899528503e+01   -1.4530533791e+01
    3.6999111176e+01   -1.4671080589e+01
    3.7099830627e+01   -1.4812434196e+01
    3.7199169159e+01   -1.4954598427e+01
    3.7299640656e+01   -1.5097573280e+01
    3.7398811340e+01   -1.5241362572e+01
    3.7499259949e+01   -1.5385965347e+01
    3.7599468231e+01   -1.5531384468e+01
    3.7699569702e+01   -1.5677616119e+01
    3.7799701691e+01   -1.5824660301e+01
    3.7899589539e+01   -1.5972517014e+01
    3.7999481201e+01   -1.6121185303e+01
    3.8099319458e+01   -1.6270664215e+01
    3.8199108124e+01   -1.6420955658e+01
    3.8299919128e+01   -1.6572057724e+01
    3.8399360657e+01   -1.6723970413e+01
    3.8498920441e+01   -1.6876695633e+01
    3.8599491119e+01   -1.7030231476e+01
    3.8698879242e+01   -1.7184574127e+01
    3.8799350739e+01   -1.7339723587e+01
    3.8899761200e+01   -1.7495677948e+01
    3.8998889923e+01   -1.7652435303e+01
    3.9099140167e+01   -1.7809993744e+01
    3.9199470520e+01   -1.7968351364e+01
    3.9299701691e+01   -1.8127508163e+01
    3.9399929047e+01   -1.8287458420e+01
    3.9498851776e+01   -1.8448202133e+01
    3.9598999023e+01   -1.8609741211e+01
    3.9699100494e+01   -1.8772077560e+01
    3.9799121857e+01   -1.8935207367e+01
    3.9899200439e+01   -1.9099134445e+01
    3.9999179840e+01   -1.9263853073e+01
    4.0099178314e+01   -1.9429367065e+01
    4.0199180603e+01   -1.9595670700e+01
    4.0299259186e+01   -1.9762765884e+01
    4.0399188995e+01   -1.9930650711e+01
    4.0499111176e+01   -2.0099327087e+01
    4.0599098206e+01   -2.0268789291e+01
    4.0699020386e+01   -2.0439039230e+01
    4.0798950195e+01   -2.0610073090e+01
    4.0898918152e+01   -2.0781888962e+01
    4.0998779297e+01   -2.0954479218e+01
    4.1098758698e+01   -2.1127838135e+01
    4.1199901581e+01   -2.1301958084e+01
    4.1299850464e+01   -2.1476829529e+01
    4.1399818420e+01   -2.1652444839e+01
    4.1499801636e+01   -2.1828796387e+01
    4.1599750519e+01   -2.2005878448e+01
    4.1699810028e+01   -2.2183685303e+01
    4.1799808502e+01   -2.2362218857e+01
    4.1899799347e+01   -2.2541473389e+01
    4.1999870300e+01   -2.2721452713e+01
    4.2098720551e+01   -2.2902154922e+01
    4.2198799133e+01   -2.3083583832e+01
    4.2298931122e+01   -2.3265741348e+01
    4.2399051666e+01   -2.3448625565e+01
    4.2499229431e+01   -2.3632232666e+01
    4.2599399567e+01   -2.3816558838e+01
    4.2699619293e+01   -2.4001596451e+01
    4.2799869537e+01   -2.4187341690e+01
    4.2898899078e+01   -2.4373785019e+01
    4.2999198914e+01   -2.4560926437e+01
    4.3099510193e+01   -2.4748760223e+01
    4.3199859619e+01   -2.4937278748e+01
    4.3299011230e+01   -2.5126482010e+01
    4.3399410248e+01   -2.5316364288e+01
    4.3499839783e+01   -2.5506921768e+01
    4.3599071503e+01   -2.5698156357e+01
    4.3699550629e+01   -2.5890062332e+01
    4.3798839569e+01   -2.6082641602e+01
    4.3899379730e+01   -2.6275892258e+01
    4.3998718262e+01   -2.6469812393e+01
    4.4099319458e+01   -2.6664400101e+01
    4.4198719025e+01   -2.6859653473e+01
    4.4299369812e+01   -2.7055566788e+01
    4.4398818970e+01   -2.7252136230e+01
    4.4499530792e+01   -2.7449356079e+01
    4.4599029541e+01   -2.7647218704e+01
    4.4699790955e+01   -2.7845716476e+01
    4.4799339294e+01   -2.8044845581e+01
    4.4898929596e+01   -2.8244602203e+01
    4.4999759674e+01   -2.8444980621e+01
    4.5099399567e+01   -2.8645977020e+01
    4.5199058533e+01   -2.8847587585e+01
    4.5298740387e+01   -2.9049812317e+01
    4.5399688721e+01   -2.9252649307e+01
    4.5499439240e+01   -2.9456090927e+01
    4.5599208832e+01   -2.9660137177e+01
    4.5699001312e+01   -2.9864784241e+01
    4.5798820496e+01   -3.0070030212e+01
    4.5898681641e+01   -3.0275869370e+01
    4.5999790192e+01   -3.0482297897e+01
    4.6099700928e+01   -3.0689302444e+01
    4.6199630737e+01   -3.0896875381e+01
    4.6299598694e+01   -3.1105007172e+01
    4.6399589539e+01   -3.1313694000e+01
    4.6499610901e+01   -3.1522930145e+01
    4.6599658966e+01   -3.1732709885e+01
    4.6699729919e+01   -3.1943031311e+01
    4.6799839020e+01   -3.2153896332e+01
    4.6898738861e+01   -3.2365299225e+01
    4.6998908997e+01   -3.2577251434e+01
    4.7099098206e+01   -3.2789741516e+01
    4.7199329376e+01   -3.3002773285e+01
    4.7299598694e+01   -3.3216342926e+01
    4.7398658752e+01   -3.3430446625e+01
    4.7499000549e+01   -3.3645076752e+01
    4.7599369049e+01   -3.3860233307e+01
    4.7699779510e+01   -3.4075912476e+01
    4.7798980713e+01   -3.4292102814e+01
    4.7899478912e+01   -3.4508808136e+01
    4.7998760223e+01   -3.4726024628e+01
    4.8099330902e+01   -3.4943740845e+01
    4.8198711395e+01   -3.5161956787e+01
    4.8299369812e+01   -3.5380668640e+01
    4.8398830414e+01   -3.5599864960e+01
    4.8499580383e+01   -3.5819549561e+01
    4.8599140167e+01   -3.6039703369e+01
    4.8698749542e+01   -3.6260334015e+01
    4.8799648285e+01   -3.6481430054e+01
    4.8899360657e+01   -3.6702987671e+01
    4.8999130249e+01   -3.6924999237e+01
    4.9098949432e+01   -3.7147472382e+01
    4.9198841095e+01   -3.7370395660e+01
    4.9298778534e+01   -3.7593769073e+01
    4.9398788452e+01   -3.7817592621e+01
    4.9498870850e+01   -3.8041858673e+01
    4.9599029541e+01   -3.8266563416e+01
    4.9699249268e+01   -3.8491699219e+01
    4.9799549103e+01   -3.8717254639e+01
    4.9898670197e+01   -3.8943233490e+01
    4.9999130249e+01   -3.9169616699e+01
    5.0099670410e+01   -3.9396400452e+01
    5.0199031830e+01   -3.9623580933e+01
    5.0299739838e+01   -3.9851142883e+01
    5.0399280548e+01   -4.0079086304e+01
    5.0498901367e+01   -4.0307407379e+01
    5.0598609924e+01   -4.0536094666e+01
    5.0699680328e+01   -4.0765148163e+01
    5.0799579620e+01   -4.0994560242e+01
    5.0899559021e+01   -4.1224327087e+01
    5.0999649048e+01   -4.1454437256e+01
    5.1098548889e+01   -4.1684894562e+01
    5.1198829651e+01   -4.1915691376e+01
    5.1299198151e+01   -4.2146820068e+01
    5.1399681091e+01   -4.2378284454e+01
    5.1498981476e+01   -4.2610069275e+01
    5.1599658966e+01   -4.2842174530e+01
    5.1699180603e+01   -4.3074596405e+01
    5.1798789978e+01   -4.3307327271e+01
    5.1898509979e+01   -4.3540359497e+01
    5.1999629974e+01   -4.3773693085e+01
    5.2099571228e+01   -4.4007312775e+01
    5.2199619293e+01   -4.4241218567e+01
    5.2298488617e+01   -4.4475402832e+01
    5.2398769379e+01   -4.4709857941e+01
    5.2499149323e+01   -4.4944580078e+01
    5.2599651337e+01   -4.5179561615e+01
    5.2698970795e+01   -4.5414798737e+01
    5.2799690247e+01   -4.5650279999e+01
    5.2899230957e+01   -4.5886001587e+01
    5.2998878479e+01   -4.6121963501e+01
    5.3098640442e+01   -4.6358161926e+01
    5.3198520660e+01   -4.6594596863e+01
    5.3298500061e+01   -4.6831264496e+01
    5.3398590088e+01   -4.7068157196e+01
    5.3498779297e+01   -4.7305271149e+01
    5.3599079132e+01   -4.7542594910e+01
    5.3699489594e+01   -4.7780124664e+01
    5.3798709869e+01   -4.8017841339e+01
    5.3899330139e+01   -4.8255744934e+01
    5.3998748779e+01   -4.8493827820e+01
    5.4099578857e+01   -4.8732078552e+01
    5.4199211121e+01   -4.8970493317e+01
    5.4298931122e+01   -4.9209068298e+01
    5.4398769379e+01   -4.9447795868e+01
    5.4498699188e+01   -4.9686672211e+01
    5.4598720551e+01   -4.9925693512e+01
    5.4698860168e+01   -5.0164859772e+01
    5.4799079895e+01   -5.0404155731e+01
    5.4899410248e+01   -5.0643581390e+01
    5.4998508453e+01   -5.0883125305e+01
    5.5099029541e+01   -5.1122783661e+01
    5.5199638367e+01   -5.1362552643e+01
    5.5299018860e+01   -5.1602428436e+01
    5.5398490906e+01   -5.1842403412e+01
    5.5499370575e+01   -5.2082473755e+01
    5.5599010468e+01   -5.2322643280e+01
    5.5698738098e+01   -5.2562904358e+01
    5.5798549652e+01   -5.2803256989e+01
    5.5898441315e+01   -5.3043701172e+01
    5.5998409271e+01   -5.3284229279e+01
    5.6098461151e+01   -5.3524837494e+01
    5.6198589325e+01   -5.3765518188e+01
    5.6298789978e+01   -5.4006263733e+01
    5.6399070740e+01   -5.4247066498e+01
    5.6499420166e+01   -5.4487907410e+01
    5.6598510742e+01   -5.4728778839e+01
    5.6699008942e+01   -5.4969676971e+01
    5.6799591064e+01   -5.5210586548e+01
    5.6898899078e+01   -5.5451503754e+01
    5.6999629974e+01   -5.5692420959e+01
    5.7099079132e+01   -5.5933330536e+01
    5.7198608398e+01   -5.6174232483e+01
    5.7299560547e+01   -5.6415119171e+01
    5.7399230957e+01   -5.6655998230e+01
    5.7498981476e+01   -5.6896869659e+01
    5.7598800659e+01   -5.7137733459e+01
    5.7698680878e+01   -5.7378593445e+01
    5.7798641205e+01   -5.7619461060e+01
    5.7898670197e+01   -5.7860332489e+01
    5.7998760223e+01   -5.8101203918e+01
    5.8098930359e+01   -5.8342071533e+01
    5.8199161530e+01   -5.8582916260e+01
    5.8299468994e+01   -5.8823726654e+01
    5.8398479462e+01   -5.9064491272e+01
    5.8498920441e+01   -5.9305198669e+01
    5.8599430084e+01   -5.9545845032e+01
    5.8698650360e+01   -5.9786418915e+01
    5.8799308777e+01   -6.0026908875e+01
    5.8898670197e+01   -6.0267311096e+01
    5.8999469757e+01   -6.0507606506e+01
    5.9098979950e+01   -6.0747798920e+01
    5.9198570251e+01   -6.0987861633e+01
    5.9299591064e+01   -6.1227794647e+01
    5.9399330139e+01   -6.1467586517e+01
    5.9499149323e+01   -6.1707233429e+01
    5.9599040985e+01   -6.1946739197e+01
    5.9699020386e+01   -6.2186103821e+01
    5.9799079895e+01   -6.2425327301e+01
    5.9899219513e+01   -6.2664424896e+01
    5.9999439240e+01   -6.2903396606e+01
    6.0098381042e+01   -6.3142253876e+01
    6.0198768616e+01   -6.3380996704e+01
    6.0299259186e+01   -6.3619625092e+01
    6.0398448944e+01   -6.3858142853e+01
    6.0499111176e+01   -6.4096542358e+01
    6.0598480225e+01   -6.4334815979e+01
    6.0699321747e+01   -6.4572952271e+01
    6.0798870087e+01   -6.4810951233e+01
    6.0898521423e+01   -6.5048782349e+01
    6.0999629974e+01   -6.5286445618e+01
    6.1099460602e+01   -6.5523918152e+01
    6.1199390411e+01   -6.5761199951e+01
    6.1299400330e+01   -6.5998268127e+01
    6.1399509430e+01   -6.6235130310e+01
    6.1498329163e+01   -6.6471771240e+01
    6.1598640442e+01   -6.6708190918e+01
    6.1699039459e+01   -6.6944374084e+01
    6.1799549103e+01   -6.7180313110e+01
    6.1898761749e+01   -6.7416000366e+01
    6.1999469757e+01   -6.7651428223e+01
    6.2098880768e+01   -6.7886589050e+01
    6.2198390961e+01   -6.8121475220e+01
    6.2299411774e+01   -6.8356086731e+01
    6.2399131775e+01   -6.8590415955e+01
    6.2498939514e+01   -6.8824470520e+01
    6.2598861694e+01   -6.9058242798e+01
    6.2698860168e+01   -6.9291740417e+01
    6.2798980713e+01   -6.9524978638e+01
    6.2899200439e+01   -6.9757942200e+01
    6.2999500275e+01   -6.9990638733e+01
    6.3098659515e+01   -7.0223075867e+01
    6.3199169159e+01   -7.0455238342e+01
    6.3298370361e+01   -7.0687133789e+01
    6.3399078369e+01   -7.0918746948e+01
    6.3498470306e+01   -7.1150070190e+01
    6.3599330902e+01   -7.1381095886e+01
    6.3699550629e+01   -7.1611816406e+01
    6.3799209595e+01   -7.1842216492e+01
    6.3898971558e+01   -7.2072303772e+01
    6.3998821259e+01   -7.2302055359e+01
    6.4098747253e+01   -7.2531486511e+01
    6.4198776245e+01   -7.2760574341e+01
    6.4298889160e+01   -7.2989334106e+01
    6.4399093628e+01   -7.3217742920e+01
    6.4498123169e+01   -7.3445808411e+01
    6.4598556519e+01   -7.3673522949e+01
    6.4698997498e+01   -7.3900871277e+01
    6.4799530029e+01   -7.4127845764e+01
    6.4898696899e+01   -7.4354431152e+01
    6.4999366760e+01   -7.4580627441e+01
    6.5098686218e+01   -7.4806427002e+01
    6.5199516296e+01   -7.5031829834e+01
    6.5298988342e+01   -7.5256835938e+01
    6.5398941040e+01   -7.5481437683e+01
    6.5498863220e+01   -7.5705635071e+01
    6.5598701477e+01   -7.5929428101e+01
    6.5698730469e+01   -7.6152824402e+01
    6.5798530579e+01   -7.6375839233e+01
    6.5898536682e+01   -7.6598457336e+01
    6.5998718262e+01   -7.6820693970e+01
    6.6098930359e+01   -7.7042541504e+01
    6.6198982239e+01   -7.7263999939e+01
    6.6299240112e+01   -7.7485061646e+01
    6.6399513245e+01   -7.7705726624e+01
    6.6498497009e+01   -7.7925987244e+01
    6.6598793030e+01   -7.8145851135e+01
    6.6698150635e+01   -7.8365303040e+01
    6.6798896790e+01   -7.8584358215e+01
    6.6899467468e+01   -7.8803001404e+01
    6.6998756409e+01   -7.9021217346e+01
    6.7099296570e+01   -7.9239006042e+01
    6.7198722839e+01   -7.9456359863e+01
    6.7298171997e+01   -7.9673263550e+01
    6.7399070740e+01   -7.9889717102e+01
    6.7498756409e+01   -8.0105705261e+01
    6.7598106384e+01   -8.0321235657e+01
    6.7698989868e+01   -8.0536293030e+01
    6.7798461914e+01   -8.0750900269e+01
    6.7898330688e+01   -8.0965034485e+01
    6.7998748779e+01   -8.1178710938e+01
    6.8098983765e+01   -8.1391921997e+01
    6.8198066711e+01   -8.1604667664e+01
    6.8299476624e+01   -8.1816947937e+01
    6.8399299622e+01   -8.2028755188e+01
    6.8498931885e+01   -8.2240097046e+01
    6.8598602295e+01   -8.2450965881e+01
    6.8699333191e+01   -8.2661376953e+01
    6.8798126221e+01   -8.2871330261e+01
    6.8898986816e+01   -8.3080825806e+01
    6.8998176575e+01   -8.3289871216e+01
    6.9098426819e+01   -8.3498451233e+01
    6.9199363708e+01   -8.3706565857e+01
    6.9299293518e+01   -8.3914192200e+01
    6.9398666382e+01   -8.4121322632e+01
    6.9498672485e+01   -8.4327957153e+01
    6.9598541260e+01   -8.4534080505e+01
    6.9699172974e+01   -8.4739685059e+01
    6.9798248291e+01   -8.4944786072e+01
    6.9899497986e+01   -8.5149375916e+01
    6.9999000549e+01   -8.5353439331e+01
    7.0098106384e+01   -8.5556991577e+01
    7.0198791504e+01   -8.5760032654e+01
    7.0299003601e+01   -8.5962562561e+01
    7.0399040222e+01   -8.6164581299e+01
    7.0498443604e+01   -8.6366088867e+01
    7.0598716736e+01   -8.6567092896e+01
    7.0699279785e+01   -8.6767585754e+01
    7.0799018860e+01   -8.6967567444e+01
    7.0899307251e+01   -8.7167030334e+01
    7.0998832703e+01   -8.7365966797e+01
    7.1098442078e+01   -8.7564369202e+01
    7.1199150085e+01   -8.7762245178e+01
    7.1298751831e+01   -8.7959587097e+01
    7.1398262024e+01   -8.8156402588e+01
    7.1498413086e+01   -8.8352676392e+01
    7.1597991943e+01   -8.8548416138e+01
    7.1699172974e+01   -8.8743629456e+01
    7.1798843384e+01   -8.8938308716e+01
    7.1898536682e+01   -8.9132453918e+01
    7.1998336792e+01   -8.9326087952e+01
    7.2098243713e+01   -8.9519210815e+01
    7.2198516846e+01   -8.9711814880e+01
    7.2298606873e+01   -8.9903907776e+01
    7.2398811340e+01   -9.0095489502e+01
    7.2499099731e+01   -9.0286567688e+01
    7.2597969055e+01   -9.0477134705e+01
    7.2698463440e+01   -9.0667198181e+01
    7.2799026489e+01   -9.0856750488e+01
    7.2898170471e+01   -9.1045791626e+01
    7.2998931885e+01   -9.1234313965e+01
    7.3098358154e+01   -9.1422302246e+01
    7.3199287415e+01   -9.1609771729e+01
    7.3298782349e+01   -9.1796714783e+01
    7.3398353577e+01   -9.1983131409e+01
    7.3498001099e+01   -9.2169021606e+01
    7.3599258423e+01   -9.2354385376e+01
    7.3699073792e+01   -9.2539237976e+01
    7.3798942566e+01   -9.2723571777e+01
    7.3898887634e+01   -9.2907379150e+01
    7.3998908997e+01   -9.3090682983e+01
    7.4098991394e+01   -9.3273460388e+01
    7.4199142456e+01   -9.3455711365e+01
    7.4299362183e+01   -9.3637435913e+01
    7.4398101807e+01   -9.3818618774e+01
    7.4498443604e+01   -9.3999267578e+01
    7.4598846436e+01   -9.4179374695e+01
    7.4699302673e+01   -9.4358947754e+01
    7.4798278809e+01   -9.4537979126e+01
    7.4898857117e+01   -9.4716484070e+01
    7.4997940063e+01   -9.4894447327e+01
    7.5098632812e+01   -9.5071891785e+01
    7.5199363708e+01   -9.5248809814e+01
    7.5298599243e+01   -9.5425209045e+01
    7.5397888184e+01   -9.5601089478e+01
    7.5498756409e+01   -9.5776466370e+01
    7.5598136902e+01   -9.5951332092e+01
    7.5699111938e+01   -9.6125686646e+01
    7.5798568726e+01   -9.6299552917e+01
    7.5898071289e+01   -9.6472915649e+01
    7.5999160767e+01   -9.6645774841e+01
    7.6098739624e+01   -9.6818153381e+01
    7.6198348999e+01   -9.6990036011e+01
    7.6297996521e+01   -9.7161453247e+01
    7.6399246216e+01   -9.7332397461e+01
    7.6498977661e+01   -9.7502876282e+01
    7.6598739624e+01   -9.7672889709e+01
    7.6698539734e+01   -9.7842437744e+01
    7.6798393250e+01   -9.8011528015e+01
    7.6898269653e+01   -9.8180145264e+01
    7.6998191833e+01   -9.8348304749e+01
    7.7098152161e+01   -9.8516014099e+01
    7.7198150635e+01   -9.8683258057e+01
    7.7298187256e+01   -9.8850044250e+01
    7.7398269653e+01   -9.9016357422e+01
    7.7498390198e+01   -9.9182212830e+01
    7.7598556519e+01   -9.9347602844e+01
    7.7698753357e+01   -9.9512519836e+01
    7.7799003601e+01   -9.9676986694e+01
    7.7899276733e+01   -9.9840995789e+01
    7.7998031616e+01   -1.0000455475e+02
    7.8098388672e+01   -1.0016765594e+02
    7.8198791504e+01   -1.0033031464e+02
    7.8299217224e+01   -1.0049251556e+02
    7.8398139954e+01   -1.0065426636e+02
    7.8498657227e+01   -1.0081557465e+02
    7.8599212646e+01   -1.0097644806e+02
    7.8698226929e+01   -1.0113688660e+02
    7.8798866272e+01   -1.0129688263e+02
    7.8897979736e+01   -1.0145646667e+02
    7.8998703003e+01   -1.0161563873e+02
    7.9097869873e+01   -1.0177440643e+02
    7.9198661804e+01   -1.0193280029e+02
    7.9297912598e+01   -1.0209081268e+02
    7.9398773193e+01   -1.0224846649e+02
    7.9498092651e+01   -1.0240576172e+02
    7.9599006653e+01   -1.0256271362e+02
    7.9698387146e+01   -1.0271931458e+02
    7.9797790527e+01   -1.0287557983e+02
    7.9898803711e+01   -1.0303150940e+02
    7.9998237610e+01   -1.0318708801e+02
    8.0099281311e+01   -1.0334232330e+02
    8.0198760986e+01   -1.0349720764e+02
    8.0298263550e+01   -1.0365174866e+02
    8.0399337769e+01   -1.0380595398e+02
    8.0498840332e+01   -1.0395983887e+02
    8.0598350525e+01   -1.0411339569e+02
    8.0697853088e+01   -1.0426663971e+02
    8.0798927307e+01   -1.0441958618e+02
    8.0898422241e+01   -1.0457222748e+02
    8.0997901917e+01   -1.0472457886e+02
    8.1098937988e+01   -1.0487663269e+02
    8.1198379517e+01   -1.0502839661e+02
    8.1297790527e+01   -1.0517986298e+02
    8.1398757935e+01   -1.0533104706e+02
    8.1498107910e+01   -1.0548194122e+02
    8.1598999023e+01   -1.0563253784e+02
    8.1698272705e+01   -1.0578284454e+02
    8.1799072266e+01   -1.0593285370e+02
    8.1898246765e+01   -1.0608258057e+02
    8.1998947144e+01   -1.0623202515e+02
    8.2098007202e+01   -1.0638120270e+02
    8.2198577881e+01   -1.0653009796e+02
    8.2299072266e+01   -1.0667872620e+02
    8.2397926331e+01   -1.0682709503e+02
    8.2498283386e+01   -1.0697520447e+02
    8.2598548889e+01   -1.0712305450e+02
    8.2698738098e+01   -1.0727065277e+02
    8.2798843384e+01   -1.0741801453e+02
    8.2898857117e+01   -1.0756514740e+02
    8.2998802185e+01   -1.0771204376e+02
    8.3098640442e+01   -1.0785873413e+02
    8.3198387146e+01   -1.0800520325e+02
    8.3298057556e+01   -1.0815147400e+02
    8.3399177551e+01   -1.0829754639e+02
    8.3498641968e+01   -1.0844344330e+02
    8.3598007202e+01   -1.0858917999e+02
    8.3698829651e+01   -1.0873476410e+02
    8.3797988892e+01   -1.0888020325e+02
    8.3898597717e+01   -1.0902551270e+02
    8.3999099731e+01   -1.0917070007e+02
    8.4097953796e+01   -1.0931577301e+02
    8.4198226929e+01   -1.0946074677e+02
    8.4298400879e+01   -1.0960562134e+02
    8.4398460388e+01   -1.0975040436e+02
    8.4498413086e+01   -1.0989511108e+02
    8.4598243713e+01   -1.1003975677e+02
    8.4697952271e+01   -1.1018435669e+02
    8.4799079895e+01   -1.1032892609e+02
    8.4898551941e+01   -1.1047347260e+02
    8.4997901917e+01   -1.1061801910e+02
    8.5098663330e+01   -1.1076257324e+02
    8.5197761536e+01   -1.1090716553e+02
    8.5298263550e+01   -1.1105178833e+02
    8.5398643494e+01   -1.1119646454e+02
    8.5498878479e+01   -1.1134120178e+02
    8.5598991394e+01   -1.1148600769e+02
    8.5698966980e+01   -1.1163088989e+02
    8.5798812866e+01   -1.1177585602e+02
    8.5898513794e+01   -1.1192092133e+02
    8.5998077393e+01   -1.1206609344e+02
    8.6099021912e+01   -1.1221138763e+02
    8.6198318481e+01   -1.1235680389e+02
    8.6298973083e+01   -1.1250235748e+02
    8.6397987366e+01   -1.1264804840e+02
    8.6498359680e+01   -1.1279388428e+02
    8.6598579407e+01   -1.1293988037e+02
    8.6698646545e+01   -1.1308603668e+02
    8.6798576355e+01   -1.1323237610e+02
    8.6898361206e+01   -1.1337889862e+02
    8.6997993469e+01   -1.1352564240e+02
    8.7098953247e+01   -1.1367260742e+02
    8.7198646545e+01   -1.1381981659e+02
    8.7297821045e+01   -1.1396728516e+02
    8.7398590088e+01   -1.1411503601e+02
    8.7498100281e+01   -1.1426308441e+02
    8.7598281860e+01   -1.1441142273e+02
    8.7698478699e+01   -1.1456008148e+02
    8.7798286438e+01   -1.1470906830e+02
    8.7897949219e+01   -1.1485838318e+02
    8.7999023438e+01   -1.1500804138e+02
    8.8098411560e+01   -1.1515805054e+02
    8.8198806763e+01   -1.1530841827e+02
    8.8298622131e+01   -1.1545915222e+02
    8.8399108887e+01   -1.1561027527e+02
    8.8497993469e+01   -1.1576177979e+02
    8.8598182678e+01   -1.1591367340e+02
    8.8697906494e+01   -1.1606598663e+02
    8.8797828674e+01   -1.1621870422e+02
    8.8899116516e+01   -1.1637184143e+02
    8.8998733521e+01   -1.1652542114e+02
    8.9098243713e+01   -1.1667944336e+02
    8.9199142456e+01   -1.1683389282e+02
    8.9298400879e+01   -1.1698878479e+02
    8.9399063110e+01   -1.1714411163e+02
    8.9498046875e+01   -1.1729988098e+02
    8.9598640442e+01   -1.1745606995e+02
    8.9698013306e+01   -1.1761267090e+02
    8.9799079895e+01   -1.1776966858e+02
    8.9899017334e+01   -1.1792701721e+02
    8.9998832703e+01   -1.1808470154e+02
    9.0098533630e+01   -1.1824265289e+02
    9.0198120117e+01   -1.1840082550e+02
    9.0299110413e+01   -1.1855914307e+02
    9.0398483276e+01   -1.1871753693e+02
    9.0498092651e+01   -1.1887588501e+02
    9.0598297119e+01   -1.1903408813e+02
    9.0698593140e+01   -1.1919198608e+02
    9.0798156738e+01   -1.1934943390e+02
    9.0898399353e+01   -1.1950624847e+02
    9.0998573303e+01   -1.1966226196e+02
    9.1098663330e+01   -1.1981727600e+02
    9.1198699951e+01   -1.1997109985e+02
    9.1298713684e+01   -1.2012355804e+02
    9.1398689270e+01   -1.2027449036e+02
    9.1498641968e+01   -1.2042372131e+02
    9.1598587036e+01   -1.2057113647e+02
    9.1698547363e+01   -1.2071662903e+02
    9.1798538208e+01   -1.2086010742e+02
    9.1898590088e+01   -1.2100151825e+02
    9.1998733521e+01   -1.2114086151e+02
    9.2099006653e+01   -1.2127813721e+02
    9.2197937012e+01   -1.2141338348e+02
    9.2298553467e+01   -1.2154669952e+02
    9.2397857666e+01   -1.2167819214e+02
    9.2498840332e+01   -1.2180802917e+02
    9.2598503113e+01   -1.2193639374e+02
    9.2698333740e+01   -1.2206348419e+02
    9.2798561096e+01   -1.2218951416e+02
    9.2898521423e+01   -1.2231470490e+02
    9.2998680115e+01   -1.2243927765e+02
    9.3098869324e+01   -1.2256346130e+02
    9.3197669983e+01   -1.2268745422e+02
    9.3298789978e+01   -1.2281142426e+02
    9.3398651123e+01   -1.2293555450e+02
    9.3498703003e+01   -1.2305996704e+02
    9.3598922729e+01   -1.2318479156e+02
    9.3697799683e+01   -1.2331011963e+02
    9.3798233032e+01   -1.2343602753e+02
    9.3898757935e+01   -1.2356253052e+02
    9.3997917175e+01   -1.2368965912e+02
    9.4098640442e+01   -1.2381741333e+02
    9.4197959900e+01   -1.2394574738e+02
    9.4298812866e+01   -1.2407461548e+02
    9.4398216248e+01   -1.2420396423e+02
    9.4497673035e+01   -1.2433370972e+02
    9.4598617554e+01   -1.2446376801e+02
    9.4698089600e+01   -1.2459403992e+02
    9.4799011230e+01   -1.2472444153e+02
    9.4898468018e+01   -1.2485486603e+02
    9.4997917175e+01   -1.2498522949e+02
    9.5098846436e+01   -1.2511543274e+02
    9.5198333740e+01   -1.2524542236e+02
    9.5297813416e+01   -1.2537514496e+02
    9.5398788452e+01   -1.2550455475e+02
    9.5498336792e+01   -1.2563365936e+02
    9.5597938538e+01   -1.2576242828e+02
    9.5699073792e+01   -1.2589089203e+02
    9.5798828125e+01   -1.2601905060e+02
    9.5898696899e+01   -1.2614691925e+02
    9.5998497009e+01   -1.2627452850e+02
    9.6098632812e+01   -1.2640190887e+02
    9.6198913574e+01   -1.2652911377e+02
    9.6297813416e+01   -1.2665616608e+02
    9.6398437500e+01   -1.2678310394e+02
    9.6497673035e+01   -1.2690998077e+02
    9.6598670959e+01   -1.2703682709e+02
    9.6697647095e+01   -1.2716367340e+02
    9.6799057007e+01   -1.2729053497e+02
    9.6899093628e+01   -1.2741743469e+02
    9.6997749329e+01   -1.2754437256e+02
    9.7098228455e+01   -1.2767137146e+02
    9.7198921204e+01   -1.2779842377e+02
    9.7298233032e+01   -1.2792552948e+02
    9.7397750854e+01   -1.2805267334e+02
    9.7497482300e+01   -1.2817987061e+02
    9.7598648071e+01   -1.2830709839e+02
    9.7698081970e+01   -1.2843435669e+02
    9.7797920227e+01   -1.2856161499e+02
    9.7898719788e+01   -1.2868888855e+02
    9.7998443604e+01   -1.2881614685e+02
    9.8098747253e+01   -1.2894337463e+02
    9.8198059082e+01   -1.2907055664e+02
    9.8297576904e+01   -1.2919769287e+02
    9.8398887634e+01   -1.2932476807e+02
    9.8497596741e+01   -1.2945173645e+02
    9.8598953247e+01   -1.2957858276e+02
    9.8697700500e+01   -1.2970530701e+02
    9.8798027039e+01   -1.2983187866e+02
    9.8898391724e+01   -1.2995829773e+02
    9.8998756409e+01   -1.3008451843e+02
    9.9097602844e+01   -1.3021051025e+02
    9.9197921753e+01   -1.3033625793e+02
    9.9298309326e+01   -1.3046176147e+02
    9.9398521423e+01   -1.3058695984e+02
    9.9498527527e+01   -1.3071185303e+02
    9.9598297119e+01   -1.3083642578e+02
    9.9699050903e+01   -1.3096063232e+02
    9.9797889709e+01   -1.3108445740e+02
    9.9898216248e+01   -1.3120788574e+02
    9.9998466492e+01   -1.3133090210e+02
    1.0009860229e+02   -1.3145349121e+02
    1.0019850159e+02   -1.3157562256e+02
    1.0029830170e+02   -1.3169726562e+02
    1.0039800262e+02   -1.3181843567e+02
    1.0049759674e+02   -1.3193911743e+02
    1.0059850311e+02   -1.3205928040e+02
    1.0069779968e+02   -1.3217892456e+02
    1.0079850006e+02   -1.3229803467e+02
    1.0089759827e+02   -1.3241659546e+02
    1.0099819946e+02   -1.3253459167e+02
    1.0109870148e+02   -1.3265202332e+02
    1.0119809723e+02   -1.3276885986e+02
    1.0129869843e+02   -1.3288511658e+02
    1.0139769745e+02   -1.3300077820e+02
    1.0149859619e+02   -1.3311582947e+02
    1.0159750366e+02   -1.3323027039e+02
    1.0169809723e+02   -1.3334413147e+02
    1.0179869843e+02   -1.3345735168e+02
    1.0189790344e+02   -1.3356997681e+02
    1.0199870300e+02   -1.3368196106e+02
    1.0209819794e+02   -1.3379331970e+02
    1.0219750214e+02   -1.3390400696e+02
    1.0229810333e+02   -1.3401403809e+02
    1.0239869690e+02   -1.3412341309e+02
    1.0249780273e+02   -1.3423208618e+02
    1.0259850311e+02   -1.3434008789e+02
    1.0269760132e+02   -1.3444740295e+02
    1.0279879761e+02   -1.3455403137e+02
    1.0289849854e+02   -1.3465997314e+02
    1.0299819946e+02   -1.3476521301e+02
    1.0309829712e+02   -1.3486975098e+02
    1.0319799805e+02   -1.3497360229e+02
    1.0329879761e+02   -1.3507675171e+02
    1.0339790344e+02   -1.3517922974e+02
    1.0349859619e+02   -1.3528102112e+02
    1.0359889984e+02   -1.3538214111e+02
    1.0369840240e+02   -1.3548255920e+02
    1.0379789734e+02   -1.3558230591e+02
    1.0389880371e+02   -1.3568136597e+02
    1.0399810028e+02   -1.3577973938e+02
    1.0409899902e+02   -1.3587739563e+02
    1.0419840240e+02   -1.3597436523e+02
    1.0429769897e+02   -1.3607066345e+02
    1.0439830017e+02   -1.3616625977e+02
    1.0449870300e+02   -1.3626118469e+02
    1.0459880066e+02   -1.3635540771e+02
    1.0469869995e+02   -1.3644897461e+02
    1.0479840088e+02   -1.3654182434e+02
    1.0489800262e+02   -1.3663398743e+02
    1.0499810028e+02   -1.3672544861e+02
    1.0509860229e+02   -1.3681619263e+02
    1.0519809723e+02   -1.3690623474e+02
    1.0529869843e+02   -1.3699555969e+02
    1.0539779663e+02   -1.3708416748e+02
    1.0549829865e+02   -1.3717204285e+02
    1.0559870148e+02   -1.3725915527e+02
    1.0569809723e+02   -1.3734552002e+02
    1.0579820251e+02   -1.3743110657e+02
    1.0589839935e+02   -1.3751593018e+02
    1.0599849701e+02   -1.3759996033e+02
    1.0609889984e+02   -1.3768318176e+02
    1.0619760132e+02   -1.3776557922e+02
    1.0629789734e+02   -1.3784715271e+02
    1.0639820099e+02   -1.3792788696e+02
    1.0649870300e+02   -1.3800776672e+02
    1.0659829712e+02   -1.3808679199e+02
    1.0669840240e+02   -1.3816493225e+02
    1.0679840088e+02   -1.3824220276e+02
    1.0689830017e+02   -1.3831855774e+02
    1.0699790192e+02   -1.3839401245e+02
    1.0709870148e+02   -1.3846855164e+02
    1.0719770050e+02   -1.3854217529e+02
    1.0729789734e+02   -1.3861483765e+02
    1.0739880371e+02   -1.3868655396e+02
    1.0749819946e+02   -1.3875729370e+02
    1.0759889984e+02   -1.3882705688e+02
    1.0769879913e+02   -1.3889582825e+02
    1.0779859924e+02   -1.3896360779e+02
    1.0789810181e+02   -1.3903038025e+02
    1.0799849701e+02   -1.3909616089e+02
    1.0809790039e+02   -1.3916093445e+02
    1.0819850159e+02   -1.3922468567e+02
    1.0829859924e+02   -1.3928742981e+02
    1.0839779663e+02   -1.3934915161e+02
    1.0849819946e+02   -1.3940985107e+02
    1.0859829712e+02   -1.3946952820e+02
    1.0869889832e+02   -1.3952815247e+02
    1.0879789734e+02   -1.3958573914e+02
    1.0889820099e+02   -1.3964227295e+02
    1.0899829865e+02   -1.3969772339e+02
    1.0909839630e+02   -1.3975212097e+02
    1.0919819641e+02   -1.3980545044e+02
    1.0929879761e+02   -1.3985771179e+02
    1.0939820099e+02   -1.3990890503e+02
    1.0949849701e+02   -1.3995899963e+02
    1.0959809875e+02   -1.4000802612e+02
    1.0969889832e+02   -1.4005595398e+02
    1.0979810333e+02   -1.4010279846e+02
    1.0989790344e+02   -1.4014854431e+02
    1.0999880219e+02   -1.4019319153e+02
    1.1009819794e+02   -1.4023674011e+02
    1.1019770050e+02   -1.4027917480e+02
    1.1029879761e+02   -1.4032051086e+02
    1.1039800262e+02   -1.4036073303e+02
    1.1049870300e+02   -1.4039984131e+02
    1.1059870148e+02   -1.4043785095e+02
    1.1069779968e+02   -1.4047474670e+02
    1.1079830170e+02   -1.4051052856e+02
    1.1089820099e+02   -1.4054519653e+02
    1.1099870300e+02   -1.4057875061e+02
    1.1109780121e+02   -1.4061117554e+02
    1.1119879913e+02   -1.4064248657e+02
    1.1129850006e+02   -1.4067266846e+02
    1.1139869690e+02   -1.4070170593e+02
    1.1149839783e+02   -1.4072958374e+02
    1.1159819794e+02   -1.4075631714e+02
    1.1169799805e+02   -1.4078190613e+02
    1.1179799652e+02   -1.4080633545e+02
    1.1189800262e+02   -1.4082962036e+02
    1.1199819946e+02   -1.4085176086e+02
    1.1209850311e+02   -1.4087277222e+02
    1.1219750214e+02   -1.4089263916e+02
    1.1229810333e+02   -1.4091137695e+02
    1.1239880371e+02   -1.4092898560e+02
    1.1249819946e+02   -1.4094546509e+02
    1.1259760284e+02   -1.4096083069e+02
    1.1269860077e+02   -1.4097506714e+02
    1.1279810333e+02   -1.4098818970e+02
    1.1289769745e+02   -1.4100018311e+02
    1.1299880219e+02   -1.4101103210e+02
    1.1309850311e+02   -1.4102076721e+02
    1.1319830322e+02   -1.4102937317e+02
    1.1329820251e+02   -1.4103688049e+02
    1.1339800262e+02   -1.4104328918e+02
    1.1349790192e+02   -1.4104859924e+02
    1.1359770203e+02   -1.4105282593e+02
    1.1369740295e+02   -1.4105595398e+02
    1.1379750061e+02   -1.4105801392e+02
    1.1389739990e+02   -1.4105897522e+02
    1.1399870300e+02   -1.4105885315e+02
    1.1409829712e+02   -1.4105764771e+02
    1.1419789886e+02   -1.4105537415e+02
    1.1429840088e+02   -1.4105200195e+02
    1.1439830017e+02   -1.4104756165e+02
    1.1449829865e+02   -1.4104203796e+02
    1.1459829712e+02   -1.4103544617e+02
    1.1469819641e+02   -1.4102775574e+02
    1.1479750061e+02   -1.4101899719e+02
    1.1489749908e+02   -1.4100917053e+02
    1.1499739838e+02   -1.4099827576e+02
    1.1509880066e+02   -1.4098632812e+02
    1.1519830322e+02   -1.4097329712e+02
    1.1529779816e+02   -1.4095919800e+02
    1.1539869690e+02   -1.4094401550e+02
    1.1549819946e+02   -1.4092773438e+02
    1.1559809875e+02   -1.4091035461e+02
    1.1569799805e+02   -1.4089187622e+02
    1.1579789734e+02   -1.4087229919e+02
    1.1589769745e+02   -1.4085160828e+02
    1.1599880219e+02   -1.4082980347e+02
    1.1609770203e+02   -1.4080688477e+02
    1.1619869995e+02   -1.4078283691e+02
    1.1629810333e+02   -1.4075767517e+02
    1.1639759827e+02   -1.4073135376e+02
    1.1649859619e+02   -1.4070391846e+02
    1.1659799957e+02   -1.4067533875e+02
    1.1669750214e+02   -1.4064561462e+02
    1.1679840088e+02   -1.4061473083e+02
    1.1689769745e+02   -1.4058271790e+02
    1.1699739838e+02   -1.4054954529e+02
    1.1709799957e+02   -1.4051522827e+02
    1.1719869995e+02   -1.4047975159e+02
    1.1729740143e+02   -1.4044313049e+02
    1.1739800262e+02   -1.4040533447e+02
    1.1749790192e+02   -1.4036639404e+02
    1.1759770203e+02   -1.4032626343e+02
    1.1769860077e+02   -1.4028495789e+02
    1.1779859924e+02   -1.4024247742e+02
    1.1789779663e+02   -1.4019882202e+02
    1.1799859619e+02   -1.4015397644e+02
    1.1809770203e+02   -1.4010795593e+02
    1.1819819641e+02   -1.4006072998e+02
    1.1829759979e+02   -1.4001231384e+02
    1.1839739990e+02   -1.3996267700e+02
    1.1849849701e+02   -1.3991186523e+02
    1.1859809875e+02   -1.3985986328e+02
    1.1869760132e+02   -1.3980667114e+02
    1.1879840088e+02   -1.3975230408e+02
    1.1889779663e+02   -1.3969677734e+02
    1.1899839783e+02   -1.3964007568e+02
    1.1909829712e+02   -1.3958224487e+02
    1.1919760132e+02   -1.3952325439e+02
    1.1929840088e+02   -1.3946311951e+02
    1.1939790344e+02   -1.3940180969e+02
    1.1949819946e+02   -1.3933935547e+02
    1.1959839630e+02   -1.3927572632e+02
    1.1969740295e+02   -1.3921090698e+02
    1.1979789734e+02   -1.3914492798e+02
    1.1989869690e+02   -1.3907775879e+02
    1.1999729919e+02   -1.3900942993e+02
    1.2009819794e+02   -1.3893991089e+02
    1.2019789886e+02   -1.3886923218e+02
    1.2029779816e+02   -1.3879736328e+02
    1.2039810181e+02   -1.3872433472e+02
    1.2049759674e+02   -1.3865011597e+02
    1.2059809875e+02   -1.3857472229e+02
    1.2069730377e+02   -1.3849816895e+02
    1.2079830170e+02   -1.3842044067e+02
    1.2089810181e+02   -1.3834156799e+02
    1.2099819946e+02   -1.3826153564e+02
    1.2109739685e+02   -1.3818038940e+02
    1.2119819641e+02   -1.3809809875e+02
    1.2129810333e+02   -1.3801472473e+02
    1.2139830017e+02   -1.3793025208e+02
    1.2149739838e+02   -1.3784472656e+02
    1.2159829712e+02   -1.3775813293e+02
    1.2169789886e+02   -1.3767048645e+02
    1.2179779816e+02   -1.3758178711e+02
    1.2189790344e+02   -1.3749203491e+02
    1.2199829865e+02   -1.3740122986e+02
    1.2209739685e+02   -1.3730941772e+02
    1.2219819641e+02   -1.3721659851e+02
    1.2229789734e+02   -1.3712277222e+02
    1.2239779663e+02   -1.3702793884e+02
    1.2249780273e+02   -1.3693212891e+02
    1.2259809875e+02   -1.3683537292e+02
    1.2269840240e+02   -1.3673765564e+02
    1.2279750061e+02   -1.3663900757e+02
    1.2289790344e+02   -1.3653942871e+02
    1.2299829865e+02   -1.3643891907e+02
    1.2309839630e+02   -1.3633747864e+02
    1.2319840240e+02   -1.3623512268e+02
    1.2329830170e+02   -1.3613182068e+02
    1.2339810181e+02   -1.3602758789e+02
    1.2349780273e+02   -1.3592245483e+02
    1.2359750366e+02   -1.3581639099e+02
    1.2369860077e+02   -1.3570942688e+02
    1.2379830170e+02   -1.3560156250e+02
    1.2389839935e+02   -1.3549281311e+02
    1.2399800110e+02   -1.3538317871e+02
    1.2409750366e+02   -1.3527265930e+02
    1.2419730377e+02   -1.3516127014e+02
    1.2429789734e+02   -1.3504901123e+02
    1.2439739990e+02   -1.3493586731e+02
    1.2449749756e+02   -1.3482185364e+02
    1.2459739685e+02   -1.3470697021e+02
    1.2469779968e+02   -1.3459121704e+02
    1.2479840088e+02   -1.3447457886e+02
    1.2489859772e+02   -1.3435705566e+02
    1.2499749756e+02   -1.3423863220e+02
    1.2509739685e+02   -1.3411932373e+02
    1.2519730377e+02   -1.3399909973e+02
    1.2529750061e+02   -1.3387797546e+02
    1.2539759827e+02   -1.3375598145e+02
    1.2549839783e+02   -1.3363307190e+02
    1.2559790039e+02   -1.3350929260e+02
    1.2569799805e+02   -1.3338461304e+02
    1.2579799652e+02   -1.3325906372e+02
    1.2589790344e+02   -1.3313262939e+02
    1.2599780273e+02   -1.3300531006e+02
    1.2609760284e+02   -1.3287713623e+02
    1.2619750214e+02   -1.3274810791e+02
    1.2629740143e+02   -1.3261820984e+02
    1.2639839935e+02   -1.3248747253e+02
    1.2649770355e+02   -1.3235588074e+02
    1.2659719849e+02   -1.3222346497e+02
    1.2669730377e+02   -1.3209020996e+02
    1.2679799652e+02   -1.3195611572e+02
    1.2689720154e+02   -1.3182119751e+02
    1.2699790192e+02   -1.3168547058e+02
    1.2709839630e+02   -1.3154891968e+02
    1.2719750214e+02   -1.3141156006e+02
    1.2729799652e+02   -1.3127337646e+02
    1.2739739990e+02   -1.3113438416e+02
    1.2749810028e+02   -1.3099456787e+02
    1.2759829712e+02   -1.3085392761e+02
    1.2769840240e+02   -1.3071246338e+02
    1.2779850006e+02   -1.3057019043e+02
    1.2789849854e+02   -1.3042707825e+02
    1.2799849701e+02   -1.3028314209e+02
    1.2809730530e+02   -1.3013838196e+02
    1.2819769287e+02   -1.2999279785e+02
    1.2829820251e+02   -1.2984643555e+02
    1.2839750671e+02   -1.2969929504e+02
    1.2849719238e+02   -1.2955139160e+02
    1.2859800720e+02   -1.2940274048e+02
    1.2869830322e+02   -1.2925337219e+02
    1.2879719543e+02   -1.2910330200e+02
    1.2889779663e+02   -1.2895251465e+02
    1.2899800110e+02   -1.2880105591e+02
    1.2909739685e+02   -1.2864891052e+02
    1.2919859314e+02   -1.2849609375e+02
    1.2929849243e+02   -1.2834262085e+02
    1.2939860535e+02   -1.2818847656e+02
    1.2949729919e+02   -1.2803367615e+02
    1.2959790039e+02   -1.2787824249e+02
    1.2969859314e+02   -1.2772217560e+02
    1.2979820251e+02   -1.2756547546e+02
    1.2989750671e+02   -1.2740818024e+02
    1.2999830627e+02   -1.2725028229e+02
    1.3009840393e+02   -1.2709181213e+02
    1.3019869995e+02   -1.2693277740e+02
    1.3029760742e+02   -1.2677320099e+02
    1.3039810181e+02   -1.2661308289e+02
    1.3049729919e+02   -1.2645245361e+02
    1.3059820557e+02   -1.2629131317e+02
    1.3069760132e+02   -1.2612968445e+02
    1.3079870605e+02   -1.2596757507e+02
    1.3089830017e+02   -1.2580501556e+02
    1.3099769592e+02   -1.2564202118e+02
    1.3109849548e+02   -1.2547859192e+02
    1.3119779968e+02   -1.2531473541e+02
    1.3129879761e+02   -1.2515046692e+02
    1.3139810181e+02   -1.2498580170e+02
    1.3149729919e+02   -1.2482075500e+02
    1.3159809875e+02   -1.2465534210e+02
    1.3169869995e+02   -1.2448955536e+02
    1.3179769897e+02   -1.2432342529e+02
    1.3189799500e+02   -1.2415697479e+02
    1.3199819946e+02   -1.2399020386e+02
    1.3209820557e+02   -1.2382313538e+02
    1.3219790649e+02   -1.2365579224e+02
    1.3229750061e+02   -1.2348818970e+02
    1.3239849854e+02   -1.2332034302e+02
    1.3249769592e+02   -1.2315225983e+02
    1.3259840393e+02   -1.2298396301e+02
    1.3269740295e+02   -1.2281546021e+02
    1.3279780579e+02   -1.2264675140e+02
    1.3289830017e+02   -1.2247785187e+02
    1.3299819946e+02   -1.2230876160e+02
    1.3309800720e+02   -1.2213947296e+02
    1.3319779968e+02   -1.2197001648e+02
    1.3329750061e+02   -1.2180037689e+02
    1.3339739990e+02   -1.2163056946e+02
    1.3349729919e+02   -1.2146061707e+02
    1.3359730530e+02   -1.2129052734e+02
    1.3369889832e+02   -1.2112031555e+02
    1.3379879761e+02   -1.2094999695e+02
    1.3389860535e+02   -1.2077957916e+02
    1.3399800110e+02   -1.2060906219e+02
    1.3409890747e+02   -1.2043845367e+02
    1.3419760132e+02   -1.2026775360e+02
    1.3429800415e+02   -1.2009694672e+02
    1.3439840698e+02   -1.1992604065e+02
    1.3449870300e+02   -1.1975502014e+02
    1.3459770203e+02   -1.1958387756e+02
    1.3469839478e+02   -1.1941259766e+02
    1.3479800415e+02   -1.1924117279e+02
    1.3489810181e+02   -1.1906959534e+02
    1.3499800110e+02   -1.1889786530e+02
    1.3509770203e+02   -1.1872598267e+02
    1.3519889832e+02   -1.1855395508e+02
    1.3529899597e+02   -1.1838178253e+02
    1.3539849854e+02   -1.1820949554e+02
    1.3549909973e+02   -1.1803709412e+02
    1.3559759521e+02   -1.1786460114e+02
    1.3569900513e+02   -1.1769202423e+02
    1.3579859924e+02   -1.1751937866e+02
    1.3589790344e+02   -1.1734667969e+02
    1.3599850464e+02   -1.1717395020e+02
    1.3609890747e+02   -1.1700122070e+02
    1.3619900513e+02   -1.1682850647e+02
    1.3629890442e+02   -1.1665583801e+02
    1.3639860535e+02   -1.1648321533e+02
    1.3649800110e+02   -1.1631066895e+02
    1.3659860229e+02   -1.1613819885e+02
    1.3669900513e+02   -1.1596584320e+02
    1.3679769897e+02   -1.1579360962e+02
    1.3689770508e+02   -1.1562152100e+02
    1.3699890137e+02   -1.1544960022e+02
    1.3709880066e+02   -1.1527787018e+02
    1.3719779968e+02   -1.1510636139e+02
    1.3729820251e+02   -1.1493509674e+02
    1.3739860535e+02   -1.1476410675e+02
    1.3749870300e+02   -1.1459339905e+02
    1.3759860229e+02   -1.1442301178e+02
    1.3769819641e+02   -1.1425295258e+02
    1.3779780579e+02   -1.1408324432e+02
    1.3789860535e+02   -1.1391390228e+02
    1.3799780273e+02   -1.1374493408e+02
    1.3809829712e+02   -1.1357635498e+02
    1.3819859314e+02   -1.1340818024e+02
    1.3829879761e+02   -1.1324041748e+02
    1.3839889526e+02   -1.1307309723e+02
    1.3849890137e+02   -1.1290623474e+02
    1.3859880066e+02   -1.1273984528e+02
    1.3869869995e+02   -1.1257395935e+02
    1.3879840088e+02   -1.1240859985e+02
    1.3889799500e+02   -1.1224378967e+02
    1.3899899292e+02   -1.1207956696e+02
    1.3909840393e+02   -1.1191594696e+02
    1.3919909668e+02   -1.1175296021e+02
    1.3929829407e+02   -1.1159062195e+02
    1.3939880371e+02   -1.1142897034e+02
    1.3949920654e+02   -1.1126803589e+02
    1.3959800720e+02   -1.1110782623e+02
    1.3969810486e+02   -1.1094837189e+02
    1.3979800415e+02   -1.1078968048e+02
    1.3989920044e+02   -1.1063177490e+02
    1.3999859619e+02   -1.1047467041e+02
    1.4009930420e+02   -1.1031836700e+02
    1.4019830322e+02   -1.1016287994e+02
    1.4029859924e+02   -1.1000820923e+02
    1.4039860535e+02   -1.0985434723e+02
    1.4049819946e+02   -1.0970130920e+02
    1.4059899902e+02   -1.0954908752e+02
    1.4069810486e+02   -1.0939768982e+02
    1.4079840088e+02   -1.0924710083e+02
    1.4089900208e+02   -1.0909732056e+02
    1.4099909973e+02   -1.0894832611e+02
    1.4109899902e+02   -1.0880010986e+02
    1.4119869995e+02   -1.0865266418e+02
    1.4129809570e+02   -1.0850598907e+02
    1.4139889526e+02   -1.0836006165e+02
    1.4149809265e+02   -1.0821488190e+02
    1.4159860229e+02   -1.0807044220e+02
    1.4169889832e+02   -1.0792675018e+02
    1.4179899597e+02   -1.0778378296e+02
    1.4189889526e+02   -1.0764156342e+02
    1.4199870300e+02   -1.0750008392e+02
    1.4209829712e+02   -1.0735936737e+02
    1.4219920349e+02   -1.0721941376e+02
    1.4229849243e+02   -1.0708023834e+02
    1.4239909363e+02   -1.0694185638e+02
    1.4249819946e+02   -1.0680428314e+02
    1.4259849548e+02   -1.0666752625e+02
    1.4269880676e+02   -1.0653159332e+02
    1.4279890442e+02   -1.0639650726e+02
    1.4289889526e+02   -1.0626227570e+02
    1.4299879456e+02   -1.0612889862e+02
    1.4309849548e+02   -1.0599639893e+02
    1.4319819641e+02   -1.0586476898e+02
    1.4329899597e+02   -1.0573401642e+02
    1.4339830017e+02   -1.0560414886e+02
    1.4349890137e+02   -1.0547516632e+02
    1.4359930420e+02   -1.0534706116e+02
    1.4369819641e+02   -1.0521984863e+02
    1.4379840088e+02   -1.0509352112e+02
    1.4389830017e+02   -1.0496809387e+02
    1.4399949646e+02   -1.0484358978e+02
    1.4409919739e+02   -1.0472000885e+02
    1.4419830322e+02   -1.0459736633e+02
    1.4429870605e+02   -1.0447570038e+02
    1.4439909363e+02   -1.0435501099e+02
    1.4449940491e+02   -1.0423532104e+02
    1.4459959412e+02   -1.0411666107e+02
    1.4469830322e+02   -1.0399904633e+02
    1.4479960632e+02   -1.0388249207e+02
    1.4489939880e+02   -1.0376701355e+02
    1.4499920654e+02   -1.0365260315e+02
    1.4509890747e+02   -1.0353927612e+02
    1.4519859314e+02   -1.0342701721e+02
    1.4529960632e+02   -1.0331583405e+02
    1.4539920044e+02   -1.0320571899e+02
    1.4549960327e+02   -1.0309665680e+02
    1.4559860229e+02   -1.0298865509e+02
    1.4569859314e+02   -1.0288167572e+02
    1.4579859924e+02   -1.0277572632e+02
    1.4589840698e+02   -1.0267079163e+02
    1.4599949646e+02   -1.0256684875e+02
    1.4609919739e+02   -1.0246386719e+02
    1.4619889832e+02   -1.0236183929e+02
    1.4629849243e+02   -1.0226074219e+02
    1.4639920044e+02   -1.0216056061e+02
    1.4649859619e+02   -1.0206125641e+02
    1.4659919739e+02   -1.0196282196e+02
    1.4669960022e+02   -1.0186520386e+02
    1.4679849243e+02   -1.0176838684e+02
    1.4689849854e+02   -1.0167231750e+02
    1.4699969482e+02   -1.0157697296e+02
    1.4709939575e+02   -1.0148229980e+02
    1.4719909668e+02   -1.0138826752e+02
    1.4729859924e+02   -1.0129484558e+02
    1.4739909363e+02   -1.0120199585e+02
    1.4749949646e+02   -1.0110969543e+02
    1.4759970093e+02   -1.0101791382e+02
    1.4769960022e+02   -1.0092663574e+02
    1.4779939270e+02   -1.0083583832e+02
    1.4789909363e+02   -1.0074549103e+02
    1.4799859619e+02   -1.0065557861e+02
    1.4809930420e+02   -1.0056607056e+02
    1.4819869995e+02   -1.0047696686e+02
    1.4829930115e+02   -1.0038825989e+02
    1.4839970398e+02   -1.0029993439e+02
    1.4849929810e+02   -1.0021201324e+02
    1.4859910583e+02   -1.0012447357e+02
    1.4869940186e+02   -1.0003735352e+02
    1.4879960632e+02   -9.9950660706e+01
    1.4889979553e+02   -9.9864425659e+01
    1.4899870300e+02   -9.9778663635e+01
    1.4909869385e+02   -9.9693405151e+01
    1.4919869995e+02   -9.9608688354e+01
    1.4929980469e+02   -9.9524543762e+01
    1.4939880371e+02   -9.9441001892e+01
    1.4949949646e+02   -9.9358093262e+01
    1.4959880066e+02   -9.9275863647e+01
    1.4969940186e+02   -9.9194335938e+01
    1.4979919434e+02   -9.9113548279e+01
    1.4989880371e+02   -9.9033531189e+01
    1.4999960327e+02   -9.8954315186e+01
    1.5009899902e+02   -9.8875923157e+01
    1.5019970703e+02   -9.8798362732e+01
    1.5029910278e+02   -9.8721672058e+01
    1.5039959717e+02   -9.8645851135e+01
    1.5049890137e+02   -9.8570930481e+01
    1.5059930420e+02   -9.8496917725e+01
    1.5069970703e+02   -9.8423843384e+01
    1.5080000305e+02   -9.8351715088e+01
    1.5089900208e+02   -9.8280555725e+01
    1.5099909973e+02   -9.8210372925e+01
    1.5109919739e+02   -9.8141174316e+01
    1.5119929504e+02   -9.8072975159e+01
    1.5129939270e+02   -9.8005767822e+01
    1.5139869690e+02   -9.7939575195e+01
    1.5150000000e+02   -9.7874382019e+01
    1.5159979248e+02   -9.7810195923e+01
    1.5169909668e+02   -9.7747024536e+01
    1.5179960632e+02   -9.7684852600e+01
    1.5189900208e+02   -9.7623664856e+01
    1.5199960327e+02   -9.7563468933e+01
    1.5209910583e+02   -9.7504249573e+01
    1.5219979858e+02   -9.7445999146e+01
    1.5229939270e+02   -9.7388710022e+01
    1.5239909363e+02   -9.7332382202e+01
    1.5250000000e+02   -9.7277008057e+01
    1.5259979248e+02   -9.7222595215e+01
    1.5269949341e+02   -9.7169143677e+01
    1.5279910278e+02   -9.7116653442e+01
    1.5289990234e+02   -9.7065124512e+01
    1.5299940491e+02   -9.7014564514e+01
    1.5310000610e+02   -9.6964958191e+01
    1.5319929504e+02   -9.6916305542e+01
    1.5329969788e+02   -9.6868591309e+01
    1.5340010071e+02   -9.6821823120e+01
    1.5349920654e+02   -9.6775985718e+01
    1.5359939575e+02   -9.6731086731e+01
    1.5369960022e+02   -9.6687110901e+01
    1.5379960632e+02   -9.6644073486e+01
    1.5389959717e+02   -9.6601966858e+01
    1.5399940491e+02   -9.6560798645e+01
    1.5409910583e+02   -9.6520568848e+01
    1.5419990540e+02   -9.6481277466e+01
    1.5429949951e+02   -9.6442916870e+01
    1.5440010071e+02   -9.6405471802e+01
    1.5449960327e+02   -9.6368957520e+01
    1.5460020447e+02   -9.6333351135e+01
    1.5469960022e+02   -9.6298660278e+01
    1.5479910278e+02   -9.6264884949e+01
    1.5489979553e+02   -9.6232009888e+01
    1.5499940491e+02   -9.6200027466e+01
    1.5509910583e+02   -9.6168937683e+01
    1.5519909668e+02   -9.6138740540e+01
    1.5529930115e+02   -9.6109436035e+01
    1.5539970398e+02   -9.6081031799e+01
    1.5549920654e+02   -9.6053520203e+01
    1.5560020447e+02   -9.6026901245e+01
    1.5570019531e+02   -9.6001182556e+01
    1.5579919434e+02   -9.5976364136e+01
    1.5589970398e+02   -9.5952445984e+01
    1.5599909973e+02   -9.5929450989e+01
    1.5609989929e+02   -9.5907379150e+01
    1.5619960022e+02   -9.5886230469e+01
    1.5629930115e+02   -9.5866012573e+01
    1.5640029907e+02   -9.5846725464e+01
    1.5649989319e+02   -9.5828392029e+01
    1.5659939575e+02   -9.5811012268e+01
    1.5669999695e+02   -9.5794601440e+01
    1.5680029297e+02   -9.5779159546e+01
    1.5689920044e+02   -9.5764701843e+01
    1.5700019836e+02   -9.5751235962e+01
    1.5709970093e+02   -9.5738754272e+01
    1.5719999695e+02   -9.5727272034e+01
    1.5730000305e+02   -9.5716796875e+01
    1.5739970398e+02   -9.5707336426e+01
    1.5750030518e+02   -9.5698890686e+01
    1.5759950256e+02   -9.5691459656e+01
    1.5769970703e+02   -9.5685050964e+01
    1.5779980469e+02   -9.5679656982e+01
    1.5789979553e+02   -9.5675285339e+01
    1.5799969482e+02   -9.5671920776e+01
    1.5809970093e+02   -9.5669563293e+01
    1.5819960022e+02   -9.5668197632e+01
    1.5829969788e+02   -9.5667816162e+01
    1.5840020752e+02   -9.5668395996e+01
    1.5850050354e+02   -9.5669929504e+01
    1.5859970093e+02   -9.5672378540e+01
    1.5869929504e+02   -9.5675727844e+01
    1.5880039978e+02   -9.5679954529e+01
    1.5889939880e+02   -9.5685020447e+01
    1.5899929810e+02   -9.5690917969e+01
    1.5910049438e+02   -9.5697616577e+01
    1.5919949341e+02   -9.5705078125e+01
    1.5930020142e+02   -9.5713272095e+01
    1.5940010071e+02   -9.5722167969e+01
    1.5950050354e+02   -9.5731742859e+01
    1.5959979248e+02   -9.5741958618e+01
    1.5969940186e+02   -9.5752792358e+01
    1.5979949951e+02   -9.5764205933e+01
    1.5989979553e+02   -9.5776176453e+01
    1.5999929810e+02   -9.5788688660e+01
    1.6010040283e+02   -9.5801719666e+01
    1.6019940186e+02   -9.5815254211e+01
    1.6030000305e+02   -9.5829292297e+01
    1.6039979553e+02   -9.5843811035e+01
    1.6049989319e+02   -9.5858795166e+01
    1.6060040283e+02   -9.5874229431e+01
    1.6069990540e+02   -9.5890113831e+01
    1.6079980469e+02   -9.5906425476e+01
    1.6089999390e+02   -9.5923156738e+01
    1.6100059509e+02   -9.5940284729e+01
    1.6110020447e+02   -9.5957817078e+01
    1.6120010376e+02   -9.5975723267e+01
    1.6130029297e+02   -9.5994003296e+01
    1.6139950562e+02   -9.6012641907e+01
    1.6150030518e+02   -9.6031616211e+01
    1.6159989929e+02   -9.6050926208e+01
    1.6169979858e+02   -9.6070549011e+01
    1.6179989624e+02   -9.6090492249e+01
    1.6190010071e+02   -9.6110740662e+01
    1.6200039673e+02   -9.6131309509e+01
    1.6209950256e+02   -9.6152175903e+01
    1.6219990540e+02   -9.6173355103e+01
    1.6230029297e+02   -9.6194847107e+01
    1.6240049744e+02   -9.6216659546e+01
    1.6250050354e+02   -9.6238800049e+01
    1.6260029602e+02   -9.6261276245e+01
    1.6269979858e+02   -9.6284095764e+01
    1.6280039978e+02   -9.6307258606e+01
    1.6290069580e+02   -9.6330780029e+01
    1.6300059509e+02   -9.6354675293e+01
    1.6310020447e+02   -9.6378944397e+01
    1.6319940186e+02   -9.6403602600e+01
    1.6329969788e+02   -9.6428642273e+01
    1.6339970398e+02   -9.6454086304e+01
    1.6349949646e+02   -9.6479927063e+01
    1.6360040283e+02   -9.6506156921e+01
    1.6369999695e+02   -9.6532760620e+01
    1.6380079651e+02   -9.6559753418e+01
    1.6389970398e+02   -9.6587097168e+01
    1.6400010681e+02   -9.6614791870e+01
    1.6410079956e+02   -9.6642822266e+01
    1.6420039368e+02   -9.6671150208e+01
    1.6430050659e+02   -9.6699768066e+01
    1.6439970398e+02   -9.6728652954e+01
    1.6449949646e+02   -9.6757759094e+01
    1.6459989929e+02   -9.6787071228e+01
    1.6469949341e+02   -9.6816551208e+01
    1.6479980469e+02   -9.6846160889e+01
    1.6489950562e+02   -9.6875862122e+01
    1.6499989319e+02   -9.6905609131e+01
    1.6509959412e+02   -9.6935363770e+01
    1.6519999695e+02   -9.6965080261e+01
    1.6529960632e+02   -9.6994735718e+01
    1.6539970398e+02   -9.7024284363e+01
    1.6550050354e+02   -9.7053703308e+01
    1.6560020447e+02   -9.7082962036e+01
    1.6570050049e+02   -9.7112014771e+01
    1.6579980469e+02   -9.7140823364e+01
    1.6589950562e+02   -9.7169357300e+01
    1.6599969482e+02   -9.7197586060e+01
    1.6610020447e+02   -9.7225486755e+01
    1.6619949341e+02   -9.7253013611e+01
    1.6630070496e+02   -9.7280136108e+01
    1.6640060425e+02   -9.7306846619e+01
    1.6650059509e+02   -9.7333114624e+01
    1.6660090637e+02   -9.7358932495e+01
    1.6670089722e+02   -9.7384292603e+01
    1.6680029297e+02   -9.7409187317e+01
    1.6689959717e+02   -9.7433624268e+01
    1.6700019836e+02   -9.7457611084e+01
    1.6710069275e+02   -9.7481147766e+01
    1.6719970703e+02   -9.7504234314e+01
    1.6730059814e+02   -9.7526885986e+01
    1.6740080261e+02   -9.7549095154e+01
    1.6750090027e+02   -9.7570854187e+01
    1.6760079956e+02   -9.7592178345e+01
    1.6770039368e+02   -9.7613052368e+01
    1.6779980469e+02   -9.7633483887e+01
    1.6790040588e+02   -9.7653465271e+01
    1.6800090027e+02   -9.7672996521e+01
    1.6809959412e+02   -9.7692092896e+01
    1.6819979858e+02   -9.7710739136e+01
    1.6829989624e+02   -9.7728950500e+01
    1.6839999390e+02   -9.7746704102e+01
    1.6850059509e+02   -9.7764015198e+01
    1.6860040283e+02   -9.7780876160e+01
    1.6870089722e+02   -9.7797286987e+01
    1.6879969788e+02   -9.7813232422e+01
    1.6889999390e+02   -9.7828720093e+01
    1.6900039673e+02   -9.7843734741e+01
    1.6910099792e+02   -9.7858261108e+01
    1.6920030212e+02   -9.7872291565e+01
    1.6929969788e+02   -9.7885810852e+01
    1.6940080261e+02   -9.7898818970e+01
    1.6950059509e+02   -9.7911285400e+01
    1.6960049438e+02   -9.7923210144e+01
    1.6970060730e+02   -9.7934577942e+01
    1.6980039978e+02   -9.7945365906e+01
    1.6990020752e+02   -9.7955574036e+01
    1.7000000000e+02   -9.7965171814e+01
    1.7009989929e+02   -9.7974159241e+01
    1.7019970703e+02   -9.7982505798e+01
    1.7029969788e+02   -9.7990211487e+01
    1.7040069580e+02   -9.7997245789e+01
    1.7050050354e+02   -9.8003585815e+01
    1.7060040283e+02   -9.8009208679e+01
    1.7070030212e+02   -9.8014091492e+01
    1.7080009460e+02   -9.8018203735e+01
    1.7089979553e+02   -9.8021530151e+01
    1.7100090027e+02   -9.8024055481e+01
    1.7110009766e+02   -9.8025756836e+01
    1.7120060730e+02   -9.8026611328e+01
    1.7130090332e+02   -9.8026603699e+01
    1.7140109253e+02   -9.8025726318e+01
    1.7150090027e+02   -9.8023956299e+01
    1.7160069275e+02   -9.8021286011e+01
    1.7169999695e+02   -9.8017692566e+01
    1.7180050659e+02   -9.8013175964e+01
    1.7190049744e+02   -9.8007720947e+01
    1.7200050354e+02   -9.8001312256e+01
    1.7210009766e+02   -9.7993934631e+01
    1.7220109558e+02   -9.7985588074e+01
    1.7230039978e+02   -9.7976242065e+01
    1.7239990234e+02   -9.7965896606e+01
    1.7250100708e+02   -9.7954528809e+01
    1.7260029602e+02   -9.7942146301e+01
    1.7270060730e+02   -9.7928718567e+01
    1.7280050659e+02   -9.7914268494e+01
    1.7290010071e+02   -9.7898780823e+01
    1.7300109863e+02   -9.7882263184e+01
    1.7310060120e+02   -9.7864715576e+01
    1.7319999695e+02   -9.7846130371e+01
    1.7330099487e+02   -9.7826507568e+01
    1.7340049744e+02   -9.7805831909e+01
    1.7350000000e+02   -9.7784111023e+01
    1.7360029602e+02   -9.7761329651e+01
    1.7370080566e+02   -9.7737495422e+01
    1.7380000305e+02   -9.7712593079e+01
    1.7390080261e+02   -9.7686622620e+01
    1.7400030518e+02   -9.7659591675e+01
    1.7410119629e+02   -9.7631492615e+01
    1.7420100403e+02   -9.7602325439e+01
    1.7430079651e+02   -9.7572090149e+01
    1.7440069580e+02   -9.7540779114e+01
    1.7450070190e+02   -9.7508384705e+01
    1.7460029602e+02   -9.7474914551e+01
    1.7470050049e+02   -9.7440353394e+01
    1.7480020142e+02   -9.7404716492e+01
    1.7490100098e+02   -9.7368003845e+01
    1.7500050354e+02   -9.7330200195e+01
    1.7510009766e+02   -9.7291328430e+01
    1.7519999695e+02   -9.7251373291e+01
    1.7530000305e+02   -9.7210334778e+01
    1.7540040588e+02   -9.7168228149e+01
    1.7550079346e+02   -9.7125053406e+01
    1.7560119629e+02   -9.7080818176e+01
    1.7569999695e+02   -9.7035522461e+01
    1.7580079651e+02   -9.6989173889e+01
    1.7590089417e+02   -9.6941780090e+01
    1.7600090027e+02   -9.6893325806e+01
    1.7610079956e+02   -9.6843811035e+01
    1.7620050049e+02   -9.6793212891e+01
    1.7630149841e+02   -9.6741516113e+01
    1.7640089417e+02   -9.6688690186e+01
    1.7650149536e+02   -9.6634674072e+01
    1.7660040283e+02   -9.6579414368e+01
    1.7670060730e+02   -9.6522857666e+01
    1.7680050659e+02   -9.6464912415e+01
    1.7690029907e+02   -9.6405509949e+01
    1.7700129700e+02   -9.6344551086e+01
    1.7710110474e+02   -9.6281944275e+01
    1.7720120239e+02   -9.6217605591e+01
    1.7730130005e+02   -9.6151420593e+01
    1.7740130615e+02   -9.6083312988e+01
    1.7750129700e+02   -9.6013221741e+01
    1.7760119629e+02   -9.5941108704e+01
    1.7770120239e+02   -9.5866966248e+01
    1.7780099487e+02   -9.5790855408e+01
    1.7790049744e+02   -9.5712875366e+01
    1.7800120544e+02   -9.5633216858e+01
    1.7810159302e+02   -9.5552139282e+01
    1.7820159912e+02   -9.5470008850e+01
    1.7830130005e+02   -9.5387275696e+01
    1.7840049744e+02   -9.5304504395e+01
    1.7850090027e+02   -9.5222373962e+01
    1.7860099792e+02   -9.5141677856e+01
    1.7870069885e+02   -9.5063293457e+01
    1.7880160522e+02   -9.4988204956e+01
    1.7890089417e+02   -9.4917442322e+01
    1.7900149536e+02   -9.4852066040e+01
    1.7910049438e+02   -9.4793106079e+01
    1.7920089722e+02   -9.4741508484e+01
    1.7930130005e+02   -9.4698036194e+01
    1.7940170288e+02   -9.4663215637e+01
    1.7950070190e+02   -9.4637191772e+01
    1.7960119629e+02   -9.4619644165e+01
    1.7970039368e+02   -9.4609626770e+01
    1.7980099487e+02   -9.4605453491e+01
    1.7990170288e+02   -9.4604576111e+01
endcurve
