Curveplot
LS-DYNA keyword deck by LS-PrePost
Yrot-displ
phi moment-stiffness
Joint Stiff
300001 #pts=1000
* Minval= -1.840005468750e+004 at time=       0.476198822260
* Maxval=  2.252467578125e+004 at time=       2.535448074341
 3.146871430104e-009  2.047845860943e-003
 2.835657486600e-009  1.788535341620e-002
 1.808915017776e-009  3.971323370934e-002
-1.700819207695e-010  6.724961847067e-002
-3.300015372076e-009  9.882150590420e-002
-7.698572446202e-009  1.314560025930e-001
-1.336103050420e-008  1.613116413355e-001
-1.991172382532e-008  1.851406097412e-001
-2.669748866424e-008  1.965902000666e-001
-3.262811532068e-008  1.840648502111e-001
-3.611563315076e-008  1.339172571898e-001
-3.475814125409e-008  2.785027772188e-002
-2.611804994501e-008 -1.389241814613e-001
-7.496701925902e-009 -3.695934414864e-001
 2.340141591617e-008 -6.563318371773e-001
 6.816425468514e-008 -9.853257536888e-001
 1.273712086913e-007 -1.344439268112e+000
 1.977759609417e-007 -1.748112916946e+000
 2.722901228935e-007 -2.253584623337e+000
 3.417340792566e-007 -2.983394384384e+000
 3.923817359919e-007 -4.107299327850e+000
 4.043343153626e-007 -5.873541355133e+000
 3.584241312637e-007 -8.553668975830e+000
 2.332170652153e-007 -1.245617771149e+001
 8.101476822731e-009 -1.793305015564e+001
-3.341876606555e-007 -2.536031913757e+001
-8.220706604334e-007 -3.545830154419e+001
-1.452784317735e-006 -4.852353286743e+001
-2.228221319456e-006 -6.515605926514e+001
-3.135410679533e-006 -8.593097686768e+001
-4.141553290538e-006 -1.113019561768e+002
-5.204959961702e-006 -1.422016906738e+002
-6.258756911848e-006 -1.791830749512e+002
-7.202909273474e-006 -2.223090362549e+002
-7.925388672447e-006 -2.718811340332e+002
-8.289620382129e-006 -3.284017944336e+002
-8.095966222754e-006 -3.915414428711e+002
-7.154521881603e-006 -4.622569274902e+002
-5.262838840281e-006 -5.395441894531e+002
-2.186938672821e-006 -6.235735473633e+002
 2.362792884014e-006 -7.149099121094e+002
 8.758654985286e-006 -8.134403076172e+002
 1.727429298626e-005 -9.188789672852e+002
 2.816784217430e-005 -1.030534423828e+003
 4.179927054793e-005 -1.148484741211e+003
 5.864749982720e-005 -1.273210083008e+003
 7.924930105219e-005 -1.403949218750e+003
 1.041759605869e-004 -1.541228515625e+003
 1.333808468189e-004 -1.681844116211e+003
 1.675291132415e-004 -1.826441040039e+003
 2.071141352644e-004 -1.974502685547e+003
 2.533532970119e-004 -2.126841796875e+003
 3.058004076593e-004 -2.280138183594e+003
 3.658519417513e-004 -2.436608154297e+003
 4.330804513302e-004 -2.593126220703e+003
 5.088315228932e-004 -2.751000976563e+003
 5.938555113971e-004 -2.908943847656e+003
 6.881189765409e-004 -3.065588867188e+003
 7.923574303277e-004 -3.220982421875e+003
 9.069725638255e-004 -3.374222167969e+003
 1.033670385368e-003 -3.526219238281e+003
 1.171272364445e-003 -3.673728271484e+003
 1.320960931480e-003 -3.817892578125e+003
 1.483050873503e-003 -3.958711914063e+003
 1.659281435423e-003 -4.097274902344e+003
 1.848114305176e-003 -4.231924316406e+003
 2.051121322438e-003 -4.363007324219e+003
 2.268764423206e-003 -4.491002929688e+003
 2.502103568986e-003 -4.616362304688e+003
 2.749003004283e-003 -4.737789062500e+003
 3.011254360899e-003 -4.856071289063e+003
 3.292708424851e-003 -4.972397460938e+003
 3.588176332414e-003 -5.084979003906e+003
 3.900279989466e-003 -5.195351074219e+003
 4.229408688843e-003 -5.304119140625e+003
 4.575658123940e-003 -5.411829589844e+003
 4.940826445818e-003 -5.519321289063e+003
 5.321768112481e-003 -5.626465820313e+003
 5.724257789552e-003 -5.735543457031e+003
 6.141575518996e-003 -5.845243652344e+003
 6.582028698176e-003 -5.958220703125e+003
 7.038437761366e-003 -6.072988281250e+003
 7.515036500990e-003 -6.191233886719e+003
 8.011727593839e-003 -6.313224121094e+003
 8.528931066394e-003 -6.439493652344e+003
 9.067202918231e-003 -6.570291015625e+003
 9.623275138438e-003 -6.704948730469e+003
 1.020584534854e-002 -6.845628417969e+003
 1.080897357315e-002 -6.990779296875e+003
 1.143324468285e-002 -7.140492675781e+003
 1.208087708801e-002 -7.295037597656e+003
 1.275263726711e-002 -7.454250000000e+003
 1.344900764525e-002 -7.617713867188e+003
 1.416718121618e-002 -7.784556640625e+003
 1.491566095501e-002 -7.956255371094e+003
 1.568331941962e-002 -8.129948242188e+003
 1.647854410112e-002 -8.307008789063e+003
 1.730950176716e-002 -8.488642578125e+003
 1.816090010107e-002 -8.671072265625e+003
 1.904092542827e-002 -8.855444335938e+003
 1.995030231774e-002 -9.041362304688e+003
 2.089114114642e-002 -9.228326171875e+003
 2.186422795057e-002 -9.415630859375e+003
 2.286482974887e-002 -9.601904296875e+003
 2.389795333147e-002 -9.787222656250e+003
 2.496861666441e-002 -9.971680664063e+003
 2.606650255620e-002 -1.015271679688e+004
 2.719926275313e-002 -1.033076757813e+004
 2.836747467518e-002 -1.050566601563e+004
 2.957201004028e-002 -1.067682519531e+004
 3.081252798438e-002 -1.084379394531e+004
 3.209444507957e-002 -1.100645410156e+004
 3.340652212501e-002 -1.116324902344e+004
 3.475635126233e-002 -1.131517871094e+004
 3.614573925734e-002 -1.146236914063e+004
 3.757537528872e-002 -1.160496484375e+004
 3.904712200165e-002 -1.174282910156e+004
 4.056176170707e-002 -1.187621972656e+004
 4.210436716676e-002 -1.200428125000e+004
 4.369926452637e-002 -1.212912402344e+004
 4.533146321774e-002 -1.224973437500e+004
 4.700471460819e-002 -1.236631640625e+004
 4.872083663940e-002 -1.247912304688e+004
 5.048230662942e-002 -1.258869238281e+004
 5.228308960795e-002 -1.269481250000e+004
 5.413658544421e-002 -1.279844335938e+004
 5.602053925395e-002 -1.289848144531e+004
 5.795210972428e-002 -1.299608886719e+004
 5.992912128568e-002 -1.309173144531e+004
 6.195325776935e-002 -1.318580078125e+004
 6.402534991503e-002 -1.327885156250e+004
 6.613247841597e-002 -1.337067089844e+004
 6.829689443111e-002 -1.346281250000e+004
 7.049872726202e-002 -1.355503808594e+004
 7.276184111834e-002 -1.364887304688e+004
 7.504908740520e-002 -1.374324609375e+004
 7.738950848579e-002 -1.383966015625e+004
 7.979461550713e-002 -1.393894238281e+004
 8.223883807659e-002 -1.404023632813e+004
 8.471742272377e-002 -1.414345996094e+004
 8.725552260876e-002 -1.424954394531e+004
 8.984939008951e-002 -1.435826367188e+004
 9.247311949730e-002 -1.446822851563e+004
 9.516304731369e-002 -1.458067675781e+004
 9.790245443583e-002 -1.469452246094e+004
 1.006927043200e-001 -1.480956445313e+004
 1.035175845027e-001 -1.492463281250e+004
 1.064135208726e-001 -1.504090917969e+004
 1.093514636159e-001 -1.515689550781e+004
 1.123398467898e-001 -1.527272851563e+004
 1.153772845864e-001 -1.538812207031e+004
 1.184800416231e-001 -1.550335058594e+004
 1.216466277838e-001 -1.561811621094e+004
 1.248578876257e-001 -1.573148632813e+004
 1.281003206968e-001 -1.584286621094e+004
 1.314311474562e-001 -1.595393652344e+004
 1.347984820604e-001 -1.606256542969e+004
 1.382348984480e-001 -1.616947167969e+004
 1.417080461979e-001 -1.627339257813e+004
 1.452559083700e-001 -1.637531835938e+004
 1.488631069660e-001 -1.647432421875e+004
 1.525088399649e-001 -1.656970898438e+004
 1.562210917473e-001 -1.666184375000e+004
 1.599995195866e-001 -1.675075976563e+004
 1.638437211514e-001 -1.683622851563e+004
 1.677328199148e-001 -1.691775195313e+004
 1.716795712709e-001 -1.699534570313e+004
 1.756816804409e-001 -1.706873242188e+004
 1.797512322664e-001 -1.713830664063e+004
 1.838923841715e-001 -1.720396679688e+004
 1.880966275930e-001 -1.726555468750e+004
 1.923469454050e-001 -1.732281250000e+004
 1.966643333435e-001 -1.737592382813e+004
 2.010320723057e-001 -1.742512304688e+004
 2.054608166218e-001 -1.747072070313e+004
 2.099592685699e-001 -1.751298046875e+004
 2.145295441151e-001 -1.755210937500e+004
 2.191464006901e-001 -1.758808593750e+004
 2.238325178623e-001 -1.762156445313e+004
 2.285656034946e-001 -1.765264062500e+004
 2.333813011646e-001 -1.768177539063e+004
 2.382450103760e-001 -1.770896484375e+004
 2.431836426258e-001 -1.773458398438e+004
 2.481729537249e-001 -1.775888476563e+004
 2.532242536545e-001 -1.778220117188e+004
 2.583478987217e-001 -1.780483203125e+004
 2.635042965412e-001 -1.782683593750e+004
 2.687771022320e-001 -1.784875976563e+004
 2.740589082241e-001 -1.787034765625e+004
 2.794176340103e-001 -1.789197460938e+004
 2.848600447178e-001 -1.791370312500e+004
 2.903473675251e-001 -1.793536132813e+004
 2.958711385727e-001 -1.795687695313e+004
 3.015072047710e-001 -1.797852539063e+004
 3.071720600128e-001 -1.799997656250e+004
 3.129082322121e-001 -1.802138867188e+004
 3.187161087990e-001 -1.804278320313e+004
 3.245542943478e-001 -1.806396875000e+004
 3.304811418056e-001 -1.808518554688e+004
 3.364671766758e-001 -1.810630664063e+004
 3.424838781357e-001 -1.812722851563e+004
 3.486001193523e-001 -1.814812890625e+004
 3.547494411469e-001 -1.816866210938e+004
 3.610132336617e-001 -1.818905273438e+004
 3.672982156277e-001 -1.820889062500e+004
 3.736504316330e-001 -1.822826171875e+004
 3.800242543221e-001 -1.824692382813e+004
 3.865133225918e-001 -1.826503906250e+004
 3.930709958076e-001 -1.828241601563e+004
 3.996454775333e-001 -1.829890039063e+004
 4.062859714031e-001 -1.831459375000e+004
 4.130426943302e-001 -1.832955664063e+004
 4.198189675808e-001 -1.834343554688e+004
 4.266304373741e-001 -1.835621875000e+004
 4.335472881794e-001 -1.836785546875e+004
 4.404869675636e-001 -1.837801562500e+004
 4.475249648094e-001 -1.838659375000e+004
 4.545888602734e-001 -1.839316601563e+004
 4.617491364479e-001 -1.839770898438e+004
 4.689417481422e-001 -1.840002539063e+004
 4.761988222599e-001 -1.840005468750e+004
 4.835200011730e-001 -1.839776367188e+004
 4.909095466137e-001 -1.839303906250e+004
 4.983316063881e-001 -1.838607421875e+004
 5.058268904686e-001 -1.837684375000e+004
 5.133990049362e-001 -1.836532226563e+004
 5.210015177727e-001 -1.835156054688e+004
 5.286729931831e-001 -1.833534570313e+004
 5.364087820053e-001 -1.831677929688e+004
 5.442094206810e-001 -1.829582617188e+004
 5.520283579826e-001 -1.827265820313e+004
 5.599470138550e-001 -1.824705859375e+004
 5.678874254227e-001 -1.821927734375e+004
 5.758904218674e-001 -1.818940625000e+004
 5.839568376541e-001 -1.815755078125e+004
 5.920856595039e-001 -1.812376562500e+004
 6.002776026726e-001 -1.808806640625e+004
 6.084893345833e-001 -1.805058593750e+004
 6.167999505997e-001 -1.801103710938e+004
 6.251254081726e-001 -1.796983398438e+004
 6.335011720657e-001 -1.792683398438e+004
 6.419631242752e-001 -1.788187304688e+004
 6.504293084145e-001 -1.783543164063e+004
 6.589560508728e-001 -1.778748046875e+004
 6.676044464111e-001 -1.773782421875e+004
 6.761879920959e-001 -1.768778906250e+004
 6.848925352097e-001 -1.763651562500e+004
 6.936590075493e-001 -1.758447656250e+004
 7.024201750755e-001 -1.753229296875e+004
 7.112752795219e-001 -1.747946093750e+004
 7.201624512672e-001 -1.742641210938e+004
 7.290418744087e-001 -1.737337695313e+004
 7.380346655846e-001 -1.731964257813e+004
 7.470613718033e-001 -1.726564257813e+004
 7.561265826225e-001 -1.721133593750e+004
 7.652174234390e-001 -1.715678906250e+004
 7.743579149246e-001 -1.710187890625e+004
 7.835490703583e-001 -1.704668359375e+004
 7.928004264832e-001 -1.699123437500e+004
 8.020609021187e-001 -1.693598437500e+004
 8.113690614700e-001 -1.688086914063e+004
 8.207455873489e-001 -1.682590820313e+004
 8.300925493240e-001 -1.677174414063e+004
 8.395366072655e-001 -1.671771875000e+004
 8.490149974823e-001 -1.666415039063e+004
 8.585371375084e-001 -1.661092578125e+004
 8.680337071419e-001 -1.655833398438e+004
 8.776218891144e-001 -1.650560156250e+004
 8.872728943825e-001 -1.645270312500e+004
 8.968726992607e-001 -1.640009960938e+004
 9.065776467323e-001 -1.634676953125e+004
 9.163087606430e-001 -1.629303027344e+004
 9.260177612305e-001 -1.623889746094e+004
 9.357900023460e-001 -1.618366601563e+004
 9.456336498260e-001 -1.612703222656e+004
 9.554401040077e-001 -1.606935351563e+004
 9.653382897377e-001 -1.600954687500e+004
 9.752270579338e-001 -1.594770800781e+004
 9.851562976837e-001 -1.588320996094e+004
 9.951216578484e-001 -1.581579101563e+004
 1.005079507828e+000 -1.574550195313e+004
 1.015073776245e+000 -1.567191406250e+004
 1.025171518326e+000 -1.559418847656e+004
 1.035199999809e+000 -1.551383300781e+004
 1.045278429985e+000 -1.542988183594e+004
 1.055417895317e+000 -1.534226269531e+004
 1.065521359444e+000 -1.525170703125e+004
 1.075704216957e+000 -1.515695898438e+004
 1.085899353027e+000 -1.505860351563e+004
 1.096072554588e+000 -1.495682226563e+004
 1.106281638145e+000 -1.485095996094e+004
 1.116509318352e+000 -1.474105761719e+004
 1.126770973206e+000 -1.462652929688e+004
 1.137053489685e+000 -1.450768359375e+004
 1.147373676300e+000 -1.438424414063e+004
 1.157652735710e+000 -1.425710937500e+004
 1.167994022369e+000 -1.412502734375e+004
 1.178285002708e+000 -1.398934960938e+004
 1.188637733459e+000 -1.384871777344e+004
 1.199001550674e+000 -1.370400488281e+004
 1.209353327751e+000 -1.355552050781e+004
 1.219725131989e+000 -1.340284667969e+004
 1.230084300041e+000 -1.324658203125e+004
 1.240486502647e+000 -1.308607031250e+004
 1.250892758369e+000 -1.292223925781e+004
 1.261330485344e+000 -1.275490136719e+004
 1.271729707718e+000 -1.258564453125e+004
 1.282143950462e+000 -1.241385156250e+004
 1.292572498322e+000 -1.224026562500e+004
 1.303012967110e+000 -1.206529003906e+004
 1.313399434090e+000 -1.189047558594e+004
 1.323858261108e+000 -1.171388085938e+004
 1.334273219109e+000 -1.153779882813e+004
 1.344670295715e+000 -1.136180859375e+004
 1.355063796043e+000 -1.118585449219e+004
 1.365505456924e+000 -1.100907324219e+004
 1.375940680504e+000 -1.083255859375e+004
 1.386310696602e+000 -1.065741113281e+004
 1.396735787392e+000 -1.048171875000e+004
 1.407150149345e+000 -1.030688476563e+004
 1.417505860329e+000 -1.013378027344e+004
 1.427913069725e+000 -9.960646484375e+003
 1.438290238380e+000 -9.788655273438e+003
 1.448602080345e+000 -9.618480468750e+003
 1.459003329277e+000 -9.447248046875e+003
 1.469285964966e+000 -9.278290039063e+003
 1.479649662971e+000 -9.108002929688e+003
 1.489916682243e+000 -8.939056640625e+003
 1.500235438347e+000 -8.768702148438e+003
 1.510543942451e+000 -8.597678710938e+003
 1.520806074142e+000 -8.426406250000e+003
 1.530998706818e+000 -8.255038085938e+003
 1.541247606277e+000 -8.081037109375e+003
 1.551470875740e+000 -7.905482421875e+003
 1.561649084091e+000 -7.728429199219e+003
 1.571844577789e+000 -7.548369140625e+003
 1.582026720047e+000 -7.365572753906e+003
 1.592138648033e+000 -7.180284179688e+003
 1.602217674255e+000 -6.991515136719e+003
 1.612305879593e+000 -6.798158691406e+003
 1.622384786606e+000 -6.600155761719e+003
 1.632384896278e+000 -6.398541992188e+003
 1.642448902130e+000 -6.189898437500e+003
 1.652401447296e+000 -5.977827148438e+003
 1.662356615067e+000 -5.759925781250e+003
 1.672310113907e+000 -5.536077636719e+003
 1.682168722153e+000 -5.308410156250e+003
 1.692040562630e+000 -5.074250000000e+003
 1.701911091805e+000 -4.833682617188e+003
 1.711720943451e+000 -4.588391601563e+003
 1.721514582634e+000 -4.337507324219e+003
 1.731214046478e+000 -4.083236816406e+003
 1.740960836411e+000 -3.821870117188e+003
 1.750633120537e+000 -3.557121582031e+003
 1.760242581367e+000 -3.289315673828e+003
 1.769840717316e+000 -3.017524169922e+003
 1.779418110847e+000 -2.742457275391e+003
 1.788931727409e+000 -2.465609130859e+003
 1.798441290855e+000 -2.185756103516e+003
 1.807875037193e+000 -1.905579833984e+003
 1.817273378372e+000 -1.624506469727e+003
 1.826622247696e+000 -1.343379028320e+003
 1.835948228836e+000 -1.062208862305e+003
 1.845233082771e+000 -7.821931152344e+002
 1.854474425316e+000 -5.044219360352e+002
 1.863671660423e+000 -2.295378723145e+002
 1.872829675674e+000  4.193601989746e+001
 1.881952285767e+000  3.094176635742e+002
 1.890973567963e+000  5.704157714844e+002
 1.900001764297e+000  8.278748779297e+002
 1.908974647522e+000  1.079593017578e+003
 1.917859673500e+000  1.324497802734e+003
 1.926720261574e+000  1.564207031250e+003
 1.935562729836e+000  1.798751953125e+003
 1.944311618805e+000  2.026481933594e+003
 1.953050851822e+000  2.249637207031e+003
 1.961681485176e+000  2.465937744141e+003
 1.970295190811e+000  2.678110351563e+003
 1.978870987892e+000  2.885763671875e+003
 1.987406969070e+000  3.089485351563e+003
 1.995831966400e+000  3.288063476563e+003
 2.004263877869e+000  3.484749511719e+003
 2.012587070465e+000  3.677447753906e+003
 2.020891189575e+000  3.868665771484e+003
 2.029121160507e+000  4.057651855469e+003
 2.037303924561e+000  4.245548828125e+003
 2.045418739319e+000  4.432146484375e+003
 2.053506374359e+000  4.618734863281e+003
 2.061513423920e+000  4.804377929688e+003
 2.069476366043e+000  4.989937500000e+003
 2.077353477478e+000  5.174646972656e+003
 2.085196495056e+000  5.359965820313e+003
 2.092994451523e+000  5.545654296875e+003
 2.100734710693e+000  5.731531738281e+003
 2.108374118805e+000  5.916488281250e+003
 2.115975379944e+000  6.101945312500e+003
 2.123540639877e+000  6.287668945313e+003
 2.131000995636e+000  6.471808105469e+003
 2.138443470001e+000  6.656208007813e+003
 2.145806550980e+000  6.839020019531e+003
 2.153100490570e+000  7.020222167969e+003
 2.160347938538e+000  7.200065917969e+003
 2.167550802231e+000  7.378077148438e+003
 2.174644470215e+000  7.552099609375e+003
 2.181727409363e+000  7.724058593750e+003
 2.188690662384e+000  7.890569335938e+003
 2.195633888245e+000  8.053411621094e+003
 2.202500343323e+000  8.210567382813e+003
 2.209292173386e+000  8.361200195313e+003
 2.216057062149e+000  8.506153320313e+003
 2.222721099854e+000  8.643293945313e+003
 2.229331970215e+000  8.773390625000e+003
 2.235912561417e+000  8.896391601563e+003
 2.242383480072e+000  9.010426757813e+003
 2.248801231384e+000  9.116766601563e+003
 2.255198001862e+000  9.215792968750e+003
 2.261497497559e+000  9.306379882813e+003
 2.267722129822e+000  9.388992187500e+003
 2.273914575577e+000  9.464161132813e+003
 2.280027866364e+000  9.531949218750e+003
 2.286100149155e+000  9.593072265625e+003
 2.292086362839e+000  9.647406250000e+003
 2.297995090485e+000  9.695323242188e+003
 2.303868055344e+000  9.737232421875e+003
 2.309688806534e+000  9.773530273438e+003
 2.315446138382e+000  9.804537109375e+003
 2.321132898331e+000  9.830573242188e+003
 2.326748609543e+000  9.851909179688e+003
 2.332327604294e+000  9.868532226563e+003
 2.337837934494e+000  9.880260742188e+003
 2.343294143677e+000  9.886747070313e+003
 2.348699092865e+000  9.887660156250e+003
 2.354037523270e+000  9.882772460938e+003
 2.359307527542e+000  9.871562500000e+003
 2.364546537399e+000  9.853795898438e+003
 2.369721412659e+000  9.829283203125e+003
 2.374837636948e+000  9.797920898438e+003
 2.379908323288e+000  9.759121093750e+003
 2.384910345078e+000  9.711751953125e+003
 2.389880418777e+000  9.654856445313e+003
 2.394764423370e+000  9.589221679688e+003
 2.399622917175e+000  9.515441406250e+003
 2.404395341873e+000  9.436325195313e+003
 2.409148216248e+000  9.351570312500e+003
 2.413819313049e+000  9.263177734375e+003
 2.418460845947e+000  9.171111328125e+003
 2.423019886017e+000  9.078342773438e+003
 2.427543401718e+000  8.985527343750e+003
 2.432029724121e+000  8.892625976563e+003
 2.436453342438e+000  8.797574218750e+003
 2.440827131271e+000  8.696040039063e+003
 2.445184707642e+000  8.582694335938e+003
 2.449485540390e+000  8.453800781250e+003
 2.453725337982e+000  8.303237304688e+003
 2.457973718643e+000  8.124608398438e+003
 2.462156295776e+000  7.918542968750e+003
 2.466334581375e+000  7.685272460938e+003
 2.470468759537e+000  7.437162597656e+003
 2.474588394165e+000  7.193377441406e+003
 2.478684425354e+000  6.983821777344e+003
 2.482776165009e+000  6.846613281250e+003
 2.486830234528e+000  6.834262207031e+003
 2.490848302841e+000  7.009033203125e+003
 2.494877576828e+000  7.465091308594e+003
 2.498878240585e+000  8.253349609375e+003
 2.502884387970e+000  9.421560546875e+003
 2.506873607635e+000  1.096432519531e+004
 2.510884284973e+000  1.284154394531e+004
 2.514899969101e+000  1.492711816406e+004
 2.518952131271e+000  1.705198437500e+004
 2.523012876511e+000  1.902158789063e+004
 2.527117013931e+000  2.069032031250e+004
 2.531254053116e+000  2.190843164063e+004
 2.535448074341e+000  2.252467578125e+004
 2.539643287659e+000  2.249108398438e+004
 2.543826103210e+000  2.180551953125e+004
 2.548005819321e+000  2.052034179688e+004
 2.552169561386e+000  1.875627539063e+004
 2.556280612946e+000  1.670917578125e+004
 2.560354471207e+000  1.461496093750e+004
 2.564386129379e+000  1.265965429688e+004
 2.568368673325e+000  1.096941308594e+004
 2.572308540344e+000  9.593918945313e+003
 2.576195716858e+000  8.547227539063e+003
 2.580023288727e+000  7.773142089844e+003
 2.583836555481e+000  7.219044433594e+003
 2.587559938431e+000  6.851946777344e+003
 2.591246604919e+000  6.621552246094e+003
 2.594896078110e+000  6.492464843750e+003
 2.598467826843e+000  6.436028808594e+003
 2.601994037628e+000  6.449562988281e+003
 2.605468511581e+000  6.542431640625e+003
 2.608876705170e+000  6.719347656250e+003
 2.612250566483e+000  6.983826171875e+003
 2.615556240082e+000  7.326002441406e+003
 2.618818759918e+000  7.755599121094e+003
 2.622025728226e+000  8.285397460938e+003
 2.625186204910e+000  8.925175781250e+003
 2.628298997879e+000  9.672050781250e+003
 2.631351947784e+000  1.048908593750e+004
 2.634345054626e+000  1.134587695313e+004
 2.637278556824e+000  1.221873730469e+004
 2.640153169632e+000  1.308745410156e+004
 2.642974376678e+000  1.392405566406e+004
 2.645727157593e+000  1.468734179688e+004
 2.648421049118e+000  1.534300976563e+004
 2.651043176651e+000  1.586218359375e+004
 2.653594493866e+000  1.623248535156e+004
 2.656094551086e+000  1.644374414063e+004
 2.658510446548e+000  1.650168945313e+004
 2.660860538483e+000  1.642109179688e+004
 2.663148403168e+000  1.622609960938e+004
 2.665358781815e+000  1.595630175781e+004
 2.667509794235e+000  1.565169726563e+004
 2.669596910477e+000  1.535023242188e+004
 2.671611547470e+000  1.507308691406e+004
 2.673551321030e+000  1.483209960938e+004
 2.675436735153e+000  1.463558496094e+004
 2.677240848541e+000  1.449892578125e+004
 2.678975582123e+000  1.442348828125e+004
 2.680648088455e+000  1.440438281250e+004
 2.682240962982e+000  1.443372656250e+004
 2.683766365051e+000  1.450494628906e+004
 2.685212612152e+000  1.461676171875e+004
 2.686590433121e+000  1.476590136719e+004
 2.687886953354e+000  1.494515429688e+004
 2.689107418060e+000  1.514839648438e+004
 2.690248966217e+000  1.537033105469e+004
 2.691310882568e+000  1.561090039063e+004
 2.692291259766e+000  1.586590820313e+004
 2.693187236786e+000  1.612400390625e+004
 2.694001674652e+000  1.637035449219e+004
 2.694728851318e+000  1.658652929688e+004
 2.695367574692e+000  1.675864062500e+004
 2.695918321609e+000  1.688030664063e+004
 2.696379899979e+000  1.694654492188e+004
 2.696752548218e+000  1.695348437500e+004
 2.697037458420e+000  1.690215429688e+004
 2.697228670120e+000  1.680472851563e+004
 2.697329282761e+000  1.669197656250e+004
 2.697342157364e+000  1.659654882813e+004
 2.697268247604e+000  1.654825000000e+004
 2.697108507156e+000  1.656813476563e+004
 2.696860790253e+000  1.667382031250e+004
 2.696525812149e+000  1.687059765625e+004
 2.696103811264e+000  1.715458789063e+004
 2.695595741272e+000  1.750780078125e+004
 2.694999694824e+000  1.790061718750e+004
 2.694314241409e+000  1.829179101563e+004
 2.693536043167e+000  1.864718359375e+004
 2.692667007446e+000  1.894379101563e+004
 2.691705465317e+000  1.916829882813e+004
 2.690657615662e+000  1.931008007813e+004
 2.689505577087e+000  1.935524804688e+004
 2.688263893127e+000  1.929325976563e+004
 2.686928749084e+000  1.912153320313e+004
 2.685508489609e+000  1.884572656250e+004
 2.683988094330e+000  1.847109179688e+004
 2.682383775711e+000  1.801610742188e+004
 2.680689096451e+000  1.750020703125e+004
 2.678918600082e+000  1.695026953125e+004
 2.677065134048e+000  1.639067968750e+004
 2.675131559372e+000  1.585512500000e+004
 2.673122167587e+000  1.537644433594e+004
 2.671036243439e+000  1.497678906250e+004
 2.668880939484e+000  1.466651464844e+004
 2.666644811630e+000  1.445102246094e+004
 2.664337873459e+000  1.433856054688e+004
 2.661957740784e+000  1.433458886719e+004
 2.659508943558e+000  1.443457324219e+004
 2.656974554062e+000  1.462830664063e+004
 2.654370546341e+000  1.490089648438e+004
 2.651695489883e+000  1.523798339844e+004
 2.648934841156e+000  1.562760449219e+004
 2.646093606949e+000  1.605011328125e+004
 2.643173217773e+000  1.647634570313e+004
 2.640174865723e+000  1.687729101563e+004
 2.637086629868e+000  1.722408593750e+004
 2.633918523788e+000  1.747459960938e+004
 2.630656480789e+000  1.759781835938e+004
 2.627312183380e+000  1.757562109375e+004
 2.623882055283e+000  1.739752929688e+004
 2.620352506638e+000  1.706544335938e+004
 2.616748571396e+000  1.658956054688e+004
 2.613047599792e+000  1.599322656250e+004
 2.609264373779e+000  1.530419140625e+004
 2.605392456055e+000  1.454580371094e+004
 2.601445198059e+000  1.374663769531e+004
 2.597407579422e+000  1.293595214844e+004
 2.593291521072e+000  1.214084667969e+004
 2.589103937149e+000  1.137708789063e+004
 2.584829330444e+000  1.065070214844e+004
 2.580491304398e+000  9.974864257813e+003
 2.576069116592e+000  9.349116210938e+003
 2.571568965912e+000  8.785537109375e+003
 2.567008256912e+000  8.297397460938e+003
 2.562361717224e+000  7.882277343750e+003
 2.557658672333e+000  7.549514648438e+003
 2.552899122238e+000  7.302494628906e+003
 2.548042058945e+000  7.144962402344e+003
 2.543147563934e+000  7.083485839844e+003
 2.538172006607e+000  7.117137695313e+003
 2.533126115799e+000  7.238892578125e+003
 2.528037309647e+000  7.435323730469e+003
 2.522873640060e+000  7.685838378906e+003
 2.517643928528e+000  7.969674316406e+003
 2.512337684631e+000  8.263454101563e+003
 2.506974935532e+000  8.540141601563e+003
 2.501536369324e+000  8.773645507813e+003
 2.496044635773e+000  8.942779296875e+003
 2.490480422974e+000  9.041831054688e+003
 2.484835863113e+000  9.071630859375e+003
 2.479151487350e+000  9.036096679688e+003
 2.473385810852e+000  8.936901367188e+003
 2.467536211014e+000  8.775263671875e+003
 2.461658716202e+000  8.558409179688e+003
 2.455715417862e+000  8.293419921875e+003
 2.449703454971e+000  7.989089843750e+003
 2.443632841110e+000  7.653521972656e+003
 2.437506198883e+000  7.300277343750e+003
 2.431323051453e+000  6.937801757813e+003
 2.425097703934e+000  6.579846191406e+003
 2.418833255768e+000  6.237444824219e+003
 2.412505388260e+000  5.917279785156e+003
 2.406145334244e+000  5.615958007813e+003
 2.399751663208e+000  5.321314453125e+003
 2.393288612366e+000  5.017265136719e+003
 2.386801004410e+000  4.695587402344e+003
 2.380279779434e+000  4.350297851563e+003
 2.373696804047e+000  3.983081054688e+003
 2.367076396942e+000  3.600565917969e+003
 2.360418558121e+000  3.209937255859e+003
 2.353724956512e+000  2.822922363281e+003
 2.346978187561e+000  2.444795654297e+003
 2.340182542801e+000  2.077987304688e+003
 2.333369016647e+000  1.716815063477e+003
 2.326502561569e+000  1.351120849609e+003
 2.319607257843e+000  9.688943481445e+002
 2.312670469284e+000  5.587658691406e+002
 2.305685997009e+000  1.138535003662e+002
 2.298661231995e+000 -3.599113464355e+002
 2.291648626328e+000 -8.450437011719e+002
 2.284552335739e+000 -1.322128295898e+003
 2.277469396591e+000 -1.754564331055e+003
 2.270329952240e+000 -2.123718017578e+003
 2.263182878494e+000 -2.411358398438e+003
 2.255972146988e+000 -2.620750000000e+003
 2.248753547668e+000 -2.750821044922e+003
 2.241505146027e+000 -2.810746093750e+003
 2.234261274338e+000 -2.814942382813e+003
 2.226969003677e+000 -2.788791259766e+003
 2.219644546509e+000 -2.754978759766e+003
 2.212293624878e+000 -2.731584960938e+003
 2.204901456833e+000 -2.729864257813e+003
 2.197489738464e+000 -2.757244873047e+003
 2.190103292465e+000 -2.819712646484e+003
 2.182693243027e+000 -2.924670898438e+003
 2.175215959549e+000 -3.076646728516e+003
 2.167822837830e+000 -3.261019042969e+003
 2.160366773605e+000 -3.458911865234e+003
 2.152970552444e+000 -3.635112060547e+003
 2.145520448685e+000 -3.770651611328e+003
 2.138146638870e+000 -3.849012939453e+003
 2.130789041519e+000 -3.867057617188e+003
 2.123446941376e+000 -3.825648681641e+003
 2.116133689880e+000 -3.737957519531e+003
 2.108869552612e+000 -3.619367187500e+003
 2.101641416550e+000 -3.486958007813e+003
 2.094447135925e+000 -3.354285644531e+003
 2.087315559387e+000 -3.224510742188e+003
 2.080261230469e+000 -3.094872070313e+003
 2.073243379593e+000 -2.959976806641e+003
 2.066305160522e+000 -2.822408691406e+003
 2.059411764145e+000 -2.689660156250e+003
 2.052632808685e+000 -2.572363281250e+003
 2.045917749405e+000 -2.478697753906e+003
 2.039277553558e+000 -2.417494628906e+003
 2.032703876495e+000 -2.398666259766e+003
 2.026205778122e+000 -2.430469970703e+003
 2.019824028015e+000 -2.517037597656e+003
 2.013518810272e+000 -2.650037597656e+003
 2.007304191589e+000 -2.823365966797e+003
 2.001151800156e+000 -3.036475830078e+003
 1.995094299316e+000 -3.290839599609e+003
 1.989185094833e+000 -3.588505859375e+003
 1.983289361000e+000 -3.931126708984e+003
 1.977530598640e+000 -4.297905273438e+003
 1.971889019012e+000 -4.680254394531e+003
 1.966297864914e+000 -5.080418945313e+003
 1.960844874382e+000 -5.493512695313e+003
 1.955495119095e+000 -5.924958984375e+003
 1.950280666351e+000 -6.373224609375e+003
 1.945158720016e+000 -6.844867675781e+003
 1.940167069435e+000 -7.330564941406e+003
 1.935277342796e+000 -7.829231933594e+003
 1.930541515350e+000 -8.309964843750e+003
 1.925907492638e+000 -8.745864257813e+003
 1.921436309814e+000 -9.102039062500e+003
 1.917081594467e+000 -9.353224609375e+003
 1.912837624550e+000 -9.475539062500e+003
 1.908755540848e+000 -9.470487304688e+003
 1.904751300812e+000 -9.337575195313e+003
 1.900894045830e+000 -9.082203125000e+003
 1.897123932838e+000 -8.709154296875e+003
 1.893468141556e+000 -8.224998046875e+003
 1.889917254448e+000 -7.662582031250e+003
 1.886457562447e+000 -7.040244140625e+003
 1.883058190346e+000 -6.372989746094e+003
 1.879752993584e+000 -5.690221679688e+003
 1.876526117325e+000 -5.017736328125e+003
 1.873340487480e+000 -4.380724121094e+003
 1.870190382004e+000 -3.805005615234e+003
 1.867099642754e+000 -3.315866210938e+003
 1.864047765732e+000 -2.914978027344e+003
 1.861014366150e+000 -2.600875976563e+003
 1.858005642891e+000 -2.368764648438e+003
 1.854995489120e+000 -2.223244384766e+003
 1.851994037628e+000 -2.173619628906e+003
 1.849000334740e+000 -2.224733398438e+003
 1.845979452133e+000 -2.384828613281e+003
 1.842971086502e+000 -2.643016601563e+003
 1.839911699295e+000 -3.001886718750e+003
 1.836857914925e+000 -3.454214355469e+003
 1.833739876747e+000 -4.007990478516e+003
 1.830606818199e+000 -4.647324218750e+003
 1.827436685562e+000 -5.350852050781e+003
 1.824233889580e+000 -6.101807617188e+003
 1.821005105972e+000 -6.879191406250e+003
 1.817723274231e+000 -7.674934570313e+003
 1.814433693886e+000 -8.441165039063e+003
 1.811121106148e+000 -9.159807617188e+003
 1.807777166367e+000 -9.805291015625e+003
 1.804409623146e+000 -1.035556152344e+004
 1.801032662392e+000 -1.079015625000e+004
 1.797660708427e+000 -1.108627539063e+004
 1.794279217720e+000 -1.123484765625e+004
 1.790894150734e+000 -1.123369628906e+004
 1.787508130074e+000 -1.109257226563e+004
 1.784112453461e+000 -1.083187890625e+004
 1.780731320381e+000 -1.046439550781e+004
 1.777361154556e+000 -1.001166699219e+004
 1.773994088173e+000 -9.471781250000e+003
 1.770625352859e+000 -8.850300781250e+003
 1.767282962799e+000 -8.160302734375e+003
 1.763928651810e+000 -7.391486816406e+003
 1.760568261147e+000 -6.545107910156e+003
 1.757227063179e+000 -5.621922363281e+003
 1.753898739815e+000 -4.623796386719e+003
 1.750565528870e+000 -3.553442382813e+003
 1.747232437134e+000 -2.454379394531e+003
 1.743925929070e+000 -1.363374511719e+003
 1.740594148636e+000 -3.082864990234e+002
 1.737297773361e+000  6.557277832031e+002
 1.733983159065e+000  1.493414916992e+003
 1.730682492256e+000  2.121130371094e+003
 1.727379918098e+000  2.501674072266e+003
 1.724055051804e+000  2.603976318359e+003
 1.720766425133e+000  2.423745849609e+003
 1.717446327209e+000  1.971201293945e+003
 1.714155197144e+000  1.275836547852e+003
 1.710849761963e+000  3.793392639160e+002
 1.707560777664e+000 -6.448453369141e+002
 1.704285264015e+000 -1.743773193359e+003
 1.701010107994e+000 -2.855147949219e+003
 1.697764873505e+000 -3.929303466797e+003
 1.694552063942e+000 -4.935385253906e+003
 1.691347479820e+000 -5.862496582031e+003
 1.688188314438e+000 -6.673535644531e+003
 1.685045719147e+000 -7.346730468750e+003
 1.681950688362e+000 -7.849539062500e+003
 1.678909063339e+000 -8.182369140625e+003
 1.675861239433e+000 -8.366401367188e+003
 1.672881126404e+000 -8.421447265625e+003
 1.669943809509e+000 -8.374946289063e+003
 1.667007923126e+000 -8.244571289063e+003
 1.664122700691e+000 -8.049900878906e+003
 1.661268472672e+000 -7.795500000000e+003
 1.658444881439e+000 -7.471685058594e+003
 1.655649900436e+000 -7.051416503906e+003
 1.652867317200e+000 -6.495791992188e+003
 1.650104522705e+000 -5.780401367188e+003
 1.647367835045e+000 -4.906253906250e+003
 1.644644856453e+000 -3.890245117188e+003
 1.641945362091e+000 -2.754330810547e+003
 1.639249205589e+000 -1.540342895508e+003
 1.636561036110e+000 -3.001701049805e+002
 1.633890390396e+000  9.044014892578e+002
 1.631217241287e+000  2.018366088867e+003
 1.628559231758e+000  2.971914062500e+003
 1.625874519348e+000  3.715752441406e+003
 1.623208761215e+000  4.206528320313e+003
 1.620527625084e+000  4.445894531250e+003
 1.617845892906e+000  4.435142089844e+003
 1.615155696869e+000  4.193302246094e+003
 1.612478733063e+000  3.751066406250e+003
 1.609794139862e+000  3.156992675781e+003
 1.607106804848e+000  2.467320068359e+003
 1.604432940483e+000  1.726165527344e+003
 1.601751446724e+000  9.688880615234e+002
 1.599106073380e+000  2.345881958008e+002
 1.596450567245e+000 -4.561990356445e+002
 1.593809366226e+000 -1.074461914063e+003
 1.591199040413e+000 -1.584440795898e+003
 1.588588953018e+000 -1.982334350586e+003
 1.585997581482e+000 -2.266878417969e+003
 1.583400964737e+000 -2.466518066406e+003
 1.580836772919e+000 -2.614274658203e+003
 1.578279137611e+000 -2.747396728516e+003
 1.575723528862e+000 -2.895858886719e+003
 1.573173046112e+000 -3.085791259766e+003
 1.570643186569e+000 -3.327873046875e+003
 1.568095922470e+000 -3.619935302734e+003
 1.565571427345e+000 -3.930447509766e+003
 1.563039302826e+000 -4.224233886719e+003
 1.560538768768e+000 -4.442592773438e+003
 1.558023571968e+000 -4.535640136719e+003
 1.555525541306e+000 -4.462742187500e+003
 1.553043603897e+000 -4.196888183594e+003
 1.550571441650e+000 -3.725701904297e+003
 1.548093080521e+000 -3.044988525391e+003
 1.545628905296e+000 -2.179683105469e+003
 1.543172717094e+000 -1.168381103516e+003
 1.540709257126e+000 -5.127078247070e+001
 1.538253188133e+000  1.130954345703e+003
 1.535780668259e+000  2.347293457031e+003
 1.533296465874e+000  3.523794677734e+003
 1.530804276466e+000  4.616129394531e+003
 1.528304457664e+000  5.550926269531e+003
 1.525773167610e+000  6.290369140625e+003
 1.523241400719e+000  6.796848632813e+003
 1.520676970482e+000  7.068608886719e+003
 1.518096327782e+000  7.130458496094e+003
 1.515500545502e+000  7.006187500000e+003
 1.512894392014e+000  6.725833984375e+003
 1.510244011879e+000  6.311048339844e+003
 1.507609844208e+000  5.805112792969e+003
 1.504937410355e+000  5.232901367188e+003
 1.502246737480e+000  4.623831542969e+003
 1.499556899071e+000  4.010202636719e+003
 1.496854782104e+000  3.404783935547e+003
 1.494122147560e+000  2.812108886719e+003
 1.491388797760e+000  2.236238769531e+003
 1.488631844521e+000  1.656134155273e+003
 1.485881090164e+000  1.054848144531e+003
 1.483116149902e+000  4.006924743652e+002
 1.480323672295e+000 -3.084511108398e+002
 1.477543115616e+000 -1.034638061523e+003
 1.474740147591e+000 -1.734224853516e+003
 1.471933841705e+000 -2.334762207031e+003
 1.469122767448e+000 -2.768797851563e+003
 1.466302752495e+000 -2.989050537109e+003
 1.463485717773e+000 -2.987316406250e+003
 1.460669279099e+000 -2.782478027344e+003
 1.457833051682e+000 -2.405337402344e+003
 1.454999685287e+000 -1.901102050781e+003
 1.452142119408e+000 -1.302201904297e+003
 1.449284672737e+000 -6.486017456055e+002
 1.446394801140e+000  4.630207061768e+001
 1.443500399590e+000  7.595632934570e+002
 1.440572381020e+000  1.491663330078e+003
 1.437639713287e+000  2.213051757813e+003
 1.434660196304e+000  2.923902343750e+003
 1.431673884392e+000  3.603128906250e+003
 1.428635716438e+000  4.247139648438e+003
 1.425602555275e+000  4.828863769531e+003
 1.422529101372e+000  5.344672363281e+003
 1.419427275658e+000  5.779595703125e+003
 1.416299819946e+000  6.129627929688e+003
 1.413156867027e+000  6.381611328125e+003
 1.409964919090e+000  6.523229980469e+003
 1.406756281853e+000  6.536456542969e+003
 1.403543472290e+000  6.430336914063e+003
 1.400264859200e+000  6.225850585938e+003
 1.396993160248e+000  5.967768066406e+003
 1.393671274185e+000  5.697111328125e+003
 1.390311598778e+000  5.448989746094e+003
 1.386932611465e+000  5.233142089844e+003
 1.383525848389e+000  5.045638183594e+003
 1.380094766617e+000  4.879714843750e+003
 1.376624941826e+000  4.733014648438e+003
 1.373125076294e+000  4.604682617188e+003
 1.369599103928e+000  4.485133789063e+003
 1.366040110588e+000  4.354714355469e+003
 1.362437605858e+000  4.185952636719e+003
 1.358802914619e+000  3.946590820313e+003
 1.355140566826e+000  3.609971435547e+003
 1.351445436478e+000  3.163192626953e+003
 1.347723960876e+000  2.598310302734e+003
 1.343973875046e+000  1.920202148438e+003
 1.340166330338e+000  1.148695556641e+003
 1.336356639862e+000  3.376928405762e+002
 1.332521319389e+000 -4.652327270508e+002
 1.328650355339e+000 -1.222301757813e+003
 1.324735641479e+000 -1.892238647461e+003
 1.320843577385e+000 -2.419493896484e+003
 1.316904544830e+000 -2.776189208984e+003
 1.312977433205e+000 -2.933469726563e+003
 1.309022665024e+000 -2.874985351563e+003
 1.305051684380e+000 -2.591904296875e+003
 1.301057577133e+000 -2.079379394531e+003
 1.297057271004e+000 -1.357664306641e+003
 1.293061494827e+000 -4.708069458008e+002
 1.289004683495e+000  5.450968017578e+002
 1.284947395325e+000  1.605674560547e+003
 1.280877828598e+000  2.636901855469e+003
 1.276757240295e+000  3.582583984375e+003
 1.272611021996e+000  4.387860839844e+003
 1.268445611000e+000  5.031407226563e+003
 1.264240860939e+000  5.512418945313e+003
 1.259991049767e+000  5.829421386719e+003
 1.255700469017e+000  5.986838867188e+003
 1.251383900642e+000  6.011041015625e+003
 1.247026085854e+000  5.932870605469e+003
 1.242615461349e+000  5.793007324219e+003
 1.238180994987e+000  5.638856933594e+003
 1.233668684959e+000  5.510183593750e+003
 1.229156613350e+000  5.430517089844e+003
 1.224561691284e+000  5.398339843750e+003
 1.219944834709e+000  5.396029296875e+003
 1.215309023857e+000  5.387953613281e+003
 1.210592150688e+000  5.319820312500e+003
 1.205845475197e+000  5.138939941406e+003
 1.201064109802e+000  4.799669433594e+003
 1.196223616600e+000  4.272507812500e+003
 1.191389322281e+000  3.565710205078e+003
 1.186480522156e+000  2.698268066406e+003
 1.181538820267e+000  1.739239746094e+003
 1.176564574242e+000  7.527611694336e+002
 1.171557664871e+000 -1.969852600098e+002
 1.166560411453e+000 -1.040091796875e+003
 1.161506652832e+000 -1.723473754883e+003
 1.156446218491e+000 -2.210454833984e+003
 1.151342391968e+000 -2.485032714844e+003
 1.146240115166e+000 -2.550847656250e+003
 1.141138434410e+000 -2.436930664063e+003
 1.135971188545e+000 -2.180245605469e+003
 1.130813360214e+000 -1.841035644531e+003
 1.125641822815e+000 -1.470517211914e+003
 1.120444893837e+000 -1.110649658203e+003
 1.115223050117e+000 -8.083989257813e+002
 1.109947443008e+000 -6.040636596680e+002
 1.104680538177e+000 -5.184721069336e+002
 1.099393367767e+000 -5.553695068359e+002
 1.094080328941e+000 -7.080762939453e+002
 1.088750600815e+000 -9.612338867188e+002
 1.083383560181e+000 -1.296460449219e+003
 1.078022837639e+000 -1.673264892578e+003
 1.072642326355e+000 -2.055082275391e+003
 1.067221879959e+000 -2.392002197266e+003
 1.061802148819e+000 -2.624278808594e+003
 1.056332230568e+000 -2.684460937500e+003
 1.050872445107e+000 -2.536914062500e+003
 1.045377492905e+000 -2.163208496094e+003
 1.039870500565e+000 -1.566108642578e+003
 1.034377932549e+000 -7.760727539063e+002
 1.028791904449e+000  1.712764892578e+002
 1.023201823235e+000  1.166379516602e+003
 1.017600059509e+000  2.126438476563e+003
 1.011915087700e+000  2.969295654297e+003
 1.006223917007e+000  3.616116699219e+003
 1.000504732132e+000  4.016217041016e+003
 9.946997165680e-001  4.176653320313e+003
 9.888926744461e-001  4.097630859375e+003
 9.830231666565e-001  3.797060302734e+003
 9.771229624748e-001  3.301721923828e+003
 9.711891412735e-001  2.649931152344e+003
 9.652037024498e-001  1.906933349609e+003
 9.591863751411e-001  1.125249633789e+003
 9.531598687172e-001  3.593193054199e+002
 9.470816254616e-001 -3.506824035645e+002
 9.409933686256e-001 -9.659353637695e+002
 9.348686337471e-001 -1.470184570313e+003
 9.287391304970e-001 -1.865555297852e+003
 9.225826859474e-001 -2.167584716797e+003
 9.164190292358e-001 -2.402680175781e+003
 9.102229475975e-001 -2.599978515625e+003
 9.040821790695e-001 -2.783971435547e+003
 8.978909850121e-001 -2.977559326172e+003
 8.917169570923e-001 -3.196282470703e+003
 8.855096697807e-001 -3.464107910156e+003
 8.793199062347e-001 -3.800637451172e+003
 8.731141090393e-001 -4.209847656250e+003
 8.668588399887e-001 -4.681612792969e+003
 8.605296015739e-001 -5.181702636719e+003
 8.541442751884e-001 -5.666089355469e+003
 8.476332426071e-001 -6.086216796875e+003
 8.410488963127e-001 -6.403546875000e+003
 8.343790769577e-001 -6.600015625000e+003
 8.275663852692e-001 -6.658173828125e+003
 8.207455277443e-001 -6.571224121094e+003
 8.139280676842e-001 -6.339221191406e+003
 8.072641491890e-001 -5.997709472656e+003
 8.009210228920e-001 -5.588135253906e+003
 7.950595617294e-001 -5.156261718750e+003
 7.898960709572e-001 -4.744616210938e+003
 7.857334017754e-001 -4.393063964844e+003
 7.826669216156e-001 -4.125723632813e+003
 7.807667851448e-001 -3.955715820313e+003
 7.799099087715e-001 -3.877614257813e+003
 7.797450423241e-001 -3.862566650391e+003
endcurve
