Curveplot
LS-DYNA keyword deck by LS-PrePost
Yrot-displ
phi moment-stiffness
Joint Stiff
300001 #pts=1000
* Minval= -1.962288281250e+004 at time=      -1.650324225426
* Maxval=  2.253221289063e+004 at time=      -1.705911159515
-2.268552679041e-009  9.290465153754e-003
-2.013566424708e-009  4.762375727296e-003
-1.230430757282e-009 -3.330905456096e-003
 2.514601582515e-010 -1.566099934280e-002
 2.567390522401e-009 -3.242549300194e-002
 5.786455758994e-009 -5.303141847253e-002
 9.949341794879e-009 -7.449140399694e-002
 1.474274125002e-008 -8.908209949732e-002
 1.967096352473e-008 -8.838143199682e-002
 2.391206344043e-008 -6.550132483244e-002
 2.630385154134e-008 -1.420688070357e-002
 2.498125084571e-008  7.653461396694e-002
 1.810726857343e-008  2.149909436703e-001
 3.746934762461e-009  4.060743153095e-001
-1.980318664607e-008  6.454586386681e-001
-5.426152682730e-008  9.240042567253e-001
-9.946237611302e-008  1.223719835281e+000
-1.530762006041e-007  1.555155038834e+000
-2.101993601400e-007  1.963662385941e+000
-2.641494916134e-007  2.542228937149e+000
-3.044710013000e-007  3.410618066788e+000
-3.166638293806e-007  4.758276462555e+000
-2.864967711957e-007  6.744248867035e+000
-1.981857593591e-007  9.613897323608e+000
-3.631066647358e-008  1.360262775421e+001
 2.120359283708e-007  1.896986389160e+001
 5.682566097676e-007  2.622636032104e+001
 1.028609972309e-006  3.553883361816e+001
 1.597635332473e-006  4.739160919189e+001
 2.263418991788e-006  6.213619232178e+001
 3.004101699844e-006  8.012853240967e+001
 3.798172201641e-006  1.022838973999e+002
 4.576857463690e-006  1.284065246582e+002
 5.285578936309e-006  1.590745239258e+002
 5.836456693942e-006  1.943081665039e+002
 6.129763278295e-006  2.340800170898e+002
 6.022758498148e-006  2.789186706543e+002
 5.375547516451e-006  3.289065551758e+002
 4.044341949339e-006  3.832632446289e+002
 1.854735501183e-006  4.423079833984e+002
-1.382116124660e-006  5.060007324219e+002
-5.956558197795e-006  5.746594848633e+002
-1.206074921356e-005  6.479923706055e+002
-1.992263787542e-005  7.258444824219e+002
-2.980323733937e-005  8.080772705078e+002
-4.185601210338e-005  8.936853637695e+002
-5.673215855495e-005  9.840724487305e+002
-7.453210128006e-005  1.077745361328e+003
-9.552508709021e-005  1.174267211914e+003
-1.200090700877e-004  1.273186157227e+003
-1.486923865741e-004  1.375392944336e+003
-1.816194562707e-004  1.478722900391e+003
-2.193293184973e-004  1.583640502930e+003
-2.621366875246e-004  1.689715454102e+003
-3.104384813923e-004  1.796484008789e+003
-3.646373515949e-004  1.903422973633e+003
-4.254404339008e-004  2.009900878906e+003
-4.926825058647e-004  2.114695312500e+003
-5.672074621543e-004  2.218094726563e+003
-6.492910324596e-004  2.319453613281e+003
-7.388278027065e-004  2.417681884766e+003
-8.368244161829e-004  2.512754882813e+003
-9.442233713344e-004  2.605256347656e+003
-1.059681409970e-003  2.693903076172e+003
-1.184325432405e-003  2.779467285156e+003
-1.318462309428e-003  2.861998291016e+003
-1.463021733798e-003  2.941593261719e+003
-1.617999398150e-003  3.018294921875e+003
-1.782575738616e-003  3.091716064453e+003
-1.957869157195e-003  3.162259765625e+003
-2.143175806850e-003  3.229521484375e+003
-2.341599203646e-003  3.294270996094e+003
-2.549851313233e-003  3.355552246094e+003
-2.771613420919e-003  3.414743896484e+003
-3.003123681992e-003  3.471092041016e+003
-3.246510634199e-003  3.525459960938e+003
-3.502484876662e-003  3.578273925781e+003
-3.770996117964e-003  3.630031982422e+003
-4.051975440234e-003  3.681252197266e+003
-4.345637280494e-003  3.732419677734e+003
-4.652191419154e-003  3.784007324219e+003
-4.972388967872e-003  3.836609375000e+003
-5.306283477694e-003  3.890743408203e+003
-5.650596227497e-003  3.946394531250e+003
-6.011860910803e-003  4.005027099609e+003
-6.383790168911e-003  4.066007080078e+003
-6.774013862014e-003  4.130895996094e+003
-7.175579667091e-003  4.198708496094e+003
-7.591901347041e-003  4.270095703125e+003
-8.023305796087e-003  4.345017089844e+003
-8.470171131194e-003  4.423347656250e+003
-8.934025652707e-003  4.505038085938e+003
-9.414979256690e-003  4.589510742188e+003
-9.908325970173e-003  4.675507324219e+003
-1.042335201055e-002  4.764069335938e+003
-1.095140445977e-002  4.853236328125e+003
-1.149808429182e-002  4.943438964844e+003
-1.206384785473e-002  5.034423339844e+003
-1.264862716198e-002  5.126016601563e+003
-1.324744243175e-002  5.217232910156e+003
-1.387166045606e-002  5.309621093750e+003
-1.451193448156e-002  5.401593750000e+003
-1.517412252724e-002  5.493703125000e+003
-1.585768535733e-002  5.585580078125e+003
-1.656320504844e-002  5.676841308594e+003
-1.728522963822e-002  5.766327636719e+003
-1.803625375032e-002  5.854685546875e+003
-1.880528032780e-002  5.939959960938e+003
-1.959809660912e-002  6.022206054688e+003
-2.041523344815e-002  6.100882812500e+003
-2.125717513263e-002  6.175432128906e+003
-2.212526462972e-002  6.245303222656e+003
-2.301208116114e-002  6.309628906250e+003
-2.392882853746e-002  6.369297851563e+003
-2.486949227750e-002  6.423870117188e+003
-2.583694085479e-002  6.473517089844e+003
-2.683152630925e-002  6.518127441406e+003
-2.784720435739e-002  6.557630371094e+003
-2.889870852232e-002  6.592879394531e+003
-2.996905148029e-002  6.623516601563e+003
-3.106856159866e-002  6.650093750000e+003
-3.220546245575e-002  6.672856933594e+003
-3.336361423135e-002  6.691787109375e+003
-3.454576060176e-002  6.707438476563e+003
-3.575739637017e-002  6.720205078125e+003
-3.700396791101e-002  6.730403320313e+003
-3.827131167054e-002  6.738125000000e+003
-3.957957029343e-002  6.743727539063e+003
-4.090744256973e-002  6.747424804688e+003
-4.226536676288e-002  6.749507324219e+003
-4.365398734808e-002  6.750255859375e+003
-4.507562518120e-002  6.749996582031e+003
-4.653102159500e-002  6.749193359375e+003
-4.800545796752e-002  6.748396972656e+003
-4.952448979020e-002  6.748156250000e+003
-5.106258392334e-002  6.749051269531e+003
-5.263382196426e-002  6.751673828125e+003
-5.423897132277e-002  6.756539062500e+003
-5.587963759899e-002  6.763903320313e+003
-5.754697322845e-002  6.773864746094e+003
-5.924296379089e-002  6.786393066406e+003
-6.098421290517e-002  6.801502441406e+003
-6.274671107531e-002  6.818635253906e+003
-6.454445421696e-002  6.837354492188e+003
-6.637274473906e-002  6.857111328125e+003
-6.824532151222e-002  6.877517578125e+003
-7.014442980289e-002  6.897875488281e+003
-7.207749038935e-002  6.917791015625e+003
-7.405593246222e-002  6.937032714844e+003
-7.605980336666e-002  6.955155761719e+003
-7.809424400330e-002  6.972044433594e+003
-8.017498254776e-002  6.987663574219e+003
-8.228979259729e-002  7.001791503906e+003
-8.444762229919e-002  7.014480957031e+003
-8.663678169250e-002  7.025519042969e+003
-8.885654807091e-002  7.034748535156e+003
-9.112453460693e-002  7.041944335938e+003
-9.343002736568e-002  7.046676757813e+003
-9.577482938766e-002  7.048688964844e+003
-9.816141426563e-002  7.047615722656e+003
-1.005806401372e-001  7.043135253906e+003
-1.030511707067e-001  7.034834960938e+003
-1.055527031422e-001  7.022439941406e+003
-1.080880984664e-001  7.005983398438e+003
-1.106849610806e-001  6.985143066406e+003
-1.133021339774e-001  6.960176757813e+003
-1.159695237875e-001  6.930752441406e+003
-1.186896562576e-001  6.896735351563e+003
-1.214310005307e-001  6.858784667969e+003
-1.242256537080e-001  6.816576171875e+003
-1.270706355572e-001  6.770252929688e+003
-1.299451738596e-001  6.720279785156e+003
-1.328744292259e-001  6.666412597656e+003
-1.358389407396e-001  6.609403320313e+003
-1.388306468725e-001  6.549686523438e+003
-1.418953388929e-001  6.486664062500e+003
-1.449815481901e-001  6.421659667969e+003
-1.481344103813e-001  6.354069824219e+003
-1.513057947159e-001  6.285274902344e+003
-1.545245498419e-001  6.214909179688e+003
-1.578094214201e-001  6.142793945313e+003
-1.611050367355e-001  6.070357421875e+003
-1.644581705332e-001  5.996745605469e+003
-1.678653508425e-001  5.922258300781e+003
-1.713149249554e-001  5.847318847656e+003
-1.748086363077e-001  5.772053222656e+003
-1.783325225115e-001  5.696927734375e+003
-1.818955242634e-001  5.622038085938e+003
-1.855204701424e-001  5.546905761719e+003
-1.891961842775e-001  5.471986816406e+003
-1.928893327713e-001  5.397961914063e+003
-1.966511607170e-001  5.323856445313e+003
-2.004442512989e-001  5.250438964844e+003
-2.042829394341e-001  5.177295410156e+003
-2.081749141216e-001  5.104116210938e+003
-2.120982855558e-001  5.031049804688e+003
-2.160822302103e-001  4.957387695313e+003
-2.201014459133e-001  4.883175292969e+003
-2.241761684418e-001  4.807685546875e+003
-2.282719761133e-001  4.731159179688e+003
-2.324461191893e-001  4.652196777344e+003
-2.366243451834e-001  4.571872070313e+003
-2.408808469772e-001  4.488301269531e+003
-2.451680451632e-001  4.402293457031e+003
-2.495072484016e-001  4.313258789063e+003
-2.539013326168e-001  4.221044433594e+003
-2.583214640617e-001  4.126299804688e+003
-2.628047764301e-001  4.028163085938e+003
-2.673383951187e-001  3.927087646484e+003
-2.718948721886e-001  3.823741455078e+003
-2.765032649040e-001  3.717556640625e+003
-2.811669707298e-001  3.608560791016e+003
-2.858820557594e-001  3.496758789063e+003
-2.906222343445e-001  3.382929687500e+003
-2.954315841198e-001  3.265947021484e+003
-3.002786934376e-001  3.146631591797e+003
-3.051450252533e-001  3.025406982422e+003
-3.100983202457e-001  2.900478759766e+003
-3.150637745857e-001  2.773954589844e+003
-3.200904726982e-001  2.644508300781e+003
-3.251731693745e-001  2.512366699219e+003
-3.302835822105e-001  2.378318359375e+003
-3.354421555996e-001  2.241929931641e+003
-3.406469523907e-001  2.103352294922e+003
-3.458942770958e-001  1.962840942383e+003
-3.511909246445e-001  1.820351196289e+003
-3.565306663513e-001  1.676330566406e+003
-3.619171977043e-001  1.530911132813e+003
-3.673489689827e-001  1.384431396484e+003
-3.727846741676e-001  1.238053955078e+003
-3.782979846001e-001  1.090089721680e+003
-3.838524818420e-001  9.416506958008e+002
-3.894462585449e-001  7.927578125000e+002
-3.950811922550e-001  6.435168457031e+002
-4.007920622826e-001  4.928738708496e+002
-4.065029025078e-001  3.428485107422e+002
-4.122519195080e-001  1.923348846436e+002
-4.180411398411e-001  4.129183197021e+001
-4.238903224468e-001 -1.108698730469e+002
-4.297679364681e-001 -2.633722534180e+002
-4.356732368469e-001 -4.160852050781e+002
-4.416379928589e-001 -5.698801879883e+002
-4.476400017738e-001 -7.239352416992e+002
-4.536767899990e-001 -8.782227172852e+002
-4.597480297089e-001 -1.032591308594e+003
-4.658534824848e-001 -1.187011108398e+003
-4.719929993153e-001 -1.341337890625e+003
-4.781762659550e-001 -1.495868530273e+003
-4.843930900097e-001 -1.650212158203e+003
-4.906598925591e-001 -1.804857910156e+003
-4.969324171543e-001 -1.958577270508e+003
-5.032796859741e-001 -2.113197265625e+003
-5.096250176430e-001 -2.266819824219e+003
-5.160278677940e-001 -2.420941894531e+003
-5.224702358246e-001 -2.575157714844e+003
-5.289327502251e-001 -2.729046875000e+003
-5.353998541832e-001 -2.882306884766e+003
-5.419319272041e-001 -3.036286132813e+003
-5.484917759895e-001 -3.190152832031e+003
-5.550789237022e-001 -3.343895751953e+003
-5.617026686668e-001 -3.497785400391e+003
-5.683791041374e-001 -3.652049316406e+003
-5.750482082367e-001 -3.805379638672e+003
-5.817716717720e-001 -3.959154296875e+003
-5.885090827942e-001 -4.112576660156e+003
-5.952643156052e-001 -4.265649414063e+003
-6.020704507828e-001 -4.419087402344e+003
-6.089100241661e-001 -4.572395019531e+003
-6.157730221748e-001 -4.725179687500e+003
-6.226583719254e-001 -4.877423339844e+003
-6.295753717422e-001 -5.029170410156e+003
-6.364920139313e-001 -5.179479003906e+003
-6.434768438339e-001 -5.329897949219e+003
-6.504803895950e-001 -5.479148925781e+003
-6.575018763542e-001 -5.627287597656e+003
-6.645395159721e-001 -5.774356445313e+003
-6.715925931931e-001 -5.920417968750e+003
-6.787019371986e-001 -6.066117187500e+003
-6.857908368111e-001 -6.210129882813e+003
-6.929330825806e-001 -6.353941406250e+003
-7.000973820686e-001 -6.496793457031e+003
-7.072980999947e-001 -6.639041503906e+003
-7.144612073898e-001 -6.778975097656e+003
-7.216811180115e-001 -6.918486328125e+003
-7.289589643478e-001 -7.057404785156e+003
-7.361920475960e-001 -7.193792480469e+003
-7.434816360474e-001 -7.329469726563e+003
-7.507675886154e-001 -7.463223632813e+003
-7.581074833870e-001 -7.596161132813e+003
-7.653972506523e-001 -7.726396484375e+003
-7.727541327477e-001 -7.856083007813e+003
-7.801387310028e-001 -7.984495605469e+003
-7.874840497971e-001 -8.110551269531e+003
-7.948814034462e-001 -8.235724609375e+003
-8.023016452789e-001 -8.359718750000e+003
-8.097394704819e-001 -8.482417968750e+003
-8.171756267548e-001 -8.603498046875e+003
-8.246104717255e-001 -8.722987304688e+003
-8.320429921150e-001 -8.840920898438e+003
-8.395256996155e-001 -8.958149414063e+003
-8.470051288605e-001 -9.073794921875e+003
-8.544829487801e-001 -9.187904296875e+003
-8.619965910912e-001 -9.301029296875e+003
-8.695052862167e-001 -9.412705078125e+003
-8.770083189011e-001 -9.522946289063e+003
-8.845198154449e-001 -9.632177734375e+003
-8.920518159866e-001 -9.740662109375e+003
-8.995838165283e-001 -9.848234375000e+003
-9.071246981621e-001 -9.955215820313e+003
-9.146773815155e-001 -1.006185449219e+004
-9.222426414490e-001 -1.016816503906e+004
-9.298021197319e-001 -1.027387890625e+004
-9.373550415039e-001 -1.037895996094e+004
-9.449013471603e-001 -1.048327343750e+004
-9.524663090706e-001 -1.058702832031e+004
-9.600267410278e-001 -1.068966894531e+004
-9.676038026810e-001 -1.079137402344e+004
-9.751632809639e-001 -1.089153125000e+004
-9.827270507813e-001 -1.099043554688e+004
-9.902994036674e-001 -1.108818945313e+004
-9.978805184364e-001 -1.118476269531e+004
-1.005452275276e+000 -1.128000781250e+004
-1.013014554977e+000 -1.137382910156e+004
-1.020566821098e+000 -1.146636425781e+004
-1.028135061264e+000 -1.155784472656e+004
-1.035694360733e+000 -1.164790234375e+004
-1.043267607689e+000 -1.173657031250e+004
-1.050819039345e+000 -1.182331835938e+004
-1.058350324631e+000 -1.190800488281e+004
-1.065894722939e+000 -1.199093945313e+004
-1.073418855667e+000 -1.207166796875e+004
-1.080954313278e+000 -1.215038867188e+004
-1.088470220566e+000 -1.222664550781e+004
-1.095967650414e+000 -1.230056835938e+004
-1.103504061699e+000 -1.237272558594e+004
-1.110981702805e+000 -1.244228710938e+004
-1.118470788002e+000 -1.250995507813e+004
-1.125947117805e+000 -1.257537988281e+004
-1.133446455002e+000 -1.263888476563e+004
-1.140873670578e+000 -1.269971875000e+004
-1.148334741592e+000 -1.275873730469e+004
-1.155777096748e+000 -1.281548144531e+004
-1.163240671158e+000 -1.287014550781e+004
-1.170625448227e+000 -1.292202441406e+004
-1.178040027618e+000 -1.297208105469e+004
-1.185443520546e+000 -1.302013085938e+004
-1.192790031433e+000 -1.306602148438e+004
-1.200164437294e+000 -1.311035742188e+004
-1.207509517670e+000 -1.315291015625e+004
-1.214826107025e+000 -1.319391601563e+004
-1.222130417824e+000 -1.323356054688e+004
-1.229433059692e+000 -1.327201367188e+004
-1.236716985703e+000 -1.330925000000e+004
-1.243978142738e+000 -1.334533789063e+004
-1.251212239265e+000 -1.338035742188e+004
-1.258459448814e+000 -1.341457128906e+004
-1.265677094460e+000 -1.344786914063e+004
-1.272863626480e+000 -1.348031152344e+004
-1.280054211617e+000 -1.351209960938e+004
-1.287191629410e+000 -1.354305957031e+004
-1.294303297997e+000 -1.357342578125e+004
-1.301412463188e+000 -1.360337500000e+004
-1.308494329453e+000 -1.363293652344e+004
-1.315577268600e+000 -1.366230273438e+004
-1.322625756264e+000 -1.369137597656e+004
-1.329649448395e+000 -1.372021582031e+004
-1.336651206017e+000 -1.374877441406e+004
-1.343612790108e+000 -1.377689843750e+004
-1.350555777550e+000 -1.380455566406e+004
-1.357492923737e+000 -1.383165234375e+004
-1.364416480064e+000 -1.385797070313e+004
-1.371287822723e+000 -1.388318164063e+004
-1.378155112267e+000 -1.390721777344e+004
-1.384989380836e+000 -1.392978613281e+004
-1.391811013222e+000 -1.395080273438e+004
-1.398600935936e+000 -1.397009082031e+004
-1.405347347260e+000 -1.398752832031e+004
-1.412103652954e+000 -1.400314550781e+004
-1.418789386749e+000 -1.401671777344e+004
-1.425475120544e+000 -1.402846582031e+004
-1.432116270065e+000 -1.403827734375e+004
-1.438763380051e+000 -1.404614453125e+004
-1.445383429527e+000 -1.405185351563e+004
-1.451952815056e+000 -1.405519335938e+004
-1.458484411240e+000 -1.405609863281e+004
-1.465001821518e+000 -1.405438476563e+004
-1.471513628960e+000 -1.404983300781e+004
-1.477963805199e+000 -1.404223632813e+004
-1.484400033951e+000 -1.403133105469e+004
-1.490830898285e+000 -1.401708593750e+004
-1.497198700905e+000 -1.399956542969e+004
-1.503546237946e+000 -1.397863964844e+004
-1.509877681732e+000 -1.395423925781e+004
-1.516156554222e+000 -1.392650195313e+004
-1.522421360016e+000 -1.389549804688e+004
-1.528668403625e+000 -1.386133789063e+004
-1.534872651100e+000 -1.382429394531e+004
-1.541056275368e+000 -1.378427734375e+004
-1.547183513641e+000 -1.374166992188e+004
-1.553303003311e+000 -1.369638671875e+004
-1.559399604797e+000 -1.364874804688e+004
-1.565447330475e+000 -1.359918847656e+004
-1.571464538574e+000 -1.354780078125e+004
-1.577479124069e+000 -1.349465234375e+004
-1.583430290222e+000 -1.344066992188e+004
-1.589380979538e+000 -1.338558496094e+004
-1.595289468765e+000 -1.332998925781e+004
-1.601159572601e+000 -1.327395605469e+004
-1.607032895088e+000 -1.321714550781e+004
-1.612818956375e+000 -1.316046875000e+004
-1.618618249893e+000 -1.310280078125e+004
-1.624381184578e+000 -1.304454687500e+004
-1.630107641220e+000 -1.298550292969e+004
-1.635832667351e+000 -1.292521289063e+004
-1.641496896744e+000 -1.286426953125e+004
-1.647130131721e+000 -1.280246777344e+004
-1.652749538422e+000 -1.273962109375e+004
-1.658335208893e+000 -1.267593750000e+004
-1.663880825043e+000 -1.261152636719e+004
-1.669416069984e+000 -1.254601171875e+004
-1.674906730652e+000 -1.247966406250e+004
-1.680372595787e+000 -1.241213476563e+004
-1.685791730881e+000 -1.234332519531e+004
-1.691220760345e+000 -1.227200976563e+004
-1.696595549583e+000 -1.219876367188e+004
-1.701945900917e+000 -1.212270507813e+004
-1.707287311554e+000 -1.204306542969e+004
-1.712598323822e+000 -1.195962500000e+004
-1.717878580093e+000 -1.187153417969e+004
-1.723129510880e+000 -1.177846679688e+004
-1.728350639343e+000 -1.167993652344e+004
-1.733542084694e+000 -1.157548828125e+004
-1.738703846931e+000 -1.146454199219e+004
-1.743869662285e+000 -1.134562207031e+004
-1.748982310295e+000 -1.122009570313e+004
-1.754072666168e+000 -1.108699902344e+004
-1.759145736694e+000 -1.094622167969e+004
-1.764206051826e+000 -1.079742089844e+004
-1.769228935242e+000 -1.064137597656e+004
-1.774225592613e+000 -1.047842871094e+004
-1.779197454453e+000 -1.030908105469e+004
-1.784145355225e+000 -1.013387792969e+004
-1.789071917534e+000 -9.953252929688e+003
-1.794016122818e+000 -9.766248046875e+003
-1.798897147179e+000 -9.576797851563e+003
-1.803757548332e+000 -9.384142578125e+003
-1.808632135391e+000 -9.187505859375e+003
-1.813460230827e+000 -8.990220703125e+003
-1.818304061890e+000 -8.791093750000e+003
-1.823088765144e+000 -8.594230468750e+003
-1.827883839607e+000 -8.398351562500e+003
-1.832654356956e+000 -8.206071289063e+003
-1.837395310402e+000 -8.018620605469e+003
-1.842129945755e+000 -7.835849609375e+003
-1.846851706505e+000 -7.657628906250e+003
-1.851561188698e+000 -7.482423828125e+003
-1.856259822845e+000 -7.308119628906e+003
-1.860908269882e+000 -7.134503906250e+003
-1.865587711334e+000 -6.958152343750e+003
-1.870219230652e+000 -6.782833496094e+003
-1.874843716621e+000 -6.606996582031e+003
-1.879462361336e+000 -6.429548339844e+003
-1.884076476097e+000 -6.249800781250e+003
-1.888654708862e+000 -6.069356933594e+003
-1.893254280090e+000 -5.886677246094e+003
-1.897821903229e+000 -5.703308593750e+003
-1.902382731438e+000 -5.516485351563e+003
-1.906960487366e+000 -5.323742675781e+003
-1.911502957344e+000 -5.127350097656e+003
-1.916049122810e+000 -4.926725585938e+003
-1.920601010323e+000 -4.721439453125e+003
-1.925121307373e+000 -4.511312500000e+003
-1.929689168930e+000 -4.289990234375e+003
-1.934230089188e+000 -4.059281005859e+003
-1.938759803772e+000 -3.819145019531e+003
-1.943295836449e+000 -3.569420654297e+003
-1.947846412659e+000 -3.309635742188e+003
-1.952413082123e+000 -3.040139404297e+003
-1.956966996193e+000 -2.764732177734e+003
-1.961539387703e+000 -2.486411376953e+003
-1.966130971909e+000 -2.210063476563e+003
-1.970704793930e+000 -1.942157226563e+003
-1.975299954414e+000 -1.683286621094e+003
-1.979919195175e+000 -1.436076171875e+003
-1.984519839287e+000 -1.203307617188e+003
-1.989168882370e+000 -9.813180541992e+002
-1.993817806244e+000 -7.692864990234e+002
-1.998474955559e+000 -5.596864013672e+002
-2.003172159195e+000 -3.403846740723e+002
-2.007859706879e+000 -1.078141174316e+002
-2.012581348419e+000  1.353035430908e+002
-2.017322540283e+000  3.732828369141e+002
-2.022107601166e+000  5.924617919922e+002
-2.026907205582e+000  7.890092163086e+002
-2.031693696976e+000  9.757337036133e+002
-2.036539316177e+000  1.164001831055e+003
-2.041404485703e+000  1.344711669922e+003
-2.046305179596e+000  1.498446289063e+003
-2.051216125488e+000  1.602328491211e+003
-2.056125640869e+000  1.650630615234e+003
-2.061088085175e+000  1.638175903320e+003
-2.066065549850e+000  1.546195800781e+003
-2.071036815643e+000  1.342463989258e+003
-2.076014995575e+000  9.793246459961e+002
-2.080969572067e+000  4.443499755859e+002
-2.085889816284e+000 -2.503489837646e+002
-2.090759277344e+000 -1.071585205078e+003
-2.095565319061e+000 -1.982138916016e+003
-2.100283861160e+000 -2.951627929688e+003
-2.104901313782e+000 -3.946431396484e+003
-2.109405994415e+000 -4.921308105469e+003
-2.113789558411e+000 -5.812748046875e+003
-2.118083953857e+000 -6.562538085938e+003
-2.122245073318e+000 -7.115130859375e+003
-2.126297235489e+000 -7.476903320313e+003
-2.130293846130e+000 -7.657364257813e+003
-2.134229660034e+000 -7.647651367188e+003
-2.138130187988e+000 -7.436221191406e+003
-2.142029762268e+000 -7.019042968750e+003
-2.145930290222e+000 -6.452469726563e+003
-2.149858474731e+000 -5.800320800781e+003
-2.153812170029e+000 -5.116635742188e+003
-2.157807350159e+000 -4.427055664063e+003
-2.161826848984e+000 -3.752158203125e+003
-2.165870904922e+000 -3.118142333984e+003
-2.169954299927e+000 -2.558044189453e+003
-2.174040317535e+000 -2.101475341797e+003
-2.178134441376e+000 -1.751036865234e+003
-2.182221412659e+000 -1.498468383789e+003
-2.186318635941e+000 -1.327585083008e+003
-2.190370082855e+000 -1.237806640625e+003
-2.194425344467e+000 -1.228752929688e+003
-2.198441743851e+000 -1.292991577148e+003
-2.202461481094e+000 -1.414393188477e+003
-2.206455230713e+000 -1.570120483398e+003
-2.210462331772e+000 -1.752289428711e+003
-2.214452266693e+000 -1.958997924805e+003
-2.218441486359e+000 -2.190272460938e+003
-2.222397565842e+000 -2.438239013672e+003
-2.226408481598e+000 -2.700509033203e+003
-2.230387926102e+000 -2.973164794922e+003
-2.234402656555e+000 -3.271886718750e+003
-2.238378047943e+000 -3.603046630859e+003
-2.242391109467e+000 -3.977594970703e+003
-2.246375799179e+000 -4.383378417969e+003
-2.250374794006e+000 -4.820211425781e+003
-2.254379987717e+000 -5.292470214844e+003
-2.258374929428e+000 -5.804818359375e+003
-2.262354373932e+000 -6.355735839844e+003
-2.266319990158e+000 -6.927824707031e+003
-2.270285844803e+000 -7.503593261719e+003
-2.274241447449e+000 -8.073276367188e+003
-2.278167247772e+000 -8.635742187500e+003
-2.282089948654e+000 -9.197372070313e+003
-2.285989284515e+000 -9.745015625000e+003
-2.289864301682e+000 -1.026003125000e+004
-2.293711900711e+000 -1.072805957031e+004
-2.297545433044e+000 -1.115534277344e+004
-2.301357746124e+000 -1.154460449219e+004
-2.305119514465e+000 -1.190217382813e+004
-2.308858871460e+000 -1.221966992188e+004
-2.312562465668e+000 -1.248451855469e+004
-2.316243648529e+000 -1.269343750000e+004
-2.319893121719e+000 -1.285771582031e+004
-2.323500633240e+000 -1.299476464844e+004
-2.327064752579e+000 -1.310871679688e+004
-2.330610036850e+000 -1.319196289063e+004
-2.334114789963e+000 -1.323860156250e+004
-2.337584018707e+000 -1.325566699219e+004
-2.341012001038e+000 -1.326303710938e+004
-2.344403028488e+000 -1.327275878906e+004
-2.347743272781e+000 -1.328167285156e+004
-2.351066350937e+000 -1.327926464844e+004
-2.354342937469e+000 -1.326121191406e+004
-2.357573986053e+000 -1.323859082031e+004
-2.360759735107e+000 -1.322500292969e+004
-2.363925695419e+000 -1.322351660156e+004
-2.367036819458e+000 -1.322661425781e+004
-2.370113372803e+000 -1.322665429688e+004
-2.373169422150e+000 -1.322926855469e+004
-2.376160621643e+000 -1.324938281250e+004
-2.379119157791e+000 -1.329716113281e+004
-2.382050275803e+000 -1.337210058594e+004
-2.384938716888e+000 -1.346563867188e+004
-2.387779712677e+000 -1.357629492188e+004
-2.390583515167e+000 -1.371277539063e+004
-2.393343687057e+000 -1.388385253906e+004
-2.396069288254e+000 -1.408668750000e+004
-2.398741960526e+000 -1.430664355469e+004
-2.401367425919e+000 -1.452813671875e+004
-2.403967618942e+000 -1.475317675781e+004
-2.406498193741e+000 -1.498345996094e+004
-2.408990144730e+000 -1.522283105469e+004
-2.411429882050e+000 -1.546051367188e+004
-2.413824081421e+000 -1.568293945313e+004
-2.416159868240e+000 -1.588764453125e+004
-2.418445825577e+000 -1.608536523438e+004
-2.420676946640e+000 -1.628573730469e+004
-2.422846317291e+000 -1.648754101563e+004
-2.424971342087e+000 -1.668219140625e+004
-2.427034378052e+000 -1.686004882813e+004
-2.429036617279e+000 -1.702571484375e+004
-2.430993318558e+000 -1.719141210938e+004
-2.432878971100e+000 -1.736123828125e+004
-2.434710502625e+000 -1.752540625000e+004
-2.436481237411e+000 -1.767117773438e+004
-2.438192367554e+000 -1.779412304688e+004
-2.439841270447e+000 -1.790146679688e+004
-2.441434144974e+000 -1.800297656250e+004
-2.442960500717e+000 -1.809565039063e+004
-2.444432735443e+000 -1.816789843750e+004
-2.445833683014e+000 -1.821216406250e+004
-2.447183370590e+000 -1.823451367188e+004
-2.448462247849e+000 -1.824759375000e+004
-2.449674129486e+000 -1.825834375000e+004
-2.450832366943e+000 -1.826028320313e+004
-2.451922655106e+000 -1.824392187500e+004
-2.452954769135e+000 -1.820876562500e+004
-2.453916788101e+000 -1.816574414063e+004
-2.454816102982e+000 -1.812563281250e+004
-2.455652475357e+000 -1.808714648438e+004
-2.456423282623e+000 -1.804017773438e+004
-2.457128763199e+000 -1.797901367188e+004
-2.457772493362e+000 -1.791043359375e+004
-2.458344459534e+000 -1.784977539063e+004
-2.458859205246e+000 -1.780212304688e+004
-2.459307909012e+000 -1.776170507813e+004
-2.459696054459e+000 -1.771832031250e+004
-2.460017442703e+000 -1.767162890625e+004
-2.460275411606e+000 -1.763155859375e+004
-2.460471868515e+000 -1.760675976563e+004
-2.460607051849e+000 -1.759284960938e+004
-2.460680961609e+000 -1.757824023438e+004
-2.460693597794e+000 -1.755575390625e+004
-2.460642814636e+000 -1.753149218750e+004
-2.460531949997e+000 -1.751787109375e+004
-2.460360765457e+000 -1.751804101563e+004
-2.460128784180e+000 -1.752464843750e+004
-2.459835052490e+000 -1.752862304688e+004
-2.459481716156e+000 -1.753179492188e+004
-2.459066152573e+000 -1.754655078125e+004
-2.458592414856e+000 -1.758107031250e+004
-2.458054780960e+000 -1.763260546875e+004
-2.457455396652e+000 -1.768939062500e+004
-2.456794261932e+000 -1.774465039063e+004
-2.456067323685e+000 -1.780504492188e+004
-2.455276727676e+000 -1.787976562500e+004
-2.454427242279e+000 -1.796903710938e+004
-2.453505516052e+000 -1.806437890625e+004
-2.452522993088e+000 -1.815168164063e+004
-2.451473951340e+000 -1.823087304688e+004
-2.450364351273e+000 -1.830951171875e+004
-2.449185371399e+000 -1.839484765625e+004
-2.447940111160e+000 -1.848240820313e+004
-2.446634292603e+000 -1.855947460938e+004
-2.445253849030e+000 -1.862122460938e+004
-2.443806409836e+000 -1.867170898438e+004
-2.442292451859e+000 -1.871938867188e+004
-2.440721273422e+000 -1.876670507813e+004
-2.439065933228e+000 -1.880575000000e+004
-2.437354564667e+000 -1.882874609375e+004
-2.435578107834e+000 -1.883648242188e+004
-2.433727979660e+000 -1.883630273438e+004
-2.431821107864e+000 -1.883317968750e+004
-2.429848432541e+000 -1.882151171875e+004
-2.427798032761e+000 -1.879061914063e+004
-2.425695180893e+000 -1.873563085938e+004
-2.423520565033e+000 -1.865913476563e+004
-2.421275854111e+000 -1.856750390625e+004
-2.418964862823e+000 -1.845983593750e+004
-2.416588306427e+000 -1.832902929688e+004
-2.414155721664e+000 -1.817181445313e+004
-2.411648511887e+000 -1.799117968750e+004
-2.409081697464e+000 -1.779984375000e+004
-2.406449317932e+000 -1.760737109375e+004
-2.403750658035e+000 -1.741380664063e+004
-2.400997161865e+000 -1.721667382813e+004
-2.398187637329e+000 -1.701551562500e+004
-2.395308732986e+000 -1.681842578125e+004
-2.392388105392e+000 -1.664068750000e+004
-2.389400482178e+000 -1.648119921875e+004
-2.386368274689e+000 -1.633547949219e+004
-2.383265256882e+000 -1.619700195313e+004
-2.380133628845e+000 -1.606800976563e+004
-2.376936435699e+000 -1.595428125000e+004
-2.373681545258e+000 -1.585940429688e+004
-2.370369911194e+000 -1.577865917969e+004
-2.367032527924e+000 -1.570421875000e+004
-2.363626003265e+000 -1.562920605469e+004
-2.360154628754e+000 -1.555700097656e+004
-2.356650590897e+000 -1.549315917969e+004
-2.353092193604e+000 -1.543702441406e+004
-2.349489927292e+000 -1.538328613281e+004
-2.345856666565e+000 -1.532666406250e+004
-2.342138767242e+000 -1.526733886719e+004
-2.338376283646e+000 -1.521369433594e+004
-2.334575653076e+000 -1.517202343750e+004
-2.330737590790e+000 -1.514250878906e+004
-2.326826810837e+000 -1.512169433594e+004
-2.322868585587e+000 -1.510916210938e+004
-2.318857908249e+000 -1.510944335938e+004
-2.314799308777e+000 -1.512799511719e+004
-2.310716152191e+000 -1.516364160156e+004
-2.306543111801e+000 -1.520917578125e+004
-2.302360773087e+000 -1.525299902344e+004
-2.298111200333e+000 -1.529049707031e+004
-2.293831110001e+000 -1.532103613281e+004
-2.289491891861e+000 -1.534279394531e+004
-2.285116434097e+000 -1.534860839844e+004
-2.280693769455e+000 -1.532572949219e+004
-2.276221036911e+000 -1.526896972656e+004
-2.271686792374e+000 -1.517872851563e+004
-2.267113924026e+000 -1.505827832031e+004
-2.262494325638e+000 -1.490567089844e+004
-2.257846355438e+000 -1.471238281250e+004
-2.253142833710e+000 -1.447559863281e+004
-2.248412609100e+000 -1.420064355469e+004
-2.243631601334e+000 -1.389261816406e+004
-2.238841533661e+000 -1.356301562500e+004
-2.233963966370e+000 -1.320802832031e+004
-2.229097604752e+000 -1.283380468750e+004
-2.224163770676e+000 -1.243434570313e+004
-2.219218730927e+000 -1.202606835938e+004
-2.214240550995e+000 -1.161647949219e+004
-2.209200859070e+000 -1.120384472656e+004
-2.204146623611e+000 -1.079117871094e+004
-2.199074506760e+000 -1.037723632813e+004
-2.193973541260e+000 -9.959743164063e+003
-2.188854217529e+000 -9.550143554688e+003
-2.183704614639e+000 -9.155997070313e+003
-2.178499698639e+000 -8.769203125000e+003
-2.173324584961e+000 -8.396279296875e+003
-2.168091058731e+000 -8.029726562500e+003
-2.162868738174e+000 -7.681325683594e+003
-2.157609224319e+000 -7.362569824219e+003
-2.152347087860e+000 -7.077535644531e+003
-2.147063016891e+000 -6.824286132813e+003
-2.141756057739e+000 -6.599664550781e+003
-2.136476039886e+000 -6.408464355469e+003
-2.131153821945e+000 -6.256714355469e+003
-2.125815868378e+000 -6.147266601563e+003
-2.120474100113e+000 -6.075390625000e+003
-2.115141391754e+000 -6.033870605469e+003
-2.109825134277e+000 -6.015812500000e+003
-2.104449510574e+000 -6.020627929688e+003
-2.099088430405e+000 -6.045858398438e+003
-2.093725442886e+000 -6.083784179688e+003
-2.088362216949e+000 -6.120724121094e+003
-2.082980632782e+000 -6.143264648438e+003
-2.077584266663e+000 -6.140390625000e+003
-2.072179794312e+000 -6.107868652344e+003
-2.066809415817e+000 -6.039412597656e+003
-2.061388731003e+000 -5.921291503906e+003
-2.055941581726e+000 -5.739802734375e+003
-2.050549268723e+000 -5.481498535156e+003
-2.045112609863e+000 -5.141423339844e+003
-2.039706468582e+000 -4.722757324219e+003
-2.034278154373e+000 -4.219845703125e+003
-2.028832674026e+000 -3.625113769531e+003
-2.023443698883e+000 -2.944332519531e+003
-2.017997026443e+000 -2.177012451172e+003
-2.012631416321e+000 -1.359487915039e+003
-2.007213592529e+000 -4.932083129883e+002
-2.001859903336e+000  3.863882751465e+002
-1.996502161026e+000  1.278650390625e+003
-1.991142868996e+000  2.163785644531e+003
-1.985832691193e+000  3.008210449219e+003
-1.980538606644e+000  3.804423095703e+003
-1.975275993347e+000  4.532090820313e+003
-1.970029234886e+000  5.188888183594e+003
-1.964801907539e+000  5.769067871094e+003
-1.959593415260e+000  6.269614746094e+003
-1.954449415207e+000  6.677621093750e+003
-1.949327588081e+000  6.998864257813e+003
-1.944228768349e+000  7.236264648438e+003
-1.939170718193e+000  7.404206542969e+003
-1.934153199196e+000  7.512914550781e+003
-1.929216027260e+000  7.569550781250e+003
-1.924301743507e+000  7.582110351563e+003
-1.919410586357e+000  7.558350585938e+003
-1.914578676224e+000  7.509430175781e+003
-1.909805178642e+000  7.441907714844e+003
-1.905069828033e+000  7.356918457031e+003
-1.900393724442e+000  7.256023925781e+003
-1.895740032196e+000  7.142021972656e+003
-1.891136169434e+000  7.024307128906e+003
-1.886569619179e+000  6.912906738281e+003
-1.882066726685e+000  6.816966796875e+003
-1.877589225769e+000  6.745477050781e+003
-1.873143076897e+000  6.714589355469e+003
-1.868763089180e+000  6.743598632813e+003
-1.864416599274e+000  6.850717285156e+003
-1.860114336014e+000  7.050044433594e+003
-1.855868577957e+000  7.354198730469e+003
-1.851662516594e+000  7.778381347656e+003
-1.847496390343e+000  8.334374023438e+003
-1.843399763107e+000  9.021773437500e+003
-1.839351534843e+000  9.838006835938e+003
-1.835327267647e+000  1.077577343750e+004
-1.831374764442e+000  1.179620996094e+004
-1.827493667603e+000  1.285756445313e+004
-1.823626637459e+000  1.394226464844e+004
-1.819845438004e+000  1.499120410156e+004
-1.816112756729e+000  1.597227441406e+004
-1.812432765961e+000  1.684983789063e+004
-1.808811664581e+000  1.759140820313e+004
-1.805244207382e+000  1.817705859375e+004
-1.801761150360e+000  1.860210156250e+004
-1.798323631287e+000  1.886864453125e+004
-1.794929027557e+000  1.897150585938e+004
-1.791608333588e+000  1.891804687500e+004
-1.788361668587e+000  1.872738867188e+004
-1.785142421722e+000  1.841396679688e+004
-1.781991362572e+000  1.800509179688e+004
-1.778884768486e+000  1.752138476563e+004
-1.775821208954e+000  1.699032421875e+004
-1.772809267044e+000  1.644271093750e+004
-1.769836068153e+000  1.589290527344e+004
-1.766883730888e+000  1.536543652344e+004
-1.763988375664e+000  1.487744140625e+004
-1.761113047600e+000  1.443510742188e+004
-1.758255720139e+000  1.404443652344e+004
-1.755422353745e+000  1.371545117188e+004
-1.752618074417e+000  1.345025195313e+004
-1.749851346016e+000  1.325697265625e+004
-1.747085571289e+000  1.314111328125e+004
-1.744355201721e+000  1.311514648438e+004
-1.741644024849e+000  1.319309375000e+004
-1.738948822021e+000  1.339227148438e+004
-1.736310958862e+000  1.372638964844e+004
-1.733687281609e+000  1.420893164063e+004
-1.731103897095e+000  1.483032031250e+004
-1.728563189507e+000  1.558566699219e+004
-1.726072669029e+000  1.645403710938e+004
-1.723624229431e+000  1.741792187500e+004
-1.721221566200e+000  1.842669531250e+004
-1.718866586685e+000  1.942699218750e+004
-1.716576457024e+000  2.035318359375e+004
-1.714321255684e+000  2.117379687500e+004
-1.712134122849e+000  2.182626953125e+004
-1.710004329681e+000  2.227888867188e+004
-1.707928299904e+000  2.251606835938e+004
-1.705911159515e+000  2.253221289063e+004
-1.703947186470e+000  2.233415234375e+004
-1.702040672302e+000  2.193692187500e+004
-1.700191140175e+000  2.137221484375e+004
-1.698391556740e+000  2.067558789063e+004
-1.696655631065e+000  1.988700390625e+004
-1.694961905479e+000  1.902060546875e+004
-1.693331718445e+000  1.812698437500e+004
-1.691753506660e+000  1.722660937500e+004
-1.690225839615e+000  1.635322949219e+004
-1.688756227493e+000  1.552913281250e+004
-1.687332987785e+000  1.476506445313e+004
-1.685967922211e+000  1.408520019531e+004
-1.684654474258e+000  1.349134765625e+004
-1.683394789696e+000  1.299776953125e+004
-1.682187914848e+000  1.260322167969e+004
-1.681031346321e+000  1.230983105469e+004
-1.679927349091e+000  1.211666015625e+004
-1.678875923157e+000  1.202602734375e+004
-1.677873015404e+000  1.203597558594e+004
-1.676921486855e+000  1.214610546875e+004
-1.676022768021e+000  1.235338085938e+004
-1.675175070763e+000  1.265993066406e+004
-1.674374222755e+000  1.306368652344e+004
-1.673626661301e+000  1.354984960938e+004
-1.672932386398e+000  1.410379589844e+004
-1.672286868095e+000  1.470697167969e+004
-1.671698093414e+000  1.531446777344e+004
-1.671162724495e+000  1.589084179688e+004
-1.670681715012e+000  1.638747070313e+004
-1.670256733894e+000  1.676016601563e+004
-1.669886350632e+000  1.697382812500e+004
-1.669573187828e+000  1.699288085938e+004
-1.669319510460e+000  1.679636718750e+004
-1.669122695923e+000  1.639680664063e+004
-1.668982863426e+000  1.580591113281e+004
-1.668899297714e+000  1.504925976563e+004
-1.668872356415e+000  1.415429687500e+004
-1.668901443481e+000  1.315475195313e+004
-1.668982863426e+000  1.208657128906e+004
-1.669112920761e+000  1.099050195313e+004
-1.669291138649e+000  9.888825195313e+003
-1.669513940811e+000  8.822276367188e+003
-1.669778704643e+000  7.803151367188e+003
-1.670082330704e+000  6.857919433594e+003
-1.670422315598e+000  5.993746093750e+003
-1.670792698860e+000  5.247080566406e+003
-1.671192884445e+000  4.617849121094e+003
-1.671625256538e+000  4.116437011719e+003
-1.672083497047e+000  3.737285888672e+003
-1.672566413879e+000  3.472842285156e+003
-1.673076033592e+000  3.315660156250e+003
-1.673606038094e+000  3.256687988281e+003
-1.674162507057e+000  3.281616943359e+003
-1.674739360809e+000  3.368882324219e+003
-1.675333738327e+000  3.500124755859e+003
-1.675948619843e+000  3.658905273438e+003
-1.676579236984e+000  3.830976318359e+003
-1.677230238914e+000  4.002627441406e+003
-1.677895784378e+000  4.157309082031e+003
-1.678578972816e+000  4.282460937500e+003
-1.679283261299e+000  4.363895019531e+003
-1.680005192757e+000  4.387119140625e+003
-1.680747509003e+000  4.337619140625e+003
-1.681515693665e+000  4.204455078125e+003
-1.682302236557e+000  3.979303222656e+003
-1.683110833168e+000  3.651637939453e+003
-1.683939337730e+000  3.216955078125e+003
-1.684791803360e+000  2.675291503906e+003
-1.685661077499e+000  2.038787475586e+003
-1.686550736427e+000  1.313246704102e+003
-1.687459588051e+000  5.156123046875e+002
-1.688376307487e+000 -3.387342834473e+002
-1.689304828644e+000 -1.232760131836e+003
-1.690237998962e+000 -2.140583984375e+003
-1.691172361374e+000 -3.038747558594e+003
-1.692104935646e+000 -3.913882080078e+003
-1.693026661873e+000 -4.744531250000e+003
-1.693943381310e+000 -5.504830078125e+003
-1.694850683212e+000 -6.190536132813e+003
-1.695736527443e+000 -6.782736328125e+003
-1.696604967117e+000 -7.282066894531e+003
-1.697445869446e+000 -7.690284667969e+003
-1.698264360428e+000 -8.014980957031e+003
-1.699059605598e+000 -8.268433593750e+003
-1.699831008911e+000 -8.461703125000e+003
-1.700571060181e+000 -8.609041015625e+003
-1.701288819313e+000 -8.726473632813e+003
-1.701979637146e+000 -8.823397460938e+003
-1.702648043633e+000 -8.905463867188e+003
-1.703292131424e+000 -8.973805664063e+003
-1.703907251358e+000 -9.030294921875e+003
-1.704502463341e+000 -9.078862304688e+003
-1.705067873001e+000 -9.120532226563e+003
-1.705607414246e+000 -9.155360351563e+003
-1.706123352051e+000 -9.183587890625e+003
-1.706614375114e+000 -9.209694335938e+003
-1.707075476646e+000 -9.243511718750e+003
-1.707512378693e+000 -9.301570312500e+003
-1.707915544510e+000 -9.395315429688e+003
-1.708290815353e+000 -9.536854492188e+003
-1.708634495735e+000 -9.736755859375e+003
-1.708945393562e+000 -1.000150390625e+004
-1.709219574928e+000 -1.034072265625e+004
-1.709456324577e+000 -1.074570214844e+004
-1.709655642509e+000 -1.120903906250e+004
-1.709814548492e+000 -1.170995117188e+004
-1.709930539131e+000 -1.223271093750e+004
-1.709998607635e+000 -1.276139941406e+004
-1.710019707680e+000 -1.328186914063e+004
-1.709992527962e+000 -1.378676464844e+004
-1.709915161133e+000 -1.426375781250e+004
-1.709786415100e+000 -1.470515527344e+004
-1.709601998329e+000 -1.509943066406e+004
-1.709364175797e+000 -1.544885644531e+004
-1.709070205688e+000 -1.575338769531e+004
-1.708721876144e+000 -1.600677246094e+004
-1.708314299583e+000 -1.621053320313e+004
-1.707844972610e+000 -1.636422167969e+004
-1.707320928574e+000 -1.647518750000e+004
-1.706735968590e+000 -1.655464648438e+004
-1.706094026566e+000 -1.660892578125e+004
-1.705392837524e+000 -1.664427343750e+004
-1.704628705978e+000 -1.666436718750e+004
-1.703806996346e+000 -1.667625585938e+004
-1.702927470207e+000 -1.668597851563e+004
-1.701983451843e+000 -1.669788671875e+004
-1.700980544090e+000 -1.671282421875e+004
-1.699912428856e+000 -1.672852734375e+004
-1.698786735535e+000 -1.674222460938e+004
-1.697597026825e+000 -1.675277148438e+004
-1.696346759796e+000 -1.675942187500e+004
-1.695041537285e+000 -1.676039453125e+004
-1.693675875664e+000 -1.675200195313e+004
-1.692240476608e+000 -1.673306640625e+004
-1.690754771233e+000 -1.670659179688e+004
-1.689205050468e+000 -1.667906640625e+004
-1.687603116035e+000 -1.665871875000e+004
-1.685925841331e+000 -1.665436914063e+004
-1.684172272682e+000 -1.667221484375e+004
-1.682349801064e+000 -1.671940234375e+004
-1.680453777313e+000 -1.680344335938e+004
-1.678455710411e+000 -1.693094531250e+004
-1.676350831985e+000 -1.710581250000e+004
-1.674133300781e+000 -1.732042382813e+004
-1.671802520752e+000 -1.756626757813e+004
-1.669359445572e+000 -1.783428906250e+004
-1.666845083237e+000 -1.811415234375e+004
-1.664252996445e+000 -1.840035937500e+004
-1.661651015282e+000 -1.867624414063e+004
-1.659124970436e+000 -1.892957226563e+004
-1.656756043434e+000 -1.914826562500e+004
-1.654629707336e+000 -1.932721679688e+004
-1.652875900269e+000 -1.945858007813e+004
-1.651582479477e+000 -1.954691796875e+004
-1.650764703751e+000 -1.959793750000e+004
-1.650395989418e+000 -1.961908007813e+004
-1.650324225426e+000 -1.962288281250e+004
endcurve
