Curveplot
LS-DYNA keyword deck by LS-PrePost
Abscissa
Ordinate
XY data
NBDLHeadxCoo-1 #pts=2000
* Minval=     3.8422401428e+01 at time=         0.0000000000
* Maxval=     2.7483901978e+02 at time=       159.4003601074
    0.0000000000e+00    3.8422401428e+01
    9.9464751780e-02    3.8422401428e+01
    1.9892950356e-01    3.8422401428e+01
    2.9839426279e-01    3.8422401428e+01
    3.9954483509e-01    3.8422401428e+01
    4.9900957942e-01    3.8422401428e+01
    5.9847432375e-01    3.8422401428e+01
    6.9962495565e-01    3.8422401428e+01
    7.9908967018e-01    3.8422401428e+01
    8.9855444431e-01    3.8422401428e+01
    9.9970501661e-01    3.8422401428e+01
    1.0991698503e+00    3.8422500610e+01
    1.1986345053e+00    3.8422500610e+01
    1.2997851372e+00    3.8422500610e+01
    1.3992499113e+00    3.8422500610e+01
    1.4987145662e+00    3.8422599792e+01
    1.5998651981e+00    3.8422599792e+01
    1.6993299723e+00    3.8422599792e+01
    1.7987947464e+00    3.8422698975e+01
    1.8999452591e+00    3.8422698975e+01
    1.9994101524e+00    3.8422798157e+01
    2.0988748074e+00    3.8422798157e+01
    2.1986999512e+00    3.8422798157e+01
    2.2986774445e+00    3.8422897339e+01
    2.3991062641e+00    3.8423000336e+01
    2.4991796017e+00    3.8423000336e+01
    2.5991067886e+00    3.8423099518e+01
    2.6998288631e+00    3.8423099518e+01
    2.7997393608e+00    3.8423202515e+01
    2.8984272480e+00    3.8423301697e+01
    2.9986796379e+00    3.8423400879e+01
    3.0987458229e+00    3.8423400879e+01
    3.1986906528e+00    3.8423500061e+01
    3.2984702587e+00    3.8423599243e+01
    3.3986670971e+00    3.8423698425e+01
    3.4991137981e+00    3.8423797607e+01
    3.5996179581e+00    3.8423900604e+01
    3.6997365952e+00    3.8423999786e+01
    3.7986326218e+00    3.8424098969e+01
    3.8987827301e+00    3.8424201965e+01
    3.9992113113e+00    3.8424301147e+01
    4.0991363525e+00    3.8424400330e+01
    4.1998057365e+00    3.8424499512e+01
    4.2995815277e+00    3.8424697876e+01
    4.3986425400e+00    3.8424797058e+01
    4.4988527298e+00    3.8424900055e+01
    4.5992980003e+00    3.8424999237e+01
    4.6995530128e+00    3.8425201416e+01
    4.7995667458e+00    3.8425300598e+01
    4.8994250298e+00    3.8425399780e+01
    4.9985380173e+00    3.8425598145e+01
    5.0985069275e+00    3.8425697327e+01
    5.1990633011e+00    3.8425899506e+01
    5.2988147736e+00    3.8426002502e+01
    5.3990836143e+00    3.8426200867e+01
    5.4991669655e+00    3.8426399231e+01
    5.5992689133e+00    3.8426498413e+01
    5.6996831894e+00    3.8426700592e+01
    5.7993988991e+00    3.8426898956e+01
    5.8999910355e+00    3.8427001953e+01
    5.9985179901e+00    3.8427200317e+01
    6.0984907150e+00    3.8427398682e+01
    6.1985912323e+00    3.8427597046e+01
    6.2984848022e+00    3.8427799225e+01
    6.3987789154e+00    3.8428001404e+01
    6.4990863800e+00    3.8428199768e+01
    6.5991644859e+00    3.8428398132e+01
    6.6992373466e+00    3.8428600311e+01
    6.7991309166e+00    3.8428802490e+01
    6.8989009857e+00    3.8429000854e+01
    6.9993338585e+00    3.8429199219e+01
    7.0992593765e+00    3.8429500580e+01
    7.1992936134e+00    3.8429698944e+01
    7.2992873192e+00    3.8429901123e+01
    7.3995070457e+00    3.8430198669e+01
    7.4983577728e+00    3.8430397034e+01
    7.5987811089e+00    3.8430599213e+01
    7.6988120079e+00    3.8430900574e+01
    7.7988924980e+00    3.8431098938e+01
    7.8991446495e+00    3.8431400299e+01
    7.9993166924e+00    3.8431602478e+01
    8.0983161926e+00    3.8431900024e+01
    8.1983575821e+00    3.8432197571e+01
    8.2987556458e+00    3.8432399750e+01
    8.3990488052e+00    3.8432701111e+01
    8.4994640350e+00    3.8432998657e+01
    8.5996160507e+00    3.8433300018e+01
    8.6984224319e+00    3.8433601379e+01
    8.7985639572e+00    3.8433898926e+01
    8.8987340927e+00    3.8434200287e+01
    8.9986667633e+00    3.8434501648e+01
    9.0984945297e+00    3.8434799194e+01
    9.1986894608e+00    3.8435100555e+01
    9.2992496490e+00    3.8435401917e+01
    9.3990201950e+00    3.8435699463e+01
    9.4991378784e+00    3.8436000824e+01
    9.5992937088e+00    3.8436401367e+01
    9.6990938187e+00    3.8436698914e+01
    9.7994260788e+00    3.8437000275e+01
    9.8993768692e+00    3.8437400818e+01
    9.9983377457e+00    3.8437698364e+01
    1.0099888802e+01    3.8437999725e+01
    1.0198369026e+01    3.8438400269e+01
    1.0298269272e+01    3.8438697815e+01
    1.0398350716e+01    3.8439102173e+01
    1.0498525620e+01    3.8439498901e+01
    1.0599317551e+01    3.8439800262e+01
    1.0699114799e+01    3.8440200806e+01
    1.0799380302e+01    3.8440498352e+01
    1.0899209976e+01    3.8440898895e+01
    1.0999124527e+01    3.8441299438e+01
    1.1099720001e+01    3.8441699982e+01
    1.1199398041e+01    3.8442100525e+01
    1.1299745560e+01    3.8442501068e+01
    1.1399800301e+01    3.8442901611e+01
    1.1498391151e+01    3.8443298340e+01
    1.1598672867e+01    3.8443698883e+01
    1.1698787689e+01    3.8444099426e+01
    1.1799027443e+01    3.8444499969e+01
    1.1899182320e+01    3.8444999695e+01
    1.1998995781e+01    3.8445400238e+01
    1.2099605560e+01    3.8445800781e+01
    1.2199348450e+01    3.8446197510e+01
    1.2299118996e+01    3.8446601868e+01
    1.2399628639e+01    3.8447097778e+01
    1.2499684334e+01    3.8447502136e+01
    1.2599778175e+01    3.8447998047e+01
    1.2698471069e+01    3.8448501587e+01
    1.2798683167e+01    3.8448898315e+01
    1.2898857117e+01    3.8449401855e+01
    1.2998766899e+01    3.8449897766e+01
    1.3098667145e+01    3.8450401306e+01
    1.3198554039e+01    3.8450798035e+01
    1.3298697472e+01    3.8451301575e+01
    1.3398798943e+01    3.8451801300e+01
    1.3499077797e+01    3.8452301025e+01
    1.3599443436e+01    3.8452800751e+01
    1.3699421883e+01    3.8453300476e+01
    1.3799566269e+01    3.8453800201e+01
    1.3899280548e+01    3.8454299927e+01
    1.3999036789e+01    3.8454799652e+01
    1.4099461555e+01    3.8455299377e+01
    1.4199855804e+01    3.8455902100e+01
    1.4299873352e+01    3.8456401825e+01
    1.4398596764e+01    3.8456901550e+01
    1.4498551369e+01    3.8457500458e+01
    1.4598521233e+01    3.8458000183e+01
    1.4699049950e+01    3.8458499908e+01
    1.4798724174e+01    3.8459098816e+01
    1.4899067879e+01    3.8459701538e+01
    1.4998707771e+01    3.8460300446e+01
    1.5098816872e+01    3.8460800171e+01
    1.5198865891e+01    3.8461299896e+01
    1.5298967361e+01    3.8461898804e+01
    1.5399066925e+01    3.8462501526e+01
    1.5498840332e+01    3.8463100433e+01
    1.5599705696e+01    3.8463798523e+01
    1.5699791908e+01    3.8464302063e+01
    1.5799840927e+01    3.8464897156e+01
    1.5899585724e+01    3.8465499878e+01
    1.5999482155e+01    3.8466201782e+01
    1.6099969864e+01    3.8466701508e+01
    1.6199874878e+01    3.8467300415e+01
    1.6299743652e+01    3.8467998505e+01
    1.6398675919e+01    3.8468601227e+01
    1.6498781204e+01    3.8469200134e+01
    1.6598438263e+01    3.8469902039e+01
    1.6699960709e+01    3.8470497131e+01
    1.6799886703e+01    3.8471199036e+01
    1.6898889542e+01    3.8471801758e+01
    1.6998659134e+01    3.8472499847e+01
    1.7099193573e+01    3.8473197937e+01
    1.7199359894e+01    3.8473899841e+01
    1.7299789429e+01    3.8474498749e+01
    1.7399484634e+01    3.8475200653e+01
    1.7499639511e+01    3.8475898743e+01
    1.7598409653e+01    3.8476501465e+01
    1.7698425293e+01    3.8477199554e+01
    1.7799877167e+01    3.8478000641e+01
    1.7898601532e+01    3.8478599548e+01
    1.7998731613e+01    3.8479400635e+01
    1.8098480225e+01    3.8480098724e+01
    1.8198526382e+01    3.8480800629e+01
    1.8298828125e+01    3.8481498718e+01
    1.8399112701e+01    3.8482299805e+01
    1.8499082565e+01    3.8482997894e+01
    1.8599678040e+01    3.8483699799e+01
    1.8698446274e+01    3.8484397888e+01
    1.8799272537e+01    3.8485198975e+01
    1.8899482727e+01    3.8486000061e+01
    1.8999813080e+01    3.8486701965e+01
    1.9099657059e+01    3.8487503052e+01
    1.9199693680e+01    3.8488201141e+01
    1.9299743652e+01    3.8488998413e+01
    1.9398843765e+01    3.8489799500e+01
    1.9499185562e+01    3.8490600586e+01
    1.9599376678e+01    3.8491298676e+01
    1.9699180603e+01    3.8492198944e+01
    1.9799371719e+01    3.8493000031e+01
    1.9899133682e+01    3.8493797302e+01
    1.9999694824e+01    3.8494598389e+01
    2.0099786758e+01    3.8495399475e+01
    2.0199699402e+01    3.8496299744e+01
    2.0298925400e+01    3.8497001648e+01
    2.0398746490e+01    3.8497802734e+01
    2.0499288559e+01    3.8498703003e+01
    2.0599138260e+01    3.8499500275e+01
    2.0698930740e+01    3.8500400543e+01
    2.0798713684e+01    3.8501197815e+01
    2.0898670197e+01    3.8502098083e+01
    2.0998989105e+01    3.8502899170e+01
    2.1099498749e+01    3.8503799438e+01
    2.1198448181e+01    3.8504699707e+01
    2.1298379898e+01    3.8505500793e+01
    2.1398607254e+01    3.8506500244e+01
    2.1498777390e+01    3.8507301331e+01
    2.1599153519e+01    3.8508201599e+01
    2.1699134827e+01    3.8509201050e+01
    2.1799959183e+01    3.8510002136e+01
    2.1898487091e+01    3.8510902405e+01
    2.1999759674e+01    3.8511901855e+01
    2.2100013733e+01    3.8512798309e+01
    2.2198736191e+01    3.8513702393e+01
    2.2298849106e+01    3.8514701843e+01
    2.2399023056e+01    3.8515598297e+01
    2.2499322891e+01    3.8516502380e+01
    2.2599504471e+01    3.8517402649e+01
    2.2698635101e+01    3.8518402100e+01
    2.2799161911e+01    3.8519401550e+01
    2.2899148941e+01    3.8520301819e+01
    2.2999515533e+01    3.8521198273e+01
    2.3099327087e+01    3.8522300720e+01
    2.3199447632e+01    3.8523200989e+01
    2.3299777985e+01    3.8524200439e+01
    2.3398378372e+01    3.8525199890e+01
    2.3499862671e+01    3.8526199341e+01
    2.3598663330e+01    3.8527099609e+01
    2.3698713303e+01    3.8528099060e+01
    2.3798517227e+01    3.8529197693e+01
    2.3898586273e+01    3.8530200958e+01
    2.3999416351e+01    3.8531200409e+01
    2.4098491669e+01    3.8532199860e+01
    2.4198650360e+01    3.8533302307e+01
    2.4298574448e+01    3.8534301758e+01
    2.4399946213e+01    3.8535301208e+01
    2.4499717712e+01    3.8536399841e+01
    2.4598659515e+01    3.8537399292e+01
    2.4698421478e+01    3.8538497925e+01
    2.4799865723e+01    3.8539600372e+01
    2.4898456573e+01    3.8540599823e+01
    2.4998699188e+01    3.8541702271e+01
    2.5098781586e+01    3.8542800903e+01
    2.5198881149e+01    3.8543899536e+01
    2.5298965454e+01    3.8544998169e+01
    2.5398784637e+01    3.8546100616e+01
    2.5498472214e+01    3.8547199249e+01
    2.5598590851e+01    3.8548301697e+01
    2.5698648453e+01    3.8549301147e+01
    2.5798614502e+01    3.8550399780e+01
    2.5899745941e+01    3.8551601410e+01
    2.5999759674e+01    3.8552700043e+01
    2.6098966599e+01    3.8553901672e+01
    2.6198661804e+01    3.8555000305e+01
    2.6298650742e+01    3.8556098938e+01
    2.6399919510e+01    3.8557300568e+01
    2.6498697281e+01    3.8558399200e+01
    2.6598573685e+01    3.8559600830e+01
    2.6698965073e+01    3.8560699463e+01
    2.6798671722e+01    3.8561901093e+01
    2.6899477005e+01    3.8563098907e+01
    2.6999570847e+01    3.8564399719e+01
    2.7099599838e+01    3.8565498352e+01
    2.7199653625e+01    3.8566699982e+01
    2.7299377441e+01    3.8567802429e+01
    2.7399536133e+01    3.8569099426e+01
    2.7499294281e+01    3.8570301056e+01
    2.7599193573e+01    3.8571502686e+01
    2.7699682236e+01    3.8572799683e+01
    2.7799293518e+01    3.8573898315e+01
    2.7899660110e+01    3.8575199127e+01
    2.7999788284e+01    3.8576400757e+01
    2.8099580765e+01    3.8577697754e+01
    2.8199626923e+01    3.8578899384e+01
    2.8299688339e+01    3.8580200195e+01
    2.8399671555e+01    3.8581398010e+01
    2.8500057220e+01    3.8582698822e+01
    2.8598949432e+01    3.8583900452e+01
    2.8698696136e+01    3.8585300446e+01
    2.8798583984e+01    3.8586502075e+01
    2.8898996353e+01    3.8587799072e+01
    2.8998733521e+01    3.8589099884e+01
    2.9098394394e+01    3.8590400696e+01
    2.9198890686e+01    3.8591701508e+01
    2.9298524857e+01    3.8592899323e+01
    2.9398719788e+01    3.8594299316e+01
    2.9498830795e+01    3.8595600128e+01
    2.9599346161e+01    3.8596900940e+01
    2.9699619293e+01    3.8598300934e+01
    2.9799938202e+01    3.8599700928e+01
    2.9898624420e+01    3.8600997925e+01
    2.9999065399e+01    3.8602298737e+01
    3.0099222183e+01    3.8603698730e+01
    3.0199186325e+01    3.8604999542e+01
    3.0299282074e+01    3.8606399536e+01
    3.0399726868e+01    3.8607799530e+01
    3.0499603271e+01    3.8609100342e+01
    3.0599964142e+01    3.8610500336e+01
    3.0699941635e+01    3.8611900330e+01
    3.0798576355e+01    3.8613300323e+01
    3.0898698807e+01    3.8614700317e+01
    3.0998546600e+01    3.8616199493e+01
    3.1098802567e+01    3.8617599487e+01
    3.1198978424e+01    3.8619102478e+01
    3.1298809052e+01    3.8620498657e+01
    3.1398872375e+01    3.8622001648e+01
    3.1498889923e+01    3.8623500824e+01
    3.1599170685e+01    3.8624900818e+01
    3.1699342728e+01    3.8626300812e+01
    3.1799497604e+01    3.8627899170e+01
    3.1899385452e+01    3.8629398346e+01
    3.1999658585e+01    3.8630901337e+01
    3.2099468231e+01    3.8632400513e+01
    3.2199989319e+01    3.8633899689e+01
    3.2299781799e+01    3.8635498047e+01
    3.2400009155e+01    3.8637001038e+01
    3.2499900818e+01    3.8638599396e+01
    3.2598415375e+01    3.8640098572e+01
    3.2698406219e+01    3.8641700745e+01
    3.2798671722e+01    3.8643299103e+01
    3.2898887634e+01    3.8644901276e+01
    3.2998668671e+01    3.8646499634e+01
    3.3099029541e+01    3.8648101807e+01
    3.3199317932e+01    3.8649799347e+01
    3.3299415588e+01    3.8651397705e+01
    3.3399719238e+01    3.8653099060e+01
    3.3499439240e+01    3.8654701233e+01
    3.3598377228e+01    3.8656501770e+01
    3.3699779510e+01    3.8658100128e+01
    3.3798553467e+01    3.8659801483e+01
    3.3898597717e+01    3.8661598206e+01
    3.3998912811e+01    3.8663299561e+01
    3.4098526001e+01    3.8665000916e+01
    3.4199142456e+01    3.8666698456e+01
    3.4299919128e+01    3.8668498993e+01
    3.4398895264e+01    3.8670299530e+01
    3.4498725891e+01    3.8672100067e+01
    3.4598396301e+01    3.8673900604e+01
    3.4698795319e+01    3.8675701141e+01
    3.4798416138e+01    3.8677600861e+01
    3.4898601532e+01    3.8679397583e+01
    3.4998935699e+01    3.8681301117e+01
    3.5098957062e+01    3.8683200836e+01
    3.5199115753e+01    3.8685100555e+01
    3.5299472809e+01    3.8687000275e+01
    3.5399902344e+01    3.8688899994e+01
    3.5500011444e+01    3.8690898895e+01
    3.5598705292e+01    3.8692802429e+01
    3.5698936462e+01    3.8694801331e+01
    3.5799163818e+01    3.8696800232e+01
    3.5899227142e+01    3.8698699951e+01
    3.5999366760e+01    3.8700798035e+01
    3.6099533081e+01    3.8702899933e+01
    3.6199573517e+01    3.8704902649e+01
    3.6298469543e+01    3.8706901550e+01
    3.6398605347e+01    3.8708999634e+01
    3.6498893738e+01    3.8711200714e+01
    3.6599086761e+01    3.8713302612e+01
    3.6699272156e+01    3.8715400696e+01
    3.6799087524e+01    3.8717498779e+01
    3.6899204254e+01    3.8719799042e+01
    3.6999351501e+01    3.8721900940e+01
    3.7099487305e+01    3.8724201202e+01
    3.7199642181e+01    3.8726402283e+01
    3.7298587799e+01    3.8728698730e+01
    3.7398330688e+01    3.8730899811e+01
    3.7498809814e+01    3.8733200073e+01
    3.7599056244e+01    3.8735599518e+01
    3.7698894501e+01    3.8737899780e+01
    3.7798988342e+01    3.8740200043e+01
    3.7899288177e+01    3.8742500305e+01
    3.7999435425e+01    3.8744899750e+01
    3.8099475861e+01    3.8747398376e+01
    3.8199535370e+01    3.8749801636e+01
    3.8299793243e+01    3.8752300262e+01
    3.8399623871e+01    3.8754798889e+01
    3.8498523712e+01    3.8757202148e+01
    3.8599246979e+01    3.8759799957e+01
    3.8698883057e+01    3.8762298584e+01
    3.8799358368e+01    3.8764900208e+01
    3.8899368286e+01    3.8767501831e+01
    3.8999813080e+01    3.8770000458e+01
    3.9099903107e+01    3.8772701263e+01
    3.9198524475e+01    3.8775299072e+01
    3.9298351288e+01    3.8777999878e+01
    3.9399215698e+01    3.8780799866e+01
    3.9499359131e+01    3.8783500671e+01
    3.9599426270e+01    3.8786300659e+01
    3.9699409485e+01    3.8789100647e+01
    3.9799850464e+01    3.8791801453e+01
    3.9899662018e+01    3.8794700623e+01
    3.9999618530e+01    3.8797500610e+01
    4.0099277496e+01    3.8800399780e+01
    4.0198310852e+01    3.8803298950e+01
    4.0298698425e+01    3.8806297302e+01
    4.0398967743e+01    3.8809200287e+01
    4.0499317169e+01    3.8812198639e+01
    4.0599372864e+01    3.8815299988e+01
    4.0699344635e+01    3.8818298340e+01
    4.0799499512e+01    3.8821300507e+01
    4.0899635315e+01    3.8824401855e+01
    4.0999710083e+01    3.8827499390e+01
    4.1099922180e+01    3.8830699921e+01
    4.1198692322e+01    3.8833900452e+01
    4.1298450470e+01    3.8837100983e+01
    4.1398818970e+01    3.8840301514e+01
    4.1499347687e+01    3.8843597412e+01
    4.1599182129e+01    3.8846801758e+01
    4.1699043274e+01    3.8850101471e+01
    4.1799468994e+01    3.8853500366e+01
    4.1898506165e+01    3.8856899261e+01
    4.1999134064e+01    3.8860298157e+01
    4.2099147797e+01    3.8863700867e+01
    4.2198841095e+01    3.8867198944e+01
    4.2299217224e+01    3.8870697021e+01
    4.2399353027e+01    3.8874198914e+01
    4.2499595642e+01    3.8877799988e+01
    4.2599750519e+01    3.8881401062e+01
    4.2699722290e+01    3.8884998322e+01
    4.2798873901e+01    3.8888599396e+01
    4.2899345398e+01    3.8892402649e+01
    4.2999347687e+01    3.8896099091e+01
    4.3099632263e+01    3.8899803162e+01
    4.3199691772e+01    3.8903598785e+01
    4.3298355103e+01    3.8907402039e+01
    4.3398635864e+01    3.8911201477e+01
    4.3498813629e+01    3.8915100098e+01
    4.3599475861e+01    3.8918998718e+01
    4.3698604584e+01    3.8922901154e+01
    4.3798278809e+01    3.8926898956e+01
    4.3898677826e+01    3.8930900574e+01
    4.3999614716e+01    3.8934997559e+01
    4.4098400116e+01    3.8939098358e+01
    4.4198490143e+01    3.8943199158e+01
    4.4298583984e+01    3.8947299957e+01
    4.4398403168e+01    3.8951499939e+01
    4.4498401642e+01    3.8955699921e+01
    4.4598953247e+01    3.8959899902e+01
    4.4698795319e+01    3.8964302063e+01
    4.4798770905e+01    3.8968498230e+01
    4.4899242401e+01    3.8972999573e+01
    4.4998287201e+01    3.8977298737e+01
    4.5098464966e+01    3.8981700897e+01
    4.5198741913e+01    3.8986297607e+01
    4.5299137115e+01    3.8990798950e+01
    4.5399017334e+01    3.8995300293e+01
    4.5499229431e+01    3.8999900818e+01
    4.5599399567e+01    3.9004600525e+01
    4.5699600220e+01    3.9009201050e+01
    4.5798271179e+01    3.9013900757e+01
    4.5898567200e+01    3.9018699646e+01
    4.5998550415e+01    3.9023498535e+01
    4.6098686218e+01    3.9028400421e+01
    4.6198394775e+01    3.9033302307e+01
    4.6298473358e+01    3.9038200378e+01
    4.6399211884e+01    3.9043300629e+01
    4.6499504089e+01    3.9048400879e+01
    4.6598628998e+01    3.9053398132e+01
    4.6698627472e+01    3.9058601379e+01
    4.6798297882e+01    3.9063697815e+01
    4.6898269653e+01    3.9068901062e+01
    4.6998394012e+01    3.9074298859e+01
    4.7098564148e+01    3.9079597473e+01
    4.7198787689e+01    3.9084999084e+01
    4.7299179077e+01    3.9090499878e+01
    4.7399440765e+01    3.9096000671e+01
    4.7499580383e+01    3.9101600647e+01
    4.7599784851e+01    3.9107200623e+01
    4.7698390961e+01    3.9112800598e+01
    4.7798564911e+01    3.9118499756e+01
    4.7898780823e+01    3.9124298096e+01
    4.7999820709e+01    3.9130199432e+01
    4.8098358154e+01    3.9136100769e+01
    4.8198860168e+01    3.9142002106e+01
    4.8298740387e+01    3.9148101807e+01
    4.8398719788e+01    3.9154098511e+01
    4.8498973846e+01    3.9160202026e+01
    4.8599018097e+01    3.9166500092e+01
    4.8698684692e+01    3.9172798157e+01
    4.8798995972e+01    3.9179100037e+01
    4.8899490356e+01    3.9185501099e+01
    4.8999797821e+01    3.9192001343e+01
    4.9099670410e+01    3.9198600769e+01
    4.9199813843e+01    3.9205200195e+01
    4.9298408508e+01    3.9211898804e+01
    4.9398796082e+01    3.9218601227e+01
    4.9498874664e+01    3.9225498199e+01
    4.9599086761e+01    3.9232398987e+01
    4.9698726654e+01    3.9239398956e+01
    4.9798591614e+01    3.9246398926e+01
    4.9898975372e+01    3.9253700256e+01
    4.9999328613e+01    3.9260902405e+01
    5.0099525452e+01    3.9268299103e+01
    5.0199310303e+01    3.9275600433e+01
    5.0299789429e+01    3.9283199310e+01
    5.0398509979e+01    3.9290702820e+01
    5.0498329163e+01    3.9298400879e+01
    5.0598262787e+01    3.9306198120e+01
    5.0698585510e+01    3.9314102173e+01
    5.0798473358e+01    3.9321998596e+01
    5.0899353027e+01    3.9330200195e+01
    5.0999282837e+01    3.9338298798e+01
    5.1098274231e+01    3.9346500397e+01
    5.1198444366e+01    3.9354797363e+01
    5.1298702240e+01    3.9363399506e+01
    5.1398841858e+01    3.9372001648e+01
    5.1499290466e+01    3.9380699158e+01
    5.1599334717e+01    3.9389499664e+01
    5.1699626923e+01    3.9398498535e+01
    5.1798217773e+01    3.9407402039e+01
    5.1898513794e+01    3.9416500092e+01
    5.1998733521e+01    3.9425800323e+01
    5.2098922729e+01    3.9435100555e+01
    5.2198993683e+01    3.9444698334e+01
    5.2299411774e+01    3.9454299927e+01
    5.2398582458e+01    3.9464000702e+01
    5.2498722076e+01    3.9473899841e+01
    5.2599010468e+01    3.9483901978e+01
    5.2699043274e+01    3.9494098663e+01
    5.2799316406e+01    3.9504402161e+01
    5.2899387360e+01    3.9514698029e+01
    5.2998188019e+01    3.9525100708e+01
    5.3098480225e+01    3.9535900116e+01
    5.3199058533e+01    3.9546699524e+01
    5.3299030304e+01    3.9557701111e+01
    5.3399135590e+01    3.9568801880e+01
    5.3499298096e+01    3.9580001831e+01
    5.3598667145e+01    3.9591300964e+01
    5.3698692322e+01    3.9602901459e+01
    5.3799278259e+01    3.9614700317e+01
    5.3899440765e+01    3.9626602173e+01
    5.3999427795e+01    3.9638698578e+01
    5.4099529266e+01    3.9650798798e+01
    5.4199672699e+01    3.9663200378e+01
    5.4298503876e+01    3.9675598145e+01
    5.4398479462e+01    3.9688201904e+01
    5.4498363495e+01    3.9701198578e+01
    5.4598823547e+01    3.9714202881e+01
    5.4698966980e+01    3.9727500916e+01
    5.4798965454e+01    3.9740898132e+01
    5.4899551392e+01    3.9754600525e+01
    5.4998252869e+01    3.9768199921e+01
    5.5098587036e+01    3.9782299042e+01
    5.5198696136e+01    3.9796501160e+01
    5.5299339294e+01    3.9810897827e+01
    5.5399192810e+01    3.9825500488e+01
    5.5499679565e+01    3.9840400696e+01
    5.5598670959e+01    3.9855201721e+01
    5.5698589325e+01    3.9870399475e+01
    5.5798755646e+01    3.9885799408e+01
    5.5898841858e+01    3.9901500702e+01
    5.5999336243e+01    3.9917400360e+01
    5.6099391937e+01    3.9933403015e+01
    5.6198352814e+01    3.9949501038e+01
    5.6298206329e+01    3.9965900421e+01
    5.6398357391e+01    3.9982700348e+01
    5.6498607635e+01    3.9999599457e+01
    5.6599117279e+01    4.0016899109e+01
    5.6699214935e+01    4.0034301758e+01
    5.6799491882e+01    4.0051898956e+01
    5.6898078918e+01    4.0069499969e+01
    5.6999683380e+01    4.0087898254e+01
    5.7098110199e+01    4.0105998993e+01
    5.7198276520e+01    4.0124599457e+01
    5.7298709869e+01    4.0143501282e+01
    5.7398609161e+01    4.0162498474e+01
    5.7498481750e+01    4.0181800842e+01
    5.7598423004e+01    4.0201400757e+01
    5.7698318481e+01    4.0221199036e+01
    5.7798671722e+01    4.0241500854e+01
    5.7899181366e+01    4.0261901855e+01
    5.7999126434e+01    4.0282501221e+01
    5.8098152161e+01    4.0303199768e+01
    5.8199672699e+01    4.0324699402e+01
    5.8298625946e+01    4.0345901489e+01
    5.8398998260e+01    4.0367801666e+01
    5.8499065399e+01    4.0389801025e+01
    5.8599449158e+01    4.0412200928e+01
    5.8699352264e+01    4.0434700012e+01
    5.8798088074e+01    4.0457298279e+01
    5.8898506165e+01    4.0480499268e+01
    5.8998638153e+01    4.0504001617e+01
    5.9098518372e+01    4.0527702332e+01
    5.9198951721e+01    4.0551799774e+01
    5.9298999786e+01    4.0576202393e+01
    5.9399059296e+01    4.0600700378e+01
    5.9498077393e+01    4.0625400543e+01
    5.9598361969e+01    4.0650600433e+01
    5.9698261261e+01    4.0676101685e+01
    5.9798976898e+01    4.0701999664e+01
    5.9898899078e+01    4.0728099823e+01
    5.9998836517e+01    4.0754501343e+01
    6.0098808289e+01    4.0781097412e+01
    6.0199466705e+01    4.0808300018e+01
    6.0299617767e+01    4.0835601807e+01
    6.0399475098e+01    4.0863201141e+01
    6.0498081207e+01    4.0890701294e+01
    6.0598403931e+01    4.0918899536e+01
    6.0698562622e+01    4.0947498322e+01
    6.0798664093e+01    4.0976402283e+01
    6.0898662567e+01    4.1005500793e+01
    6.0998798370e+01    4.1034900665e+01
    6.1098735809e+01    4.1064697266e+01
    6.1198677063e+01    4.1094799042e+01
    6.1298992157e+01    4.1125198364e+01
    6.1399162292e+01    4.1155899048e+01
    6.1499023438e+01    4.1186901093e+01
    6.1599472046e+01    4.1218399048e+01
    6.1699512482e+01    4.1250000000e+01
    6.1798244476e+01    4.1281600952e+01
    6.1898956299e+01    4.1314102173e+01
    6.1998905182e+01    4.1346599579e+01
    6.2099216461e+01    4.1379798889e+01
    6.2199081421e+01    4.1413002014e+01
    6.2299079895e+01    4.1446502686e+01
    6.2398941040e+01    4.1480400085e+01
    6.2498985291e+01    4.1514701843e+01
    6.2599426270e+01    4.1549301147e+01
    6.2699329376e+01    4.1584197998e+01
    6.2799232483e+01    4.1619400024e+01
    6.2899372101e+01    4.1654998779e+01
    6.2999393463e+01    4.1690898895e+01
    6.3099586487e+01    4.1727199554e+01
    6.3198005676e+01    4.1763198853e+01
    6.3299503326e+01    4.1800701141e+01
    6.3399517059e+01    4.1837898254e+01
    6.3499355316e+01    4.1875400543e+01
    6.3599197388e+01    4.1913299561e+01
    6.3699077606e+01    4.1951499939e+01
    6.3798957825e+01    4.1990100861e+01
    6.3898738861e+01    4.2028900146e+01
    6.3998561859e+01    4.2068199158e+01
    6.4098396301e+01    4.2107799530e+01
    6.4198287964e+01    4.2147800446e+01
    6.4298377991e+01    4.2188201904e+01
    6.4398223877e+01    4.2228797913e+01
    6.4498573303e+01    4.2270000458e+01
    6.4598747253e+01    4.2311500549e+01
    6.4699317932e+01    4.2353500366e+01
    6.4799507141e+01    4.2395797729e+01
    6.4897895813e+01    4.2437698364e+01
    6.4999488831e+01    4.2481201172e+01
    6.5099418640e+01    4.2524501801e+01
    6.5199310303e+01    4.2568199158e+01
    6.5299255371e+01    4.2612297058e+01
    6.5399200439e+01    4.2656700134e+01
    6.5499237061e+01    4.2701599121e+01
    6.5599273682e+01    4.2746799469e+01
    6.5699180603e+01    4.2792499542e+01
    6.5799232483e+01    4.2838600159e+01
    6.5899345398e+01    4.2885002136e+01
    6.5999359131e+01    4.2931900024e+01
    6.6099349976e+01    4.2979198456e+01
    6.6197845459e+01    4.3026199341e+01
    6.6298194885e+01    4.3074501038e+01
    6.6398262024e+01    4.3123100281e+01
    6.6498519897e+01    4.3172199249e+01
    6.6598686218e+01    4.3221698761e+01
    6.6698509216e+01    4.3271499634e+01
    6.6798591614e+01    4.3321899414e+01
    6.6898544312e+01    4.3372600555e+01
    6.6998733521e+01    4.3423999786e+01
    6.7098770142e+01    4.3475700378e+01
    6.7198829651e+01    4.3527900696e+01
    6.7298980713e+01    4.3580600739e+01
    6.7399002075e+01    4.3633697510e+01
    6.7499534607e+01    4.3687702179e+01
    6.7599525452e+01    4.3741798401e+01
    6.7699531555e+01    4.3796398163e+01
    6.7798042297e+01    4.3850700378e+01
    6.7898216248e+01    4.3906398773e+01
    6.7998252869e+01    4.3962600708e+01
    6.8098693848e+01    4.4019500732e+01
    6.8198913574e+01    4.4076797485e+01
    6.8298782349e+01    4.4134498596e+01
    6.8398986816e+01    4.4192798615e+01
    6.8499481201e+01    4.4251998901e+01
    6.8597953796e+01    4.4310401917e+01
    6.8698005676e+01    4.4370399475e+01
    6.8797988892e+01    4.4430900574e+01
    6.8897949219e+01    4.4492000580e+01
    6.8998046875e+01    4.4553802490e+01
    6.9097831726e+01    4.4615798950e+01
    6.9198135376e+01    4.4678798676e+01
    6.9298446655e+01    4.4742500305e+01
    6.9398414612e+01    4.4806602478e+01
    6.9498527527e+01    4.4871398926e+01
    6.9598350525e+01    4.4936698914e+01
    6.9698768616e+01    4.5002899170e+01
    6.9799407959e+01    4.5069900513e+01
    6.9899475098e+01    4.5137329102e+01
    6.9997924805e+01    4.5204277039e+01
    7.0098091125e+01    4.5272941589e+01
    7.0198341370e+01    4.5342430115e+01
    7.0298690796e+01    4.5412742615e+01
    7.0398597717e+01    4.5483409882e+01
    7.0498893738e+01    4.5554981232e+01
    7.0598968506e+01    4.5627189636e+01
    7.0699203491e+01    4.5700218201e+01
    7.0798027039e+01    4.5772972107e+01
    7.0898681641e+01    4.5847831726e+01
    7.0998588562e+01    4.5922851562e+01
    7.1099082947e+01    4.5999160767e+01
    7.1199020386e+01    4.6075828552e+01
    7.1299385071e+01    4.6153491974e+01
    7.1398124695e+01    4.6230796814e+01
    7.1498535156e+01    4.6310199738e+01
    7.1599052429e+01    4.6390510559e+01
    7.1697875977e+01    4.6470268250e+01
    7.1799407959e+01    4.6553142548e+01
    7.1898132324e+01    4.6634540558e+01
    7.1998252869e+01    4.6717960358e+01
    7.2098655701e+01    4.6802459717e+01
    7.2198814392e+01    4.6887702942e+01
    7.2299064636e+01    4.6973937988e+01
    7.2397850037e+01    4.7059822083e+01
    7.2498107910e+01    4.7147880554e+01
    7.2598686218e+01    4.7237232208e+01
    7.2699157715e+01    4.7327499390e+01
    7.2797836304e+01    4.7417030334e+01
    7.2898231506e+01    4.7509220123e+01
    7.2998626709e+01    4.7602420807e+01
    7.3099113464e+01    4.7696720123e+01
    7.3197944641e+01    4.7790458679e+01
    7.3298576355e+01    4.7886951447e+01
    7.3399032593e+01    4.7984359741e+01
    7.3497970581e+01    4.8081413269e+01
    7.3598617554e+01    4.8181198120e+01
    7.3698814392e+01    4.8281730652e+01
    7.3799339294e+01    4.8383628845e+01
    7.3898117065e+01    4.8484901428e+01
    7.3998649597e+01    4.8589092255e+01
    7.4099090576e+01    4.8694389343e+01
    7.4199394226e+01    4.8800689697e+01
    7.4298179626e+01    4.8906539917e+01
    7.4398689270e+01    4.9015502930e+01
    7.4499389648e+01    4.9125839233e+01
    7.4598297119e+01    4.9235351562e+01
    7.4698562622e+01    4.9347709656e+01
    7.4799285889e+01    4.9461807251e+01
    7.4898307800e+01    4.9575180054e+01
    7.4998939514e+01    4.9691650391e+01
    7.5097770691e+01    4.9807212830e+01
    7.5198516846e+01    4.9926441193e+01
    7.5299270630e+01    5.0046936035e+01
    7.5398162842e+01    5.0166538239e+01
    7.5498771667e+01    5.0289520264e+01
    7.5597839355e+01    5.0411861420e+01
    7.5698616028e+01    5.0537769318e+01
    7.5799400330e+01    5.0665061951e+01
    7.5898490906e+01    5.0791522980e+01
    7.5999229431e+01    5.0921550751e+01
    7.6098327637e+01    5.1050758362e+01
    7.6199020386e+01    5.1183528900e+01
    7.6298072815e+01    5.1315578461e+01
    7.6398895264e+01    5.1451370239e+01
    7.6499237061e+01    5.1588092804e+01
    7.6598365784e+01    5.1724426270e+01
    7.6699142456e+01    5.1864608765e+01
    7.6798225403e+01    5.2003978729e+01
    7.6899078369e+01    5.2147270203e+01
    7.6998229980e+01    5.2289550781e+01
    7.7099098206e+01    5.2435939789e+01
    7.7198196411e+01    5.2581241608e+01
    7.7299072266e+01    5.2730739594e+01
    7.7398246765e+01    5.2879230499e+01
    7.7498878479e+01    5.3031459808e+01
    7.7598068237e+01    5.3183052063e+01
    7.7698699951e+01    5.3338470459e+01
    7.7797904968e+01    5.3493240356e+01
    7.7898818970e+01    5.3652309418e+01
    7.7998039246e+01    5.3810260773e+01
    7.8098968506e+01    5.3972702026e+01
    7.8198196411e+01    5.4133930206e+01
    7.8299148560e+01    5.4299629211e+01
    7.8398384094e+01    5.4464229584e+01
    7.8499122620e+01    5.4632919312e+01
    7.8598083496e+01    5.4800319672e+01
    7.8699058533e+01    5.4972827911e+01
    7.8798324585e+01    5.5144142151e+01
    7.8899299622e+01    5.5319980621e+01
    7.8998275757e+01    5.5494182587e+01
    7.9099273682e+01    5.5673561096e+01
    7.9198562622e+01    5.5851638794e+01
    7.9297859192e+01    5.6031440735e+01
    7.9398864746e+01    5.6216152191e+01
    7.9498176575e+01    5.6399467468e+01
    7.9599197388e+01    5.6587692261e+01
    7.9698509216e+01    5.6774520874e+01
    7.9797836304e+01    5.6963150024e+01
    7.9898872375e+01    5.7156768799e+01
    7.9998199463e+01    5.7348999023e+01
    8.0099243164e+01    5.7546298981e+01
    8.0198585510e+01    5.7742122650e+01
    8.0297927856e+01    5.7939727783e+01
    8.0398986816e+01    5.8142692566e+01
    8.0498161316e+01    5.8343612671e+01
    8.0599227905e+01    5.8550231934e+01
    8.0698577881e+01    5.8755279541e+01
    8.0797935486e+01    5.8962200165e+01
    8.0899009705e+01    5.9174652100e+01
    8.0998374939e+01    5.9385429382e+01
    8.1097747803e+01    5.9598068237e+01
    8.1198822021e+01    5.9816318512e+01
    8.1298194885e+01    6.0032798767e+01
    8.1399284363e+01    6.0255069733e+01
    8.1498657227e+01    6.0475563049e+01
    8.1598037720e+01    6.0697921753e+01
    8.1699127197e+01    6.0926246643e+01
    8.1798507690e+01    6.1152610779e+01
    8.1897880554e+01    6.1381019592e+01
    8.1998970032e+01    6.1615478516e+01
    8.2098327637e+01    6.1847778320e+01
    8.2197662354e+01    6.2082229614e+01
    8.2298675537e+01    6.2322608948e+01
    8.2397956848e+01    6.2560951233e+01
    8.2498916626e+01    6.2805503845e+01
    8.2598136902e+01    6.3047897339e+01
    8.2699050903e+01    6.3296508789e+01
    8.2798217773e+01    6.3542968750e+01
    8.2899063110e+01    6.3795722961e+01
    8.2998176575e+01    6.4046241760e+01
    8.3098968506e+01    6.4303123474e+01
    8.3198020935e+01    6.4557769775e+01
    8.3298736572e+01    6.4818778992e+01
    8.3397705078e+01    6.5077468872e+01
    8.3498329163e+01    6.5342689514e+01
    8.3598907471e+01    6.5610015869e+01
    8.3697738647e+01    6.5874832153e+01
    8.3798225403e+01    6.6146263123e+01
    8.3898658752e+01    6.6419776917e+01
    8.3999046326e+01    6.6695404053e+01
    8.4097694397e+01    6.6968399048e+01
    8.4197982788e+01    6.7248291016e+01
    8.4298233032e+01    6.7530158997e+01
    8.4398429871e+01    6.7814300537e+01
    8.4498573303e+01    6.8100418091e+01
    8.4598678589e+01    6.8388816833e+01
    8.4698722839e+01    6.8679382324e+01
    8.4798728943e+01    6.8972000122e+01
    8.4898681641e+01    6.9266891479e+01
    8.4998580933e+01    6.9563926697e+01
    8.5098434448e+01    6.9863235474e+01
    8.5198242188e+01    7.0164680481e+01
    8.5297996521e+01    7.0468383789e+01
    8.5397705078e+01    7.0774215698e+01
    8.5499053955e+01    7.1087516785e+01
    8.5598655701e+01    7.1397827148e+01
    8.5698219299e+01    7.1710273743e+01
    8.5797721863e+01    7.2024955750e+01
    8.5898864746e+01    7.2347251892e+01
    8.5998275757e+01    7.2666374207e+01
    8.6097633362e+01    7.2987709045e+01
    8.6198623657e+01    7.3316726685e+01
    8.6297874451e+01    7.3642486572e+01
    8.6398757935e+01    7.3975921631e+01
    8.6497917175e+01    7.4306091309e+01
    8.6598693848e+01    7.4644004822e+01
    8.6697746277e+01    7.4978553772e+01
    8.6798423767e+01    7.5320930481e+01
    8.6899055481e+01    7.5665580750e+01
    8.6997955322e+01    7.6006576538e+01
    8.7098480225e+01    7.6355674744e+01
    8.7198951721e+01    7.6706832886e+01
    8.7297698975e+01    7.7054450989e+01
    8.7398063660e+01    7.7410018921e+01
    8.7498382568e+01    7.7767837524e+01
    8.7598648071e+01    7.8127799988e+01
    8.7698860168e+01    7.8489898682e+01
    8.7799026489e+01    7.8854240417e+01
    8.7899139404e+01    7.9220603943e+01
    8.7999191284e+01    7.9589187622e+01
    8.8099205017e+01    7.9959800720e+01
    8.8199157715e+01    8.0332633972e+01
    8.8299064636e+01    8.0707557678e+01
    8.8398925781e+01    8.1084503174e+01
    8.8498725891e+01    8.1463546753e+01
    8.8598480225e+01    8.1844589233e+01
    8.8698181152e+01    8.2227714539e+01
    8.8797836304e+01    8.2612937927e+01
    8.8899093628e+01    8.3006614685e+01
    8.8998649597e+01    8.3395774841e+01
    8.9098144531e+01    8.3787010193e+01
    8.9197593689e+01    8.4180122375e+01
    8.9298652649e+01    8.4581817627e+01
    8.9398002625e+01    8.4978828430e+01
    8.9498954773e+01    8.5384513855e+01
    8.9598197937e+01    8.5785308838e+01
    8.9699050903e+01    8.6194747925e+01
    8.9798202515e+01    8.6599319458e+01
    8.9898948669e+01    8.7012390137e+01
    8.9997993469e+01    8.7420608521e+01
    9.0098640442e+01    8.7837287903e+01
    9.0197593689e+01    8.8249031067e+01
    9.0298133850e+01    8.8669311523e+01
    9.0398628235e+01    8.9091278076e+01
    9.0499069214e+01    8.9515014648e+01
    9.0597816467e+01    8.9933341980e+01
    9.0698158264e+01    9.0360328674e+01
    9.0798446655e+01    9.0788879395e+01
    9.0898689270e+01    9.1219085693e+01
    9.0998878479e+01    9.1650840759e+01
    9.1099014282e+01    9.2084053040e+01
    9.1199104309e+01    9.2518783569e+01
    9.1299133301e+01    9.2954864502e+01
    9.1399093628e+01    9.3392364502e+01
    9.1498985291e+01    9.3831123352e+01
    9.1598800659e+01    9.4271186829e+01
    9.1698547363e+01    9.4712387085e+01
    9.1798225403e+01    9.5154708862e+01
    9.1897827148e+01    9.5598251343e+01
    9.1998985291e+01    9.6050239563e+01
    9.2098442078e+01    9.6495971680e+01
    9.2197830200e+01    9.6942710876e+01
    9.2298759460e+01    9.7397750854e+01
    9.2397994995e+01    9.7846359253e+01
    9.2498779297e+01    9.8303237915e+01
    9.2597862244e+01    9.8753700256e+01
    9.2698493958e+01    9.9212303162e+01
    9.2799049377e+01    9.9671646118e+01
    9.2897911072e+01    1.0012427521e+02
    9.2998313904e+01    1.0058509827e+02
    9.3098640442e+01    1.0104656219e+02
    9.3198890686e+01    1.0150854492e+02
    9.3299057007e+01    1.0197113800e+02
    9.3397537231e+01    1.0242676544e+02
    9.3497550964e+01    1.0289029694e+02
    9.3599098206e+01    1.0336169434e+02
    9.3698471069e+01    1.0382432556e+02
    9.3797874451e+01    1.0428707123e+02
    9.3897583008e+01    1.0475167847e+02
    9.3998558044e+01    1.0522328949e+02
    9.4097656250e+01    1.0568663788e+02
    9.4198127747e+01    1.0615689087e+02
    9.4298797607e+01    1.0662904358e+02
    9.4397720337e+01    1.0709284210e+02
    9.4497962952e+01    1.0756352234e+02
    9.4598190308e+01    1.0803428650e+02
    9.4698867798e+01    1.0850667572e+02
    9.4798393250e+01    1.0897520447e+02
    9.4898483276e+01    1.0944624329e+02
    9.4998680115e+01    1.0991720581e+02
    9.5097946167e+01    1.1038411713e+02
    9.5198860168e+01    1.1085843658e+02
    9.5298225403e+01    1.1132630157e+02
    9.5398056030e+01    1.1179570770e+02
    9.5498756409e+01    1.1226925659e+02
    9.5597625732e+01    1.1273365021e+02
    9.5698646545e+01    1.1320883179e+02
    9.5799057007e+01    1.1367961121e+02
    9.5899009705e+01    1.1414883423e+02
    9.5997787476e+01    1.1461228180e+02
    9.6098403931e+01    1.1508374023e+02
    9.6198554993e+01    1.1555265045e+02
    9.6298202515e+01    1.1601904297e+02
    9.6398735046e+01    1.1648941040e+02
    9.6497741699e+01    1.1695139313e+02
    9.6597770691e+01    1.1741817474e+02
    9.6698013306e+01    1.1788562775e+02
    9.6798889160e+01    1.1835527039e+02
    9.6899002075e+01    1.1882066345e+02
    9.6997802734e+01    1.1927951050e+02
    9.7098602295e+01    1.1974690247e+02
    9.7198913574e+01    1.2021173859e+02
    9.7297637939e+01    1.2066835785e+02
    9.7397674561e+01    1.2113029480e+02
    9.7498847961e+01    1.2159667969e+02
    9.7598915100e+01    1.2205828857e+02
    9.7698242188e+01    1.2251465607e+02
    9.7797790527e+01    1.2297161102e+02
    9.7898391724e+01    1.2343306732e+02
    9.7997573853e+01    1.2388716888e+02
    9.8098457336e+01    1.2434790802e+02
    9.8198997498e+01    1.2480690002e+02
    9.8297714233e+01    1.2525609589e+02
    9.8397796631e+01    1.2571128845e+02
    9.8497787476e+01    1.2616543579e+02
    9.8597671509e+01    1.2661849976e+02
    9.8698921204e+01    1.2707648468e+02
    9.8798599243e+01    1.2752639008e+02
    9.8898429871e+01    1.2797687531e+02
    9.8998657227e+01    1.2842756653e+02
    9.9098037720e+01    1.2887422180e+02
    9.9198776245e+01    1.2932569885e+02
    9.9297958374e+01    1.2977017212e+02
    9.9398498535e+01    1.3021940613e+02
    9.9497650146e+01    1.3066142273e+02
    9.9598304749e+01    1.3110899353e+02
    9.9698539734e+01    1.3155487061e+02
    9.9798675537e+01    1.3199961853e+02
    9.9897613525e+01    1.3243690491e+02
    9.9998992920e+01    1.3288517761e+02
    1.0009886932e+02    1.3332646179e+02
    1.0019860077e+02    1.3376567078e+02
    1.0029824066e+02    1.3420370483e+02
    1.0039778137e+02    1.3464062500e+02
    1.0049865723e+02    1.3508309937e+02
    1.0059799957e+02    1.3551768494e+02
    1.0069867706e+02    1.3595780945e+02
    1.0079782104e+02    1.3639007568e+02
    1.0089830780e+02    1.3682785034e+02
    1.0099868774e+02    1.3726342773e+02
    1.0109896851e+02    1.3769882202e+02
    1.0119772339e+02    1.3812742615e+02
    1.0129779816e+02    1.3856047058e+02
    1.0139778137e+02    1.3899328613e+02
    1.0149767303e+02    1.3942492676e+02
    1.0159887695e+02    1.3986087036e+02
    1.0169856262e+02    1.4029011536e+02
    1.0179814911e+02    1.4071914673e+02
    1.0189762878e+02    1.4114700317e+02
    1.0199844360e+02    1.4158007812e+02
    1.0209773254e+02    1.4200650024e+02
    1.0219864655e+02    1.4243856812e+02
    1.0229773712e+02    1.4286355591e+02
    1.0239813995e+02    1.4329373169e+02
    1.0249845123e+02    1.4372267151e+02
    1.0259866333e+02    1.4415138245e+02
    1.0269876862e+02    1.4457884216e+02
    1.0279876709e+02    1.4500604248e+02
    1.0289868927e+02    1.4543302917e+02
    1.0299849701e+02    1.4585876465e+02
    1.0309821320e+02    1.4628425598e+02
    1.0319783020e+02    1.4670849609e+02
    1.0329875183e+02    1.4713969421e+02
    1.0339817810e+02    1.4756340027e+02
    1.0349890900e+02    1.4799209595e+02
    1.0359813690e+02    1.4841529846e+02
    1.0369867706e+02    1.4884339905e+02
    1.0379772186e+02    1.4926609802e+02
    1.0389807129e+02    1.4969360352e+02
    1.0399832916e+02    1.5012080383e+02
    1.0409848022e+02    1.5054769897e+02
    1.0419854736e+02    1.5097439575e+02
    1.0429853058e+02    1.5140069580e+02
    1.0439840698e+02    1.5182580566e+02
    1.0449819946e+02    1.5225151062e+02
    1.0459790039e+02    1.5267691040e+02
    1.0469889832e+02    1.5310800171e+02
    1.0479842377e+02    1.5353279114e+02
    1.0489785767e+02    1.5395730591e+02
    1.0499858856e+02    1.5438729858e+02
    1.0509784698e+02    1.5481120300e+02
    1.0519840240e+02    1.5524049377e+02
    1.0529885864e+02    1.5567059326e+02
    1.0539787292e+02    1.5609339905e+02
    1.0549816132e+02    1.5652270508e+02
    1.0559837341e+02    1.5695069885e+02
    1.0569848633e+02    1.5737930298e+02
    1.0579853821e+02    1.5780751038e+02
    1.0589849854e+02    1.5823530579e+02
    1.0599836731e+02    1.5866380310e+02
    1.0609816742e+02    1.5909089661e+02
    1.0619789124e+02    1.5951860046e+02
    1.0629888916e+02    1.5995159912e+02
    1.0639845276e+02    1.6037849426e+02
    1.0649793243e+02    1.6080499268e+02
    1.0659868622e+02    1.6123779297e+02
    1.0669801331e+02    1.6166349792e+02
    1.0679862213e+02    1.6209539795e+02
    1.0689779663e+02    1.6252130127e+02
    1.0699825287e+02    1.6295230103e+02
    1.0709863281e+02    1.6338389587e+02
    1.0719757843e+02    1.6380860901e+02
    1.0729781342e+02    1.6423930359e+02
    1.0739797211e+02    1.6466949463e+02
    1.0749804688e+02    1.6510029602e+02
    1.0759806824e+02    1.6552969360e+02
    1.0769801331e+02    1.6595950317e+02
    1.0779788208e+02    1.6638890076e+02
    1.0789766693e+02    1.6681680298e+02
    1.0799874878e+02    1.6725158691e+02
    1.0809841156e+02    1.6767961121e+02
    1.0819799805e+02    1.6810800171e+02
    1.0829885864e+02    1.6854129028e+02
    1.0839830780e+02    1.6896881104e+02
    1.0849770355e+02    1.6939581299e+02
    1.0859835815e+02    1.6982749939e+02
    1.0869760895e+02    1.7025439453e+02
    1.0879812622e+02    1.7068510437e+02
    1.0889859009e+02    1.7111720276e+02
    1.0899764252e+02    1.7154159546e+02
    1.0909796906e+02    1.7197160339e+02
    1.0919822693e+02    1.7240209961e+02
    1.0929843140e+02    1.7283100891e+02
    1.0939855957e+02    1.7326039124e+02
    1.0949861908e+02    1.7368820190e+02
    1.0959861755e+02    1.7411640930e+02
    1.0969856262e+02    1.7454409790e+02
    1.0979843140e+02    1.7497009277e+02
    1.0989823914e+02    1.7539669800e+02
    1.0999799347e+02    1.7582260132e+02
    1.1009767151e+02    1.7624700928e+02
    1.1019862366e+02    1.7667770386e+02
    1.1029817200e+02    1.7710090637e+02
    1.1039765930e+02    1.7752450562e+02
    1.1049842072e+02    1.7795230103e+02
    1.1059777832e+02    1.7837469482e+02
    1.1069841003e+02    1.7880130005e+02
    1.1079765320e+02    1.7922158813e+02
    1.1089813995e+02    1.7964691162e+02
    1.1099857330e+02    1.8007170105e+02
    1.1109761810e+02    1.8049009705e+02
    1.1119790649e+02    1.8091259766e+02
    1.1129814911e+02    1.8133549500e+02
    1.1139832306e+02    1.8175669861e+02
    1.1149842072e+02    1.8217730713e+02
    1.1159844971e+02    1.8259729004e+02
    1.1169841766e+02    1.8301559448e+02
    1.1179831696e+02    1.8343328857e+02
    1.1189816284e+02    1.8385040283e+02
    1.1199791718e+02    1.8426678467e+02
    1.1209761810e+02    1.8468258667e+02
    1.1219856262e+02    1.8510218811e+02
    1.1229812622e+02    1.8551570129e+02
    1.1239762115e+02    1.8592749023e+02
    1.1249835205e+02    1.8634519958e+02
    1.1259770966e+02    1.8675569153e+02
    1.1269830322e+02    1.8716999817e+02
    1.1279882050e+02    1.8758360291e+02
    1.1289797211e+02    1.8799119568e+02
    1.1299835205e+02    1.8840348816e+02
    1.1309866333e+02    1.8881410217e+02
    1.1319760132e+02    1.8921879578e+02
    1.1329778290e+02    1.8962699890e+02
    1.1339788055e+02    1.9003460693e+02
    1.1349790955e+02    1.9044149780e+02
    1.1359786987e+02    1.9084671021e+02
    1.1369776154e+02    1.9125119019e+02
    1.1379757690e+02    1.9165400696e+02
    1.1389862823e+02    1.9206129456e+02
    1.1399830627e+02    1.9246170044e+02
    1.1409792328e+02    1.9286149597e+02
    1.1419876099e+02    1.9326560974e+02
    1.1429823303e+02    1.9366300964e+02
    1.1439763641e+02    1.9405870056e+02
    1.1449826050e+02    1.9445860291e+02
    1.1459882355e+02    1.9485778809e+02
    1.1469802094e+02    1.9525039673e+02
    1.1479843903e+02    1.9564720154e+02
    1.1489878845e+02    1.9604220581e+02
    1.1499778748e+02    1.9643159485e+02
    1.1509799957e+02    1.9682420349e+02
    1.1519815063e+02    1.9721600342e+02
    1.1529823303e+02    1.9760609436e+02
    1.1539823914e+02    1.9799549866e+02
    1.1549819183e+02    1.9838409424e+02
    1.1559806824e+02    1.9877000427e+02
    1.1569788361e+02    1.9915609741e+02
    1.1579763031e+02    1.9954049683e+02
    1.1589859009e+02    1.9992779541e+02
    1.1599820709e+02    2.0030960083e+02
    1.1609776306e+02    2.0068969727e+02
    1.1619851685e+02    2.0107469177e+02
    1.1629795074e+02    2.0145219421e+02
    1.1639858246e+02    2.0183360291e+02
    1.1649787903e+02    2.0220970154e+02
    1.1659838867e+02    2.0258839417e+02
    1.1669756317e+02    2.0296090698e+02
    1.1679795074e+02    2.0333709717e+02
    1.1689826965e+02    2.0371250916e+02
    1.1699852753e+02    2.0408700562e+02
    1.1709873199e+02    2.0445870972e+02
    1.1719760895e+02    2.0482531738e+02
    1.1729769135e+02    2.0519540405e+02
    1.1739772034e+02    2.0556460571e+02
    1.1749768829e+02    2.0593209839e+02
    1.1759760284e+02    2.0629769897e+02
    1.1769872284e+02    2.0666769409e+02
    1.1779852295e+02    2.0703060913e+02
    1.1789826965e+02    2.0739360046e+02
    1.1799796295e+02    2.0775381470e+02
    1.1809760284e+02    2.0811421204e+02
    1.1819844818e+02    2.0847679138e+02
    1.1829798126e+02    2.0883338928e+02
    1.1839871979e+02    2.0919421387e+02
    1.1849816132e+02    2.0954811096e+02
    1.1859754181e+02    2.0990200806e+02
    1.1869812775e+02    2.1025810242e+02
    1.1879868317e+02    2.1061230469e+02
    1.1889791107e+02    2.1096159363e+02
    1.1899835968e+02    2.1131401062e+02
    1.1909750366e+02    2.1166050720e+02
    1.1919786072e+02    2.1201091003e+02
    1.1929817200e+02    2.1235848999e+02
    1.1939842987e+02    2.1270610046e+02
    1.1949864960e+02    2.1305169678e+02
    1.1959757233e+02    2.1339160156e+02
    1.1969770050e+02    2.1373440552e+02
    1.1979779053e+02    2.1407609558e+02
    1.1989782715e+02    2.1441592407e+02
    1.1999783325e+02    2.1475581360e+02
    1.2009779358e+02    2.1509271240e+02
    1.2019770813e+02    2.1542959595e+02
    1.2029757690e+02    2.1576449585e+02
    1.2039866638e+02    2.1610208130e+02
    1.2049845886e+02    2.1643411255e+02
    1.2059821320e+02    2.1676499939e+02
    1.2069792175e+02    2.1709408569e+02
    1.2079759216e+02    2.1742208862e+02
    1.2089846802e+02    2.1775259399e+02
    1.2099806213e+02    2.1807858276e+02
    1.2109760284e+02    2.1840270996e+02
    1.2119835663e+02    2.1872909546e+02
    1.2129782104e+02    2.1905018616e+02
    1.2139849091e+02    2.1937359619e+02
    1.2149787140e+02    2.1969268799e+02
    1.2159845734e+02    2.2001409912e+02
    1.2169776154e+02    2.2032919312e+02
    1.2179826355e+02    2.2064749146e+02
    1.2189749146e+02    2.2096060181e+02
    1.2199790192e+02    2.2127590942e+02
    1.2209828186e+02    2.2159008789e+02
    1.2219860840e+02    2.2190240479e+02
    1.2229766846e+02    2.2221051025e+02
    1.2239791870e+02    2.2251959229e+02
    1.2249812317e+02    2.2282778931e+02
    1.2259828949e+02    2.2313490295e+02
    1.2269841003e+02    2.2344110107e+02
    1.2279847717e+02    2.2374508667e+02
    1.2289852142e+02    2.2404719543e+02
    1.2299758148e+02    2.2434658813e+02
    1.2309767914e+02    2.2464669800e+02
    1.2319757843e+02    2.2494468689e+02
    1.2329866791e+02    2.2524560547e+02
    1.2339849091e+02    2.2554150391e+02
    1.2349825287e+02    2.2583547974e+02
    1.2359797668e+02    2.2612840271e+02
    1.2369766235e+02    2.2641928101e+02
    1.2379853058e+02    2.2671289062e+02
    1.2389811707e+02    2.2700180054e+02
    1.2399765778e+02    2.2728858948e+02
    1.2409838867e+02    2.2757810974e+02
    1.2419785309e+02    2.2786299133e+02
    1.2429847717e+02    2.2814938354e+02
    1.2439785004e+02    2.2843110657e+02
    1.2449839020e+02    2.2871450806e+02
    1.2459767151e+02    2.2899320984e+02
    1.2469812012e+02    2.2927450562e+02
    1.2479852295e+02    2.2955368042e+02
    1.2489765930e+02    2.2982839966e+02
    1.2499797058e+02    2.3010559082e+02
    1.2509824371e+02    2.3038070679e+02
    1.2519860077e+02    2.3065489197e+02
    1.2529754639e+02    2.3092459106e+02
    1.2539768219e+02    2.3119561768e+02
    1.2549774933e+02    2.3146560669e+02
    1.2559777832e+02    2.3173460388e+02
    1.2569776917e+02    2.3200149536e+02
    1.2579769897e+02    2.3226701355e+02
    1.2589759064e+02    2.3253199768e+02
    1.2599864197e+02    2.3279901123e+02
    1.2609842682e+02    2.3306100464e+02
    1.2619818115e+02    2.3332098389e+02
    1.2629786682e+02    2.3358099365e+02
    1.2639752197e+02    2.3383900452e+02
    1.2649833679e+02    2.3409799194e+02
    1.2659789276e+02    2.3435398865e+02
    1.2669860840e+02    2.3461099243e+02
    1.2679807281e+02    2.3486499023e+02
    1.2689749146e+02    2.3511499023e+02
    1.2699806213e+02    2.3536898804e+02
    1.2709860229e+02    2.3562100220e+02
    1.2719786835e+02    2.3586898804e+02
    1.2729859924e+02    2.3611898804e+02
    1.2739785767e+02    2.3636398315e+02
    1.2749819946e+02    2.3661201477e+02
    1.2759848785e+02    2.3685700989e+02
    1.2769754028e+02    2.3709899902e+02
    1.2779773712e+02    2.3734201050e+02
    1.2789790344e+02    2.3758398438e+02
    1.2799800873e+02    2.3782501221e+02
    1.2809808350e+02    2.3806500244e+02
    1.2819810486e+02    2.3830300903e+02
    1.2829808044e+02    2.3853997803e+02
    1.2839802551e+02    2.3877600098e+02
    1.2849790955e+02    2.3901199341e+02
    1.2859774780e+02    2.3924499512e+02
    1.2869755554e+02    2.3947698975e+02
    1.2879852295e+02    2.3971099854e+02
    1.2889823914e+02    2.3994201660e+02
    1.2899792480e+02    2.4017100525e+02
    1.2909756470e+02    2.4040000916e+02
    1.2919834900e+02    2.4062899780e+02
    1.2929791260e+02    2.4085501099e+02
    1.2939862061e+02    2.4108200073e+02
    1.2949809265e+02    2.4130699158e+02
    1.2959753418e+02    2.4152899170e+02
    1.2969813538e+02    2.4175299072e+02
    1.2979869080e+02    2.4197601318e+02
    1.2989801025e+02    2.4219599915e+02
    1.2999848938e+02    2.4241598511e+02
    1.3009773254e+02    2.4263400269e+02
    1.3019813538e+02    2.4285398865e+02
    1.3029850769e+02    2.4307099915e+02
    1.3039758301e+02    2.4328599548e+02
    1.3049763489e+02    2.4350100708e+02
    1.3059863281e+02    2.4371701050e+02
    1.3069819641e+02    2.4392999268e+02
    1.3079870605e+02    2.4414399719e+02
    1.3089778137e+02    2.4435398865e+02
    1.3099780273e+02    2.4456500244e+02
    1.3109875488e+02    2.4477699280e+02
    1.3119830322e+02    2.4498498535e+02
    1.3129879761e+02    2.4519400024e+02
    1.3139787292e+02    2.4540000916e+02
    1.3149786377e+02    2.4560700989e+02
    1.3159881592e+02    2.4581399536e+02
    1.3169833374e+02    2.4601901245e+02
    1.3179881287e+02    2.4622398376e+02
    1.3189787292e+02    2.4642500305e+02
    1.3199787903e+02    2.4662799072e+02
    1.3209878540e+02    2.4683099365e+02
    1.3219833374e+02    2.4703201294e+02
    1.3229878235e+02    2.4723298645e+02
    1.3239787292e+02    2.4743099976e+02
    1.3249792480e+02    2.4762998962e+02
    1.3259883118e+02    2.4783000183e+02
    1.3269854736e+02    2.4802699280e+02
    1.3279786682e+02    2.4822099304e+02
    1.3289810181e+02    2.4841799927e+02
    1.3299827576e+02    2.4861299133e+02
    1.3309805298e+02    2.4880700684e+02
    1.3319874573e+02    2.4900201416e+02
    1.3329808044e+02    2.4919400024e+02
    1.3339831543e+02    2.4938699341e+02
    1.3349835205e+02    2.4957800293e+02
    1.3359814453e+02    2.4976899719e+02
    1.3369885254e+02    2.4996099854e+02
    1.3379823303e+02    2.5014901733e+02
    1.3389868164e+02    2.5033799744e+02
    1.3399873352e+02    2.5052699280e+02
    1.3409857178e+02    2.5071400452e+02
    1.3419830322e+02    2.5090000916e+02
    1.3429882812e+02    2.5108700562e+02
    1.3439819336e+02    2.5127200317e+02
    1.3449829102e+02    2.5145700073e+02
    1.3459822083e+02    2.5164100647e+02
    1.3469898987e+02    2.5182501221e+02
    1.3479847717e+02    2.5200700378e+02
    1.3489883423e+02    2.5218901062e+02
    1.3499798584e+02    2.5236900330e+02
    1.3509901428e+02    2.5255198669e+02
    1.3519877625e+02    2.5273098755e+02
    1.3529833984e+02    2.5290998840e+02
    1.3539877319e+02    2.5308900452e+02
    1.3549899292e+02    2.5326701355e+02
    1.3559904480e+02    2.5344401550e+02
    1.3569888306e+02    2.5362098694e+02
    1.3579853821e+02    2.5379600525e+02
    1.3589906311e+02    2.5397198486e+02
    1.3599833679e+02    2.5414398193e+02
    1.3609848022e+02    2.5431900024e+02
    1.3619844055e+02    2.5449198914e+02
    1.3629820251e+02    2.5466300964e+02
    1.3639883423e+02    2.5483599854e+02
    1.3649824524e+02    2.5500500488e+02
    1.3659851074e+02    2.5517601013e+02
    1.3669859314e+02    2.5534600830e+02
    1.3679849243e+02    2.5551399231e+02
    1.3689822388e+02    2.5568199158e+02
    1.3699879456e+02    2.5584899902e+02
    1.3709840393e+02    2.5601501465e+02
    1.3719862366e+02    2.5618200684e+02
    1.3729872131e+02    2.5634600830e+02
    1.3739859009e+02    2.5651098633e+02
    1.3749833679e+02    2.5667401123e+02
    1.3759890747e+02    2.5683798218e+02
    1.3769825745e+02    2.5699899292e+02
    1.3779847717e+02    2.5716000366e+02
    1.3789852905e+02    2.5732098389e+02
    1.3799841309e+02    2.5748001099e+02
    1.3809915161e+02    2.5764099121e+02
    1.3819885254e+02    2.5779901123e+02
    1.3829823303e+02    2.5795498657e+02
    1.3839846802e+02    2.5811297607e+02
    1.3849853516e+02    2.5826898193e+02
    1.3859844971e+02    2.5842398071e+02
    1.3869920349e+02    2.5857897949e+02
    1.3879879761e+02    2.5873300171e+02
    1.3889923096e+02    2.5888696289e+02
    1.3899880981e+02    2.5903802490e+02
    1.3909892273e+02    2.5919000244e+02
    1.3919888306e+02    2.5934100342e+02
    1.3929876709e+02    2.5949099731e+02
    1.3939854431e+02    2.5963998413e+02
    1.3949902344e+02    2.5978900146e+02
    1.3959837341e+02    2.5993600464e+02
    1.3969856262e+02    2.6008300781e+02
    1.3979879761e+02    2.6022998047e+02
    1.3989868164e+02    2.6037399292e+02
    1.3999841309e+02    2.6051800537e+02
    1.4009899902e+02    2.6066400146e+02
    1.4019845581e+02    2.6080599976e+02
    1.4029873657e+02    2.6094900513e+02
    1.4039886475e+02    2.6108999634e+02
    1.4049887085e+02    2.6123199463e+02
    1.4059872437e+02    2.6137103271e+02
    1.4069842529e+02    2.6150900269e+02
    1.4079896545e+02    2.6164898682e+02
    1.4089936829e+02    2.6178698730e+02
    1.4099865723e+02    2.6192297363e+02
    1.4109895325e+02    2.6205999756e+02
    1.4119894409e+02    2.6219500732e+02
    1.4129879761e+02    2.6232998657e+02
    1.4139865112e+02    2.6246398926e+02
    1.4149919128e+02    2.6259698486e+02
    1.4159869385e+02    2.6272900391e+02
    1.4169932556e+02    2.6286099243e+02
    1.4179849243e+02    2.6298999023e+02
    1.4189875793e+02    2.6312100220e+02
    1.4199880981e+02    2.6325000000e+02
    1.4209855652e+02    2.6337799072e+02
    1.4219941711e+02    2.6350701904e+02
    1.4229914856e+02    2.6363403320e+02
    1.4239875793e+02    2.6376000977e+02
    1.4249894714e+02    2.6388598633e+02
    1.4259927368e+02    2.6401000977e+02
    1.4269920349e+02    2.6413400269e+02
    1.4279902649e+02    2.6425698853e+02
    1.4289901733e+02    2.6437899780e+02
    1.4299882507e+02    2.6450000000e+02
    1.4309951782e+02    2.6462200928e+02
    1.4319917297e+02    2.6474200439e+02
    1.4329884338e+02    2.6486099243e+02
    1.4339912415e+02    2.6498004150e+02
    1.4349906921e+02    2.6509698486e+02
    1.4359890747e+02    2.6521401978e+02
    1.4369906616e+02    2.6533102417e+02
    1.4379867554e+02    2.6544604492e+02
    1.4389912415e+02    2.6556198120e+02
    1.4399870300e+02    2.6567498779e+02
    1.4409918213e+02    2.6578900146e+02
    1.4419949341e+02    2.6590298462e+02
    1.4429870605e+02    2.6601400757e+02
    1.4439881897e+02    2.6612603760e+02
    1.4449955750e+02    2.6623703003e+02
    1.4459950256e+02    2.6634698486e+02
    1.4469938660e+02    2.6645501709e+02
    1.4479905701e+02    2.6656399536e+02
    1.4489956665e+02    2.6667202759e+02
    1.4499957275e+02    2.6677999878e+02
    1.4509878540e+02    2.6688500977e+02
    1.4519944763e+02    2.6699102783e+02
    1.4529890442e+02    2.6709597778e+02
    1.4539961243e+02    2.6720101929e+02
    1.4549961853e+02    2.6730496216e+02
    1.4559889221e+02    2.6740698242e+02
    1.4569892883e+02    2.6750900269e+02
    1.4579954529e+02    2.6761099243e+02
    1.4589924622e+02    2.6771200562e+02
    1.4599928284e+02    2.6781198120e+02
    1.4609957886e+02    2.6791201782e+02
    1.4619931030e+02    2.6801004028e+02
    1.4629879761e+02    2.6810803223e+02
    1.4639927673e+02    2.6820602417e+02
    1.4649961853e+02    2.6830297852e+02
    1.4659951782e+02    2.6839901733e+02
    1.4669927979e+02    2.6849398804e+02
    1.4679934692e+02    2.6858898926e+02
    1.4689935303e+02    2.6868301392e+02
    1.4699961853e+02    2.6877600098e+02
    1.4709907532e+02    2.6886798096e+02
    1.4719888306e+02    2.6895901489e+02
    1.4729963684e+02    2.6905200195e+02
    1.4739949036e+02    2.6914196777e+02
    1.4749925232e+02    2.6923199463e+02
    1.4759939575e+02    2.6932098389e+02
    1.4769894409e+02    2.6940899658e+02
    1.4779945374e+02    2.6949697876e+02
    1.4789938354e+02    2.6958401489e+02
    1.4799905396e+02    2.6966998291e+02
    1.4809904480e+02    2.6975598145e+02
    1.4819969177e+02    2.6984197998e+02
    1.4829957581e+02    2.6992599487e+02
    1.4839956665e+02    2.7000897217e+02
    1.4849960327e+02    2.7009197998e+02
    1.4859936523e+02    2.7017501831e+02
    1.4869955444e+02    2.7025598145e+02
    1.4879942322e+02    2.7033697510e+02
    1.4889913940e+02    2.7041699219e+02
    1.4899902344e+02    2.7049603271e+02
    1.4909927368e+02    2.7057501221e+02
    1.4919938660e+02    2.7065402222e+02
    1.4929957581e+02    2.7073098755e+02
    1.4939952087e+02    2.7080700684e+02
    1.4949938965e+02    2.7088296509e+02
    1.4959913635e+02    2.7095901489e+02
    1.4969970703e+02    2.7103298950e+02
    1.4979908752e+02    2.7110699463e+02
    1.4989956665e+02    2.7117996216e+02
    1.4999931335e+02    2.7125201416e+02
    1.5009954834e+02    2.7132397461e+02
    1.5019914246e+02    2.7139498901e+02
    1.5029957581e+02    2.7146499634e+02
    1.5039985657e+02    2.7153500366e+02
    1.5049926758e+02    2.7160400391e+02
    1.5059939575e+02    2.7167202759e+02
    1.5069973755e+02    2.7173999023e+02
    1.5079986572e+02    2.7180700684e+02
    1.5089990234e+02    2.7187298584e+02
    1.5099978638e+02    2.7193798828e+02
    1.5109954834e+02    2.7200198364e+02
    1.5119917297e+02    2.7206597900e+02
    1.5129942322e+02    2.7213003540e+02
    1.5139991760e+02    2.7219299316e+02
    1.5149977112e+02    2.7225497437e+02
    1.5159939575e+02    2.7231497192e+02
    1.5169995117e+02    2.7237600708e+02
    1.5179971313e+02    2.7243597412e+02
    1.5189949036e+02    2.7249499512e+02
    1.5199981689e+02    2.7255300903e+02
    1.5209924316e+02    2.7261096191e+02
    1.5219953918e+02    2.7266796875e+02
    1.5229981995e+02    2.7272399902e+02
    1.5239921570e+02    2.7278002930e+02
    1.5249949646e+02    2.7283499146e+02
    1.5259974670e+02    2.7288900757e+02
    1.5269999695e+02    2.7294299316e+02
    1.5279936218e+02    2.7299600220e+02
    1.5289959717e+02    2.7304699707e+02
    1.5299981689e+02    2.7309896851e+02
    1.5310005188e+02    2.7315002441e+02
    1.5319940186e+02    2.7319897461e+02
    1.5329962158e+02    2.7324899292e+02
    1.5339984131e+02    2.7329699707e+02
    1.5350006104e+02    2.7334500122e+02
    1.5359941101e+02    2.7339199829e+02
    1.5369963074e+02    2.7343896484e+02
    1.5379986572e+02    2.7348501587e+02
    1.5390008545e+02    2.7353002930e+02
    1.5399945068e+02    2.7357397461e+02
    1.5409968567e+02    2.7361801147e+02
    1.5419993591e+02    2.7366101074e+02
    1.5430018616e+02    2.7370303345e+02
    1.5439959717e+02    2.7374502563e+02
    1.5449986267e+02    2.7378598022e+02
    1.5460014343e+02    2.7382498169e+02
    1.5469956970e+02    2.7386502075e+02
    1.5479989624e+02    2.7390396118e+02
    1.5490020752e+02    2.7394198608e+02
    1.5499967957e+02    2.7397900391e+02
    1.5510003662e+02    2.7401599121e+02
    1.5519953918e+02    2.7405099487e+02
    1.5529992676e+02    2.7408599854e+02
    1.5539945984e+02    2.7412002563e+02
    1.5549989319e+02    2.7415399170e+02
    1.5559947205e+02    2.7418701172e+02
    1.5569993591e+02    2.7422000122e+02
    1.5579957581e+02    2.7425000000e+02
    1.5590008545e+02    2.7428198242e+02
    1.5599975586e+02    2.7431100464e+02
    1.5610032654e+02    2.7433999634e+02
    1.5620004272e+02    2.7436801147e+02
    1.5629978943e+02    2.7439596558e+02
    1.5639956665e+02    2.7442300415e+02
    1.5650024414e+02    2.7444796753e+02
    1.5660008240e+02    2.7447402954e+02
    1.5669996643e+02    2.7449902344e+02
    1.5679986572e+02    2.7452197266e+02
    1.5689979553e+02    2.7454501343e+02
    1.5699978638e+02    2.7456698608e+02
    1.5709979248e+02    2.7458801270e+02
    1.5719981384e+02    2.7460800171e+02
    1.5729988098e+02    2.7462799072e+02
    1.5739993286e+02    2.7464602661e+02
    1.5750003052e+02    2.7466400146e+02
    1.5759974670e+02    2.7468103027e+02
    1.5769970703e+02    2.7469799805e+02
    1.5779977417e+02    2.7471298218e+02
    1.5789981079e+02    2.7472796631e+02
    1.5799992371e+02    2.7474096680e+02
    1.5810000610e+02    2.7475399780e+02
    1.5819982910e+02    2.7476602173e+02
    1.5829977417e+02    2.7477798462e+02
    1.5840010071e+02    2.7478799438e+02
    1.5850013733e+02    2.7479699707e+02
    1.5860008240e+02    2.7480499268e+02
    1.5870001221e+02    2.7481301880e+02
    1.5879986572e+02    2.7481903076e+02
    1.5889981079e+02    2.7482501221e+02
    1.5899967957e+02    2.7482998657e+02
    1.5909985352e+02    2.7483300781e+02
    1.5919996643e+02    2.7483599854e+02
    1.5930046082e+02    2.7483801270e+02
    1.5940036011e+02    2.7483901978e+02
    1.5949981689e+02    2.7483901978e+02
    1.5960020447e+02    2.7483801270e+02
    1.5969995117e+02    2.7483602905e+02
    1.5980052185e+02    2.7483297729e+02
    1.5990022278e+02    2.7482897949e+02
    1.6000009155e+02    2.7482501221e+02
    1.6010003662e+02    2.7481903076e+02
    1.6019999695e+02    2.7481198120e+02
    1.6029968262e+02    2.7480398560e+02
    1.6039982605e+02    2.7479501343e+02
    1.6050032043e+02    2.7478598022e+02
    1.6060058594e+02    2.7477499390e+02
    1.6069982910e+02    2.7476300049e+02
    1.6079980469e+02    2.7474899292e+02
    1.6090031433e+02    2.7473501587e+02
    1.6099981689e+02    2.7471997070e+02
    1.6109988403e+02    2.7470303345e+02
    1.6120008850e+02    2.7468600464e+02
    1.6129977417e+02    2.7466702271e+02
    1.6139982605e+02    2.7464801025e+02
    1.6149975586e+02    2.7462597656e+02
    1.6160055542e+02    2.7460498047e+02
    1.6169982910e+02    2.7458099365e+02
    1.6180021667e+02    2.7455801392e+02
    1.6190063477e+02    2.7453201294e+02
    1.6200015259e+02    2.7450500488e+02
    1.6210058594e+02    2.7447799683e+02
    1.6219993591e+02    2.7444897461e+02
    1.6230038452e+02    2.7441900635e+02
    1.6240049744e+02    2.7438702393e+02
    1.6250033569e+02    2.7435498047e+02
    1.6260064697e+02    2.7432098389e+02
    1.6269995117e+02    2.7428598022e+02
    1.6280015564e+02    2.7425003052e+02
    1.6290011597e+02    2.7421298218e+02
    1.6299986267e+02    2.7417398071e+02
    1.6310067749e+02    2.7413400269e+02
    1.6320039368e+02    2.7409298706e+02
    1.6330000305e+02    2.7405096436e+02
    1.6340058899e+02    2.7400695801e+02
    1.6350056458e+02    2.7396197510e+02
    1.6360023499e+02    2.7391601562e+02
    1.6370050049e+02    2.7386798096e+02
    1.6380073547e+02    2.7381903076e+02
    1.6389987183e+02    2.7376904297e+02
    1.6400068665e+02    2.7371704102e+02
    1.6410026550e+02    2.7366497803e+02
    1.6420036316e+02    2.7360998535e+02
    1.6430067444e+02    2.7355401611e+02
    1.6440029907e+02    2.7349804688e+02
    1.6450018311e+02    2.7344000244e+02
    1.6460017395e+02    2.7338000488e+02
    1.6470022583e+02    2.7331805420e+02
    1.6480079651e+02    2.7325500488e+02
    1.6489991760e+02    2.7319195557e+02
    1.6500007629e+02    2.7312597656e+02
    1.6510011292e+02    2.7305902100e+02
    1.6520007324e+02    2.7299096680e+02
    1.6530070496e+02    2.7292095947e+02
    1.6540031433e+02    2.7285003662e+02
    1.6550004578e+02    2.7277697754e+02
    1.6560075378e+02    2.7270202637e+02
    1.6570083618e+02    2.7262695312e+02
    1.6580020142e+02    2.7255096436e+02
    1.6590058899e+02    2.7247100830e+02
    1.6600056458e+02    2.7239196777e+02
    1.6610064697e+02    2.7230999756e+02
    1.6620036316e+02    2.7222705078e+02
    1.6630055237e+02    2.7214196777e+02
    1.6640071106e+02    2.7205603027e+02
    1.6650022888e+02    2.7196905518e+02
    1.6660006714e+02    2.7188000488e+02
    1.6670086670e+02    2.7178900146e+02
    1.6680084229e+02    2.7169696045e+02
    1.6690057373e+02    2.7160302734e+02
    1.6700091553e+02    2.7150799561e+02
    1.6710006714e+02    2.7141198730e+02
    1.6720083618e+02    2.7131396484e+02
    1.6730006409e+02    2.7121398926e+02
    1.6740080261e+02    2.7111297607e+02
    1.6750091553e+02    2.7101000977e+02
    1.6760099792e+02    2.7090502930e+02
    1.6770051575e+02    2.7079998779e+02
    1.6780023193e+02    2.7069299316e+02
    1.6790037537e+02    2.7058294678e+02
    1.6800044250e+02    2.7047296143e+02
    1.6810040283e+02    2.7035998535e+02
    1.6820074463e+02    2.7024597168e+02
    1.6830010986e+02    2.7013201904e+02
    1.6840040588e+02    2.7001403809e+02
    1.6850057983e+02    2.6989599609e+02
    1.6860052490e+02    2.6977600098e+02
    1.6870013428e+02    2.6965399170e+02
    1.6880018616e+02    2.6953100586e+02
    1.6890011597e+02    2.6940594482e+02
    1.6900062561e+02    2.6927801514e+02
    1.6910049438e+02    2.6915093994e+02
    1.6920092773e+02    2.6902099609e+02
    1.6930049133e+02    2.6888995361e+02
    1.6940107727e+02    2.6875695801e+02
    1.6950103760e+02    2.6862200928e+02
    1.6960075378e+02    2.6848602295e+02
    1.6970019531e+02    2.6834899902e+02
    1.6980090332e+02    2.6820800781e+02
    1.6990043640e+02    2.6806799316e+02
    1.7000082397e+02    2.6792498779e+02
    1.7010118103e+02    2.6777899170e+02
    1.7020057678e+02    2.6763403320e+02
    1.7030107117e+02    2.6748498535e+02
    1.7040060425e+02    2.6733697510e+02
    1.7050090027e+02    2.6718505859e+02
    1.7060119629e+02    2.6703198242e+02
    1.7070028687e+02    2.6687799072e+02
    1.7080113220e+02    2.6672100830e+02
    1.7090086365e+02    2.6656298828e+02
    1.7100097656e+02    2.6640399170e+02
    1.7110116577e+02    2.6624200439e+02
    1.7120042419e+02    2.6607995605e+02
    1.7130075073e+02    2.6591497803e+02
    1.7140098572e+02    2.6574804688e+02
    1.7150091553e+02    2.6558001709e+02
    1.7160075378e+02    2.6540997314e+02
    1.7170062256e+02    2.6523901367e+02
    1.7180097961e+02    2.6506500244e+02
    1.7190083313e+02    2.6489105225e+02
    1.7200070190e+02    2.6471398926e+02
    1.7210086060e+02    2.6453497314e+02
    1.7220103455e+02    2.6435400391e+02
    1.7230081177e+02    2.6417297363e+02
    1.7240043640e+02    2.6398999023e+02
    1.7250068665e+02    2.6380401611e+02
    1.7260050964e+02    2.6361700439e+02
    1.7270115662e+02    2.6342700195e+02
    1.7280047607e+02    2.6323803711e+02
    1.7290126038e+02    2.6304400635e+02
    1.7300088501e+02    2.6284997559e+02
    1.7310064697e+02    2.6265502930e+02
    1.7320086670e+02    2.6245697021e+02
    1.7330096436e+02    2.6225695801e+02
    1.7340043640e+02    2.6205700684e+02
    1.7350059509e+02    2.6185400391e+02
    1.7360043335e+02    2.6164898682e+02
    1.7370091248e+02    2.6144195557e+02
    1.7380102539e+02    2.6123303223e+02
    1.7390107727e+02    2.6102301025e+02
    1.7400047302e+02    2.6081298828e+02
    1.7410133362e+02    2.6059698486e+02
    1.7420132446e+02    2.6038098145e+02
    1.7430119324e+02    2.6016400146e+02
    1.7440118408e+02    2.5994500732e+02
    1.7450140381e+02    2.5972302246e+02
    1.7460093689e+02    2.5950201416e+02
    1.7470065308e+02    2.5927703857e+02
    1.7480053711e+02    2.5905102539e+02
    1.7490118408e+02    2.5882098389e+02
    1.7500080872e+02    2.5859197998e+02
    1.7510136414e+02    2.5835900879e+02
    1.7520091248e+02    2.5812597656e+02
    1.7530137634e+02    2.5789001465e+02
    1.7540089417e+02    2.5765399170e+02
    1.7550129700e+02    2.5741400146e+02
    1.7560122681e+02    2.5717297363e+02
    1.7570129395e+02    2.5693103027e+02
    1.7580072021e+02    2.5668701172e+02
    1.7590115356e+02    2.5644000244e+02
    1.7600111389e+02    2.5619201660e+02
    1.7610133362e+02    2.5594104004e+02
    1.7620147705e+02    2.5568902588e+02
    1.7630059814e+02    2.5543798828e+02
    1.7640130615e+02    2.5518103027e+02
    1.7650149536e+02    2.5492297363e+02
    1.7660069275e+02    2.5466601562e+02
    1.7670108032e+02    2.5440295410e+02
    1.7680154419e+02    2.5414300537e+02
    1.7690115356e+02    2.5387805176e+02
    1.7700155640e+02    2.5360498047e+02
    1.7710087585e+02    2.5334002686e+02
    1.7720103455e+02    2.5307696533e+02
    1.7730096436e+02    2.5279699707e+02
    1.7740150452e+02    2.5252203369e+02
    1.7750146484e+02    2.5224597168e+02
    1.7760081482e+02    2.5198004150e+02
    1.7770147705e+02    2.5169696045e+02
    1.7780126953e+02    2.5141699219e+02
    1.7790153503e+02    2.5113696289e+02
    1.7800108337e+02    2.5084899902e+02
    1.7810142517e+02    2.5056195068e+02
    1.7820164490e+02    2.5027697754e+02
    1.7830134583e+02    2.4998901367e+02
    1.7840086365e+02    2.4970202637e+02
    1.7850117493e+02    2.4940795898e+02
    1.7860098267e+02    2.4911199951e+02
    1.7870146179e+02    2.4880999756e+02
    1.7880123901e+02    2.4852008057e+02
    1.7890112305e+02    2.4821594238e+02
    1.7900146484e+02    2.4792102051e+02
    1.7910112000e+02    2.4761700439e+02
    1.7920130920e+02    2.4731091309e+02
    1.7930143738e+02    2.4700299072e+02
    1.7940081787e+02    2.4669897461e+02
    1.7950115967e+02    2.4638305664e+02
    1.7960131836e+02    2.4607897949e+02
    1.7970129395e+02    2.4576599121e+02
    1.7980116272e+02    2.4545404053e+02
    1.7990165710e+02    2.4513696289e+02
    1.8000149536e+02    2.4482098389e+02
    1.8010122681e+02    2.4449499512e+02
    1.8020141602e+02    2.4417803955e+02
    1.8030102539e+02    2.4386096191e+02
    1.8040107727e+02    2.4353198242e+02
    1.8050177002e+02    2.4320904541e+02
    1.8060121155e+02    2.4287896729e+02
    1.8070108032e+02    2.4254901123e+02
    1.8080181885e+02    2.4221905518e+02
    1.8090136719e+02    2.4188995361e+02
    1.8100175476e+02    2.4155401611e+02
    1.8110098267e+02    2.4122802734e+02
    1.8120123291e+02    2.4088995361e+02
    1.8130085754e+02    2.4055200195e+02
    1.8140144348e+02    2.4020404053e+02
    1.8150132751e+02    2.3986798096e+02
    1.8160087585e+02    2.3952697754e+02
    1.8170126343e+02    2.3918701172e+02
    1.8180177307e+02    2.3884295654e+02
    1.8190188599e+02    2.3849499512e+02
    1.8200180054e+02    2.3815008545e+02
    1.8210145569e+02    2.3779895020e+02
    1.8220179749e+02    2.3745202637e+02
    1.8230099487e+02    2.3710705566e+02
    1.8240165710e+02    2.3675000000e+02
    1.8250097656e+02    2.3639904785e+02
    1.8260156250e+02    2.3604095459e+02
    1.8270190430e+02    2.3568701172e+02
    1.8280162048e+02    2.3533508301e+02
    1.8290126038e+02    2.3498199463e+02
    1.8300140381e+02    2.3462805176e+02
    1.8310165405e+02    2.3426995850e+02
    1.8320101929e+02    2.3390899658e+02
    1.8330152893e+02    2.3355407715e+02
    1.8340127563e+02    2.3319299316e+02
    1.8350108337e+02    2.3282904053e+02
    1.8360169983e+02    2.3246795654e+02
    1.8370135498e+02    2.3210498047e+02
    1.8380201721e+02    2.3174096680e+02
    1.8390153503e+02    2.3137896729e+02
    1.8400143433e+02    2.3101806641e+02
    1.8410165405e+02    2.3065997314e+02
    1.8420112610e+02    2.3029602051e+02
    1.8430166626e+02    2.2992999268e+02
    1.8440147400e+02    2.2956903076e+02
    1.8450183105e+02    2.2919494629e+02
    1.8460177612e+02    2.2883905029e+02
    1.8470196533e+02    2.2846795654e+02
    1.8480131531e+02    2.2810302734e+02
    1.8490191650e+02    2.2774298096e+02
    1.8500172424e+02    2.2737799072e+02
    1.8510140991e+02    2.2701605225e+02
    1.8520138550e+02    2.2664697266e+02
    1.8530189514e+02    2.2628796387e+02
    1.8540139771e+02    2.2592901611e+02
    1.8550140381e+02    2.2555902100e+02
    1.8560128784e+02    2.2520300293e+02
    1.8570210266e+02    2.2483795166e+02
    1.8580142212e+02    2.2448498535e+02
    1.8590168762e+02    2.2412603760e+02
    1.8600212097e+02    2.2377899170e+02
    1.8610151672e+02    2.2344091797e+02
    1.8620208740e+02    2.2310998535e+02
    1.8630177307e+02    2.2278894043e+02
    1.8640180969e+02    2.2249804688e+02
    1.8650192261e+02    2.2221295166e+02
    1.8660124207e+02    2.2195599365e+02
    1.8670195007e+02    2.2171496582e+02
    1.8680143738e+02    2.2151202393e+02
    1.8690162659e+02    2.2133099365e+02
    1.8700183105e+02    2.2116406250e+02
    1.8710206604e+02    2.2102996826e+02
    1.8720172119e+02    2.2091802979e+02
    1.8730201721e+02    2.2082403564e+02
    1.8740222168e+02    2.2074597168e+02
    1.8750196838e+02    2.2069006348e+02
    1.8760180664e+02    2.2063299561e+02
    1.8770188904e+02    2.2058905029e+02
    1.8780152893e+02    2.2054797363e+02
    1.8790177917e+02    2.2052093506e+02
    1.8800141907e+02    2.2048498535e+02
    1.8810148621e+02    2.2045196533e+02
    1.8820179749e+02    2.2042602539e+02
    1.8830216980e+02    2.2039801025e+02
    1.8840191650e+02    2.2036096191e+02
    1.8850175476e+02    2.2033300781e+02
    1.8860208130e+02    2.2030596924e+02
    1.8870210266e+02    2.2027404785e+02
    1.8880140686e+02    2.2025402832e+02
    1.8890153503e+02    2.2021893311e+02
    1.8900181580e+02    2.2019201660e+02
    1.8910205078e+02    2.2016497803e+02
    1.8920150757e+02    2.2014093018e+02
    1.8930158997e+02    2.2010705566e+02
    1.8940191650e+02    2.2008697510e+02
    1.8950215149e+02    2.2005993652e+02
    1.8960197449e+02    2.2003002930e+02
    1.8970230103e+02    2.2001000977e+02
    1.8980216980e+02    2.1997998047e+02
    1.8990217590e+02    2.1995001221e+02
    1.9000238037e+02    2.1992999268e+02
    1.9010208130e+02    2.1989996338e+02
    1.9020217896e+02    2.1988006592e+02
    1.9030160522e+02    2.1984997559e+02
    1.9040144348e+02    2.1982995605e+02
    1.9050209045e+02    2.1981005859e+02
    1.9060163879e+02    2.1978002930e+02
    1.9070225525e+02    2.1976000977e+02
    1.9080186462e+02    2.1971997070e+02
    1.9090216064e+02    2.1970001221e+02
    1.9100163269e+02    2.1967999268e+02
    1.9110241699e+02    2.1964996338e+02
    1.9120152283e+02    2.1963000488e+02
    1.9130183411e+02    2.1959997559e+02
    1.9140191650e+02    2.1957995605e+02
    1.9150158691e+02    2.1954992676e+02
    1.9160174561e+02    2.1953002930e+02
    1.9170182800e+02    2.1950000000e+02
    1.9180215454e+02    2.1946997070e+02
    1.9190231323e+02    2.1944995117e+02
    1.9200175476e+02    2.1942004395e+02
    1.9210197449e+02    2.1940002441e+02
    1.9220213318e+02    2.1938000488e+02
    1.9230197144e+02    2.1934997559e+02
    1.9240223694e+02    2.1932995605e+02
    1.9250227356e+02    2.1930004883e+02
    1.9260182190e+02    2.1927001953e+02
    1.9270199585e+02    2.1925000000e+02
    1.9280183411e+02    2.1921997070e+02
    1.9290235901e+02    2.1920007324e+02
    1.9300166321e+02    2.1917004395e+02
    1.9310250854e+02    2.1914001465e+02
    1.9320251465e+02    2.1911999512e+02
    1.9330160522e+02    2.1908996582e+02
    1.9340179443e+02    2.1907006836e+02
    1.9350242615e+02    2.1904003906e+02
    1.9360249329e+02    2.1901000977e+02
    1.9370210266e+02    2.1897998047e+02
    1.9380180359e+02    2.1895996094e+02
    1.9390205383e+02    2.1892004395e+02
    1.9400172424e+02    2.1889001465e+02
    1.9410244751e+02    2.1885998535e+02
    1.9420237732e+02    2.1882995605e+02
    1.9430198669e+02    2.1880993652e+02
    1.9440190125e+02    2.1877001953e+02
    1.9450216675e+02    2.1873999023e+02
    1.9460191345e+02    2.1871008301e+02
    1.9470254517e+02    2.1867004395e+02
    1.9480212402e+02    2.1864001465e+02
    1.9490194702e+02    2.1860998535e+02
    1.9500192261e+02    2.1856994629e+02
    1.9510194397e+02    2.1852990723e+02
    1.9520260620e+02    2.1850000000e+02
    1.9530210876e+02    2.1845007324e+02
    1.9540211487e+02    2.1842004395e+02
    1.9550262451e+02    2.1838000488e+02
    1.9560252380e+02    2.1834997559e+02
    1.9570233154e+02    2.1830004883e+02
    1.9580212402e+02    2.1826000977e+02
    1.9590173340e+02    2.1821997070e+02
    1.9600172424e+02    2.1817993164e+02
    1.9610188293e+02    2.1813989258e+02
    1.9620175171e+02    2.1810009766e+02
    1.9630194092e+02    2.1805004883e+02
    1.9640177917e+02    2.1801000977e+02
    1.9650169373e+02    2.1796997070e+02
    1.9660223389e+02    2.1792004395e+02
    1.9670198059e+02    2.1786999512e+02
    1.9680163574e+02    2.1782995605e+02
    1.9690179443e+02    2.1778002930e+02
    1.9700262451e+02    2.1772998047e+02
    1.9710186768e+02    2.1768994141e+02
    1.9720242310e+02    2.1764001465e+02
    1.9730253601e+02    2.1757995605e+02
    1.9740184021e+02    2.1752990723e+02
    1.9750230408e+02    2.1747998047e+02
    1.9760238647e+02    2.1742993164e+02
    1.9770219421e+02    2.1737011719e+02
    1.9780210876e+02    2.1732006836e+02
    1.9790199280e+02    2.1727001953e+02
    1.9800271606e+02    2.1721008301e+02
    1.9810273743e+02    2.1716003418e+02
    1.9820214844e+02    2.1710009766e+02
    1.9830227661e+02    2.1704003906e+02
    1.9840281677e+02    2.1698010254e+02
    1.9850262451e+02    2.1692004395e+02
    1.9860205078e+02    2.1685998535e+02
    1.9870239258e+02    2.1681005859e+02
    1.9880226135e+02    2.1673999023e+02
    1.9890255737e+02    2.1669006348e+02
    1.9900198364e+02    2.1661999512e+02
    1.9910218811e+02    2.1656005859e+02
    1.9920195007e+02    2.1650000000e+02
    1.9930256653e+02    2.1643005371e+02
    1.9940278625e+02    2.1636999512e+02
    1.9950292969e+02    2.1630004883e+02
    1.9960250854e+02    2.1623999023e+02
    1.9970246887e+02    2.1617004395e+02
    1.9980293274e+02    2.1610009766e+02
    1.9990243530e+02    2.1603002930e+02
endcurve
