Curveplot
LS-DYNA keyword deck by LS-PrePost
Abscissa
Ordinate
XY data
NBDLHeadzCoo-1 #pts=2000
* Minval=    -9.4606903076e+01 at time=       186.0021209717
* Maxval=     1.5358110046e+02 at time=         0.0000000000
    0.0000000000e+00    1.5358110046e+02
    9.9464751780e-02    1.5358110046e+02
    1.9892950356e-01    1.5358110046e+02
    2.9839426279e-01    1.5358110046e+02
    3.9954483509e-01    1.5358110046e+02
    4.9900957942e-01    1.5358110046e+02
    5.9847432375e-01    1.5358110046e+02
    6.9962495565e-01    1.5358110046e+02
    7.9908967018e-01    1.5358110046e+02
    8.9855444431e-01    1.5358110046e+02
    9.9970501661e-01    1.5358110046e+02
    1.0991698503e+00    1.5358110046e+02
    1.1986345053e+00    1.5358110046e+02
    1.2997851372e+00    1.5358110046e+02
    1.3992499113e+00    1.5358110046e+02
    1.4987145662e+00    1.5358110046e+02
    1.5998651981e+00    1.5358110046e+02
    1.6993299723e+00    1.5358110046e+02
    1.7987947464e+00    1.5358110046e+02
    1.8999452591e+00    1.5358110046e+02
    1.9994101524e+00    1.5358110046e+02
    2.0988748074e+00    1.5358110046e+02
    2.1986999512e+00    1.5358110046e+02
    2.2986774445e+00    1.5358110046e+02
    2.3991062641e+00    1.5358110046e+02
    2.4991796017e+00    1.5358110046e+02
    2.5991067886e+00    1.5358110046e+02
    2.6998288631e+00    1.5358110046e+02
    2.7997393608e+00    1.5358110046e+02
    2.8984272480e+00    1.5358110046e+02
    2.9986796379e+00    1.5358110046e+02
    3.0987458229e+00    1.5358110046e+02
    3.1986906528e+00    1.5358110046e+02
    3.2984702587e+00    1.5358110046e+02
    3.3986670971e+00    1.5358110046e+02
    3.4991137981e+00    1.5358110046e+02
    3.5996179581e+00    1.5358110046e+02
    3.6997365952e+00    1.5358110046e+02
    3.7986326218e+00    1.5358110046e+02
    3.8987827301e+00    1.5358110046e+02
    3.9992113113e+00    1.5358110046e+02
    4.0991363525e+00    1.5358110046e+02
    4.1998057365e+00    1.5358110046e+02
    4.2995815277e+00    1.5358110046e+02
    4.3986425400e+00    1.5358110046e+02
    4.4988527298e+00    1.5358110046e+02
    4.5992980003e+00    1.5358110046e+02
    4.6995530128e+00    1.5358110046e+02
    4.7995667458e+00    1.5358110046e+02
    4.8994250298e+00    1.5358110046e+02
    4.9985380173e+00    1.5358110046e+02
    5.0985069275e+00    1.5358110046e+02
    5.1990633011e+00    1.5358110046e+02
    5.2988147736e+00    1.5358110046e+02
    5.3990836143e+00    1.5358110046e+02
    5.4991669655e+00    1.5358110046e+02
    5.5992689133e+00    1.5358110046e+02
    5.6996831894e+00    1.5358110046e+02
    5.7993988991e+00    1.5358110046e+02
    5.8999910355e+00    1.5358110046e+02
    5.9985179901e+00    1.5358110046e+02
    6.0984907150e+00    1.5358110046e+02
    6.1985912323e+00    1.5358110046e+02
    6.2984848022e+00    1.5358110046e+02
    6.3987789154e+00    1.5358110046e+02
    6.4990863800e+00    1.5358110046e+02
    6.5991644859e+00    1.5358110046e+02
    6.6992373466e+00    1.5358110046e+02
    6.7991309166e+00    1.5358110046e+02
    6.8989009857e+00    1.5358110046e+02
    6.9993338585e+00    1.5358110046e+02
    7.0992593765e+00    1.5358110046e+02
    7.1992936134e+00    1.5358110046e+02
    7.2992873192e+00    1.5358110046e+02
    7.3995070457e+00    1.5358110046e+02
    7.4983577728e+00    1.5358110046e+02
    7.5987811089e+00    1.5358110046e+02
    7.6988120079e+00    1.5358110046e+02
    7.7988924980e+00    1.5358110046e+02
    7.8991446495e+00    1.5358110046e+02
    7.9993166924e+00    1.5358110046e+02
    8.0983161926e+00    1.5358110046e+02
    8.1983575821e+00    1.5358110046e+02
    8.2987556458e+00    1.5358110046e+02
    8.3990488052e+00    1.5358110046e+02
    8.4994640350e+00    1.5358110046e+02
    8.5996160507e+00    1.5358110046e+02
    8.6984224319e+00    1.5358110046e+02
    8.7985639572e+00    1.5358110046e+02
    8.8987340927e+00    1.5358110046e+02
    8.9986667633e+00    1.5358110046e+02
    9.0984945297e+00    1.5358110046e+02
    9.1986894608e+00    1.5358110046e+02
    9.2992496490e+00    1.5358110046e+02
    9.3990201950e+00    1.5358110046e+02
    9.4991378784e+00    1.5358110046e+02
    9.5992937088e+00    1.5358110046e+02
    9.6990938187e+00    1.5358110046e+02
    9.7994260788e+00    1.5358110046e+02
    9.8993768692e+00    1.5358110046e+02
    9.9983377457e+00    1.5358110046e+02
    1.0099888802e+01    1.5358110046e+02
    1.0198369026e+01    1.5358110046e+02
    1.0298269272e+01    1.5358110046e+02
    1.0398350716e+01    1.5358110046e+02
    1.0498525620e+01    1.5358110046e+02
    1.0599317551e+01    1.5358110046e+02
    1.0699114799e+01    1.5358110046e+02
    1.0799380302e+01    1.5358110046e+02
    1.0899209976e+01    1.5358110046e+02
    1.0999124527e+01    1.5358110046e+02
    1.1099720001e+01    1.5358110046e+02
    1.1199398041e+01    1.5358110046e+02
    1.1299745560e+01    1.5358110046e+02
    1.1399800301e+01    1.5358110046e+02
    1.1498391151e+01    1.5358110046e+02
    1.1598672867e+01    1.5358110046e+02
    1.1698787689e+01    1.5358110046e+02
    1.1799027443e+01    1.5358110046e+02
    1.1899182320e+01    1.5358110046e+02
    1.1998995781e+01    1.5358110046e+02
    1.2099605560e+01    1.5358110046e+02
    1.2199348450e+01    1.5358110046e+02
    1.2299118996e+01    1.5358110046e+02
    1.2399628639e+01    1.5358110046e+02
    1.2499684334e+01    1.5358110046e+02
    1.2599778175e+01    1.5358110046e+02
    1.2698471069e+01    1.5358110046e+02
    1.2798683167e+01    1.5358110046e+02
    1.2898857117e+01    1.5358110046e+02
    1.2998766899e+01    1.5358110046e+02
    1.3098667145e+01    1.5358110046e+02
    1.3198554039e+01    1.5358110046e+02
    1.3298697472e+01    1.5358110046e+02
    1.3398798943e+01    1.5358110046e+02
    1.3499077797e+01    1.5358110046e+02
    1.3599443436e+01    1.5358110046e+02
    1.3699421883e+01    1.5358110046e+02
    1.3799566269e+01    1.5358110046e+02
    1.3899280548e+01    1.5358009338e+02
    1.3999036789e+01    1.5358009338e+02
    1.4099461555e+01    1.5358009338e+02
    1.4199855804e+01    1.5358009338e+02
    1.4299873352e+01    1.5358009338e+02
    1.4398596764e+01    1.5358009338e+02
    1.4498551369e+01    1.5358009338e+02
    1.4598521233e+01    1.5358009338e+02
    1.4699049950e+01    1.5358009338e+02
    1.4798724174e+01    1.5358009338e+02
    1.4899067879e+01    1.5358009338e+02
    1.4998707771e+01    1.5358009338e+02
    1.5098816872e+01    1.5358009338e+02
    1.5198865891e+01    1.5358009338e+02
    1.5298967361e+01    1.5358009338e+02
    1.5399066925e+01    1.5358009338e+02
    1.5498840332e+01    1.5358009338e+02
    1.5599705696e+01    1.5358009338e+02
    1.5699791908e+01    1.5358009338e+02
    1.5799840927e+01    1.5358009338e+02
    1.5899585724e+01    1.5358009338e+02
    1.5999482155e+01    1.5358009338e+02
    1.6099969864e+01    1.5358009338e+02
    1.6199874878e+01    1.5358009338e+02
    1.6299743652e+01    1.5358009338e+02
    1.6398675919e+01    1.5358009338e+02
    1.6498781204e+01    1.5358009338e+02
    1.6598438263e+01    1.5358009338e+02
    1.6699960709e+01    1.5358009338e+02
    1.6799886703e+01    1.5358009338e+02
    1.6898889542e+01    1.5358009338e+02
    1.6998659134e+01    1.5358009338e+02
    1.7099193573e+01    1.5358009338e+02
    1.7199359894e+01    1.5358009338e+02
    1.7299789429e+01    1.5358009338e+02
    1.7399484634e+01    1.5358009338e+02
    1.7499639511e+01    1.5358009338e+02
    1.7598409653e+01    1.5358009338e+02
    1.7698425293e+01    1.5358009338e+02
    1.7799877167e+01    1.5358009338e+02
    1.7898601532e+01    1.5358009338e+02
    1.7998731613e+01    1.5358009338e+02
    1.8098480225e+01    1.5358009338e+02
    1.8198526382e+01    1.5358009338e+02
    1.8298828125e+01    1.5358009338e+02
    1.8399112701e+01    1.5358009338e+02
    1.8499082565e+01    1.5358009338e+02
    1.8599678040e+01    1.5358009338e+02
    1.8698446274e+01    1.5358009338e+02
    1.8799272537e+01    1.5358009338e+02
    1.8899482727e+01    1.5358009338e+02
    1.8999813080e+01    1.5358009338e+02
    1.9099657059e+01    1.5358009338e+02
    1.9199693680e+01    1.5358009338e+02
    1.9299743652e+01    1.5358009338e+02
    1.9398843765e+01    1.5358009338e+02
    1.9499185562e+01    1.5358009338e+02
    1.9599376678e+01    1.5358009338e+02
    1.9699180603e+01    1.5358009338e+02
    1.9799371719e+01    1.5358009338e+02
    1.9899133682e+01    1.5358009338e+02
    1.9999694824e+01    1.5358009338e+02
    2.0099786758e+01    1.5358009338e+02
    2.0199699402e+01    1.5358009338e+02
    2.0298925400e+01    1.5358009338e+02
    2.0398746490e+01    1.5358009338e+02
    2.0499288559e+01    1.5358009338e+02
    2.0599138260e+01    1.5358009338e+02
    2.0698930740e+01    1.5358009338e+02
    2.0798713684e+01    1.5357910156e+02
    2.0898670197e+01    1.5357910156e+02
    2.0998989105e+01    1.5357910156e+02
    2.1099498749e+01    1.5357910156e+02
    2.1198448181e+01    1.5357910156e+02
    2.1298379898e+01    1.5357910156e+02
    2.1398607254e+01    1.5357910156e+02
    2.1498777390e+01    1.5357910156e+02
    2.1599153519e+01    1.5357910156e+02
    2.1699134827e+01    1.5357910156e+02
    2.1799959183e+01    1.5357910156e+02
    2.1898487091e+01    1.5357910156e+02
    2.1999759674e+01    1.5357910156e+02
    2.2100013733e+01    1.5357910156e+02
    2.2198736191e+01    1.5357910156e+02
    2.2298849106e+01    1.5357910156e+02
    2.2399023056e+01    1.5357910156e+02
    2.2499322891e+01    1.5357910156e+02
    2.2599504471e+01    1.5357910156e+02
    2.2698635101e+01    1.5357910156e+02
    2.2799161911e+01    1.5357910156e+02
    2.2899148941e+01    1.5357910156e+02
    2.2999515533e+01    1.5357910156e+02
    2.3099327087e+01    1.5357910156e+02
    2.3199447632e+01    1.5357910156e+02
    2.3299777985e+01    1.5357910156e+02
    2.3398378372e+01    1.5357910156e+02
    2.3499862671e+01    1.5357910156e+02
    2.3598663330e+01    1.5357910156e+02
    2.3698713303e+01    1.5357910156e+02
    2.3798517227e+01    1.5357910156e+02
    2.3898586273e+01    1.5357910156e+02
    2.3999416351e+01    1.5357910156e+02
    2.4098491669e+01    1.5357809448e+02
    2.4198650360e+01    1.5357809448e+02
    2.4298574448e+01    1.5357809448e+02
    2.4399946213e+01    1.5357809448e+02
    2.4499717712e+01    1.5357809448e+02
    2.4598659515e+01    1.5357809448e+02
    2.4698421478e+01    1.5357809448e+02
    2.4799865723e+01    1.5357809448e+02
    2.4898456573e+01    1.5357809448e+02
    2.4998699188e+01    1.5357809448e+02
    2.5098781586e+01    1.5357809448e+02
    2.5198881149e+01    1.5357809448e+02
    2.5298965454e+01    1.5357809448e+02
    2.5398784637e+01    1.5357809448e+02
    2.5498472214e+01    1.5357809448e+02
    2.5598590851e+01    1.5357809448e+02
    2.5698648453e+01    1.5357809448e+02
    2.5798614502e+01    1.5357809448e+02
    2.5899745941e+01    1.5357809448e+02
    2.5999759674e+01    1.5357809448e+02
    2.6098966599e+01    1.5357809448e+02
    2.6198661804e+01    1.5357809448e+02
    2.6298650742e+01    1.5357809448e+02
    2.6399919510e+01    1.5357809448e+02
    2.6498697281e+01    1.5357710266e+02
    2.6598573685e+01    1.5357710266e+02
    2.6698965073e+01    1.5357710266e+02
    2.6798671722e+01    1.5357710266e+02
    2.6899477005e+01    1.5357710266e+02
    2.6999570847e+01    1.5357710266e+02
    2.7099599838e+01    1.5357710266e+02
    2.7199653625e+01    1.5357710266e+02
    2.7299377441e+01    1.5357710266e+02
    2.7399536133e+01    1.5357710266e+02
    2.7499294281e+01    1.5357710266e+02
    2.7599193573e+01    1.5357710266e+02
    2.7699682236e+01    1.5357710266e+02
    2.7799293518e+01    1.5357710266e+02
    2.7899660110e+01    1.5357710266e+02
    2.7999788284e+01    1.5357710266e+02
    2.8099580765e+01    1.5357710266e+02
    2.8199626923e+01    1.5357710266e+02
    2.8299688339e+01    1.5357710266e+02
    2.8399671555e+01    1.5357609558e+02
    2.8500057220e+01    1.5357609558e+02
    2.8598949432e+01    1.5357609558e+02
    2.8698696136e+01    1.5357609558e+02
    2.8798583984e+01    1.5357609558e+02
    2.8898996353e+01    1.5357609558e+02
    2.8998733521e+01    1.5357609558e+02
    2.9098394394e+01    1.5357609558e+02
    2.9198890686e+01    1.5357609558e+02
    2.9298524857e+01    1.5357609558e+02
    2.9398719788e+01    1.5357609558e+02
    2.9498830795e+01    1.5357609558e+02
    2.9599346161e+01    1.5357609558e+02
    2.9699619293e+01    1.5357609558e+02
    2.9799938202e+01    1.5357609558e+02
    2.9898624420e+01    1.5357609558e+02
    2.9999065399e+01    1.5357609558e+02
    3.0099222183e+01    1.5357510376e+02
    3.0199186325e+01    1.5357510376e+02
    3.0299282074e+01    1.5357510376e+02
    3.0399726868e+01    1.5357510376e+02
    3.0499603271e+01    1.5357510376e+02
    3.0599964142e+01    1.5357510376e+02
    3.0699941635e+01    1.5357510376e+02
    3.0798576355e+01    1.5357510376e+02
    3.0898698807e+01    1.5357510376e+02
    3.0998546600e+01    1.5357510376e+02
    3.1098802567e+01    1.5357510376e+02
    3.1198978424e+01    1.5357510376e+02
    3.1298809052e+01    1.5357510376e+02
    3.1398872375e+01    1.5357510376e+02
    3.1498889923e+01    1.5357510376e+02
    3.1599170685e+01    1.5357409668e+02
    3.1699342728e+01    1.5357409668e+02
    3.1799497604e+01    1.5357409668e+02
    3.1899385452e+01    1.5357409668e+02
    3.1999658585e+01    1.5357409668e+02
    3.2099468231e+01    1.5357409668e+02
    3.2199989319e+01    1.5357409668e+02
    3.2299781799e+01    1.5357409668e+02
    3.2400009155e+01    1.5357409668e+02
    3.2499900818e+01    1.5357409668e+02
    3.2598415375e+01    1.5357409668e+02
    3.2698406219e+01    1.5357409668e+02
    3.2798671722e+01    1.5357409668e+02
    3.2898887634e+01    1.5357409668e+02
    3.2998668671e+01    1.5357310486e+02
    3.3099029541e+01    1.5357310486e+02
    3.3199317932e+01    1.5357310486e+02
    3.3299415588e+01    1.5357310486e+02
    3.3399719238e+01    1.5357310486e+02
    3.3499439240e+01    1.5357310486e+02
    3.3598377228e+01    1.5357310486e+02
    3.3699779510e+01    1.5357310486e+02
    3.3798553467e+01    1.5357310486e+02
    3.3898597717e+01    1.5357310486e+02
    3.3998912811e+01    1.5357310486e+02
    3.4098526001e+01    1.5357310486e+02
    3.4199142456e+01    1.5357209778e+02
    3.4299919128e+01    1.5357209778e+02
    3.4398895264e+01    1.5357209778e+02
    3.4498725891e+01    1.5357209778e+02
    3.4598396301e+01    1.5357209778e+02
    3.4698795319e+01    1.5357209778e+02
    3.4798416138e+01    1.5357209778e+02
    3.4898601532e+01    1.5357209778e+02
    3.4998935699e+01    1.5357209778e+02
    3.5098957062e+01    1.5357209778e+02
    3.5199115753e+01    1.5357209778e+02
    3.5299472809e+01    1.5357209778e+02
    3.5399902344e+01    1.5357110596e+02
    3.5500011444e+01    1.5357110596e+02
    3.5598705292e+01    1.5357110596e+02
    3.5698936462e+01    1.5357110596e+02
    3.5799163818e+01    1.5357110596e+02
    3.5899227142e+01    1.5357110596e+02
    3.5999366760e+01    1.5357110596e+02
    3.6099533081e+01    1.5357110596e+02
    3.6199573517e+01    1.5357110596e+02
    3.6298469543e+01    1.5357110596e+02
    3.6398605347e+01    1.5357110596e+02
    3.6498893738e+01    1.5357009888e+02
    3.6599086761e+01    1.5357009888e+02
    3.6699272156e+01    1.5357009888e+02
    3.6799087524e+01    1.5357009888e+02
    3.6899204254e+01    1.5357009888e+02
    3.6999351501e+01    1.5357009888e+02
    3.7099487305e+01    1.5357009888e+02
    3.7199642181e+01    1.5357009888e+02
    3.7298587799e+01    1.5357009888e+02
    3.7398330688e+01    1.5357009888e+02
    3.7498809814e+01    1.5357009888e+02
    3.7599056244e+01    1.5356910706e+02
    3.7698894501e+01    1.5356910706e+02
    3.7798988342e+01    1.5356910706e+02
    3.7899288177e+01    1.5356910706e+02
    3.7999435425e+01    1.5356910706e+02
    3.8099475861e+01    1.5356910706e+02
    3.8199535370e+01    1.5356910706e+02
    3.8299793243e+01    1.5356910706e+02
    3.8399623871e+01    1.5356910706e+02
    3.8498523712e+01    1.5356910706e+02
    3.8599246979e+01    1.5356809998e+02
    3.8698883057e+01    1.5356809998e+02
    3.8799358368e+01    1.5356809998e+02
    3.8899368286e+01    1.5356809998e+02
    3.8999813080e+01    1.5356809998e+02
    3.9099903107e+01    1.5356809998e+02
    3.9198524475e+01    1.5356809998e+02
    3.9298351288e+01    1.5356809998e+02
    3.9399215698e+01    1.5356809998e+02
    3.9499359131e+01    1.5356809998e+02
    3.9599426270e+01    1.5356709290e+02
    3.9699409485e+01    1.5356709290e+02
    3.9799850464e+01    1.5356709290e+02
    3.9899662018e+01    1.5356709290e+02
    3.9999618530e+01    1.5356709290e+02
    4.0099277496e+01    1.5356709290e+02
    4.0198310852e+01    1.5356709290e+02
    4.0298698425e+01    1.5356709290e+02
    4.0398967743e+01    1.5356709290e+02
    4.0499317169e+01    1.5356709290e+02
    4.0599372864e+01    1.5356610107e+02
    4.0699344635e+01    1.5356610107e+02
    4.0799499512e+01    1.5356610107e+02
    4.0899635315e+01    1.5356610107e+02
    4.0999710083e+01    1.5356610107e+02
    4.1099922180e+01    1.5356610107e+02
    4.1198692322e+01    1.5356610107e+02
    4.1298450470e+01    1.5356610107e+02
    4.1398818970e+01    1.5356610107e+02
    4.1499347687e+01    1.5356509399e+02
    4.1599182129e+01    1.5356509399e+02
    4.1699043274e+01    1.5356509399e+02
    4.1799468994e+01    1.5356509399e+02
    4.1898506165e+01    1.5356509399e+02
    4.1999134064e+01    1.5356509399e+02
    4.2099147797e+01    1.5356509399e+02
    4.2198841095e+01    1.5356509399e+02
    4.2299217224e+01    1.5356410217e+02
    4.2399353027e+01    1.5356410217e+02
    4.2499595642e+01    1.5356410217e+02
    4.2599750519e+01    1.5356410217e+02
    4.2699722290e+01    1.5356410217e+02
    4.2798873901e+01    1.5356410217e+02
    4.2899345398e+01    1.5356410217e+02
    4.2999347687e+01    1.5356410217e+02
    4.3099632263e+01    1.5356410217e+02
    4.3199691772e+01    1.5356309509e+02
    4.3298355103e+01    1.5356309509e+02
    4.3398635864e+01    1.5356309509e+02
    4.3498813629e+01    1.5356309509e+02
    4.3599475861e+01    1.5356309509e+02
    4.3698604584e+01    1.5356309509e+02
    4.3798278809e+01    1.5356309509e+02
    4.3898677826e+01    1.5356309509e+02
    4.3999614716e+01    1.5356210327e+02
    4.4098400116e+01    1.5356210327e+02
    4.4198490143e+01    1.5356210327e+02
    4.4298583984e+01    1.5356210327e+02
    4.4398403168e+01    1.5356210327e+02
    4.4498401642e+01    1.5356210327e+02
    4.4598953247e+01    1.5356210327e+02
    4.4698795319e+01    1.5356210327e+02
    4.4798770905e+01    1.5356109619e+02
    4.4899242401e+01    1.5356109619e+02
    4.4998287201e+01    1.5356109619e+02
    4.5098464966e+01    1.5356109619e+02
    4.5198741913e+01    1.5356109619e+02
    4.5299137115e+01    1.5356109619e+02
    4.5399017334e+01    1.5356109619e+02
    4.5499229431e+01    1.5356109619e+02
    4.5599399567e+01    1.5356010437e+02
    4.5699600220e+01    1.5356010437e+02
    4.5798271179e+01    1.5356010437e+02
    4.5898567200e+01    1.5356010437e+02
    4.5998550415e+01    1.5356010437e+02
    4.6098686218e+01    1.5356010437e+02
    4.6198394775e+01    1.5356010437e+02
    4.6298473358e+01    1.5355909729e+02
    4.6399211884e+01    1.5355909729e+02
    4.6499504089e+01    1.5355909729e+02
    4.6598628998e+01    1.5355909729e+02
    4.6698627472e+01    1.5355909729e+02
    4.6798297882e+01    1.5355909729e+02
    4.6898269653e+01    1.5355909729e+02
    4.6998394012e+01    1.5355810547e+02
    4.7098564148e+01    1.5355810547e+02
    4.7198787689e+01    1.5355810547e+02
    4.7299179077e+01    1.5355810547e+02
    4.7399440765e+01    1.5355810547e+02
    4.7499580383e+01    1.5355810547e+02
    4.7599784851e+01    1.5355810547e+02
    4.7698390961e+01    1.5355709839e+02
    4.7798564911e+01    1.5355709839e+02
    4.7898780823e+01    1.5355709839e+02
    4.7999820709e+01    1.5355709839e+02
    4.8098358154e+01    1.5355709839e+02
    4.8198860168e+01    1.5355709839e+02
    4.8298740387e+01    1.5355610657e+02
    4.8398719788e+01    1.5355610657e+02
    4.8498973846e+01    1.5355610657e+02
    4.8599018097e+01    1.5355610657e+02
    4.8698684692e+01    1.5355610657e+02
    4.8798995972e+01    1.5355610657e+02
    4.8899490356e+01    1.5355610657e+02
    4.8999797821e+01    1.5355509949e+02
    4.9099670410e+01    1.5355509949e+02
    4.9199813843e+01    1.5355509949e+02
    4.9298408508e+01    1.5355509949e+02
    4.9398796082e+01    1.5355509949e+02
    4.9498874664e+01    1.5355509949e+02
    4.9599086761e+01    1.5355410767e+02
    4.9698726654e+01    1.5355410767e+02
    4.9798591614e+01    1.5355410767e+02
    4.9898975372e+01    1.5355410767e+02
    4.9999328613e+01    1.5355410767e+02
    5.0099525452e+01    1.5355410767e+02
    5.0199310303e+01    1.5355310059e+02
    5.0299789429e+01    1.5355310059e+02
    5.0398509979e+01    1.5355310059e+02
    5.0498329163e+01    1.5355310059e+02
    5.0598262787e+01    1.5355310059e+02
    5.0698585510e+01    1.5355310059e+02
    5.0798473358e+01    1.5355209351e+02
    5.0899353027e+01    1.5355209351e+02
    5.0999282837e+01    1.5355209351e+02
    5.1098274231e+01    1.5355209351e+02
    5.1198444366e+01    1.5355209351e+02
    5.1298702240e+01    1.5355110168e+02
    5.1398841858e+01    1.5355110168e+02
    5.1499290466e+01    1.5355110168e+02
    5.1599334717e+01    1.5355110168e+02
    5.1699626923e+01    1.5355110168e+02
    5.1798217773e+01    1.5355009460e+02
    5.1898513794e+01    1.5355009460e+02
    5.1998733521e+01    1.5355009460e+02
    5.2098922729e+01    1.5355009460e+02
    5.2198993683e+01    1.5355009460e+02
    5.2299411774e+01    1.5354910278e+02
    5.2398582458e+01    1.5354910278e+02
    5.2498722076e+01    1.5354910278e+02
    5.2599010468e+01    1.5354910278e+02
    5.2699043274e+01    1.5354910278e+02
    5.2799316406e+01    1.5354809570e+02
    5.2899387360e+01    1.5354809570e+02
    5.2998188019e+01    1.5354809570e+02
    5.3098480225e+01    1.5354809570e+02
    5.3199058533e+01    1.5354809570e+02
    5.3299030304e+01    1.5354710388e+02
    5.3399135590e+01    1.5354710388e+02
    5.3499298096e+01    1.5354710388e+02
    5.3598667145e+01    1.5354710388e+02
    5.3698692322e+01    1.5354609680e+02
    5.3799278259e+01    1.5354609680e+02
    5.3899440765e+01    1.5354609680e+02
    5.3999427795e+01    1.5354609680e+02
    5.4099529266e+01    1.5354609680e+02
    5.4199672699e+01    1.5354510498e+02
    5.4298503876e+01    1.5354510498e+02
    5.4398479462e+01    1.5354510498e+02
    5.4498363495e+01    1.5354510498e+02
    5.4598823547e+01    1.5354409790e+02
    5.4698966980e+01    1.5354409790e+02
    5.4798965454e+01    1.5354409790e+02
    5.4899551392e+01    1.5354409790e+02
    5.4998252869e+01    1.5354310608e+02
    5.5098587036e+01    1.5354310608e+02
    5.5198696136e+01    1.5354310608e+02
    5.5299339294e+01    1.5354310608e+02
    5.5399192810e+01    1.5354209900e+02
    5.5499679565e+01    1.5354209900e+02
    5.5598670959e+01    1.5354209900e+02
    5.5698589325e+01    1.5354110718e+02
    5.5798755646e+01    1.5354110718e+02
    5.5898841858e+01    1.5354110718e+02
    5.5999336243e+01    1.5354110718e+02
    5.6099391937e+01    1.5354010010e+02
    5.6198352814e+01    1.5354010010e+02
    5.6298206329e+01    1.5354010010e+02
    5.6398357391e+01    1.5353909302e+02
    5.6498607635e+01    1.5353909302e+02
    5.6599117279e+01    1.5353909302e+02
    5.6699214935e+01    1.5353909302e+02
    5.6799491882e+01    1.5353810120e+02
    5.6898078918e+01    1.5353810120e+02
    5.6999683380e+01    1.5353810120e+02
    5.7098110199e+01    1.5353709412e+02
    5.7198276520e+01    1.5353709412e+02
    5.7298709869e+01    1.5353709412e+02
    5.7398609161e+01    1.5353610229e+02
    5.7498481750e+01    1.5353610229e+02
    5.7598423004e+01    1.5353610229e+02
    5.7698318481e+01    1.5353509521e+02
    5.7798671722e+01    1.5353509521e+02
    5.7899181366e+01    1.5353509521e+02
    5.7999126434e+01    1.5353410339e+02
    5.8098152161e+01    1.5353410339e+02
    5.8199672699e+01    1.5353309631e+02
    5.8298625946e+01    1.5353309631e+02
    5.8398998260e+01    1.5353309631e+02
    5.8499065399e+01    1.5353210449e+02
    5.8599449158e+01    1.5353210449e+02
    5.8699352264e+01    1.5353210449e+02
    5.8798088074e+01    1.5353109741e+02
    5.8898506165e+01    1.5353109741e+02
    5.8998638153e+01    1.5353010559e+02
    5.9098518372e+01    1.5353010559e+02
    5.9198951721e+01    1.5352909851e+02
    5.9298999786e+01    1.5352909851e+02
    5.9399059296e+01    1.5352909851e+02
    5.9498077393e+01    1.5352810669e+02
    5.9598361969e+01    1.5352810669e+02
    5.9698261261e+01    1.5352709961e+02
    5.9798976898e+01    1.5352709961e+02
    5.9898899078e+01    1.5352610779e+02
    5.9998836517e+01    1.5352610779e+02
    6.0098808289e+01    1.5352510071e+02
    6.0199466705e+01    1.5352510071e+02
    6.0299617767e+01    1.5352409363e+02
    6.0399475098e+01    1.5352409363e+02
    6.0498081207e+01    1.5352310181e+02
    6.0598403931e+01    1.5352310181e+02
    6.0698562622e+01    1.5352209473e+02
    6.0798664093e+01    1.5352209473e+02
    6.0898662567e+01    1.5352110291e+02
    6.0998798370e+01    1.5352110291e+02
    6.1098735809e+01    1.5352009583e+02
    6.1198677063e+01    1.5352009583e+02
    6.1298992157e+01    1.5351910400e+02
    6.1399162292e+01    1.5351809692e+02
    6.1499023438e+01    1.5351809692e+02
    6.1599472046e+01    1.5351710510e+02
    6.1699512482e+01    1.5351710510e+02
    6.1798244476e+01    1.5351609802e+02
    6.1898956299e+01    1.5351510620e+02
    6.1998905182e+01    1.5351510620e+02
    6.2099216461e+01    1.5351409912e+02
    6.2199081421e+01    1.5351409912e+02
    6.2299079895e+01    1.5351310730e+02
    6.2398941040e+01    1.5351210022e+02
    6.2498985291e+01    1.5351210022e+02
    6.2599426270e+01    1.5351109314e+02
    6.2699329376e+01    1.5351010132e+02
    6.2799232483e+01    1.5350909424e+02
    6.2899372101e+01    1.5350909424e+02
    6.2999393463e+01    1.5350810242e+02
    6.3099586487e+01    1.5350709534e+02
    6.3198005676e+01    1.5350709534e+02
    6.3299503326e+01    1.5350610352e+02
    6.3399517059e+01    1.5350509644e+02
    6.3499355316e+01    1.5350410461e+02
    6.3599197388e+01    1.5350309753e+02
    6.3699077606e+01    1.5350309753e+02
    6.3798957825e+01    1.5350210571e+02
    6.3898738861e+01    1.5350109863e+02
    6.3998561859e+01    1.5350010681e+02
    6.4098396301e+01    1.5349909973e+02
    6.4198287964e+01    1.5349810791e+02
    6.4298377991e+01    1.5349710083e+02
    6.4398223877e+01    1.5349710083e+02
    6.4498573303e+01    1.5349609375e+02
    6.4598747253e+01    1.5349510193e+02
    6.4699317932e+01    1.5349409485e+02
    6.4799507141e+01    1.5349310303e+02
    6.4897895813e+01    1.5349209595e+02
    6.4999488831e+01    1.5349110413e+02
    6.5099418640e+01    1.5349009705e+02
    6.5199310303e+01    1.5348910522e+02
    6.5299255371e+01    1.5348809814e+02
    6.5399200439e+01    1.5348710632e+02
    6.5499237061e+01    1.5348609924e+02
    6.5599273682e+01    1.5348510742e+02
    6.5699180603e+01    1.5348410034e+02
    6.5799232483e+01    1.5348210144e+02
    6.5899345398e+01    1.5348109436e+02
    6.5999359131e+01    1.5348010254e+02
    6.6099349976e+01    1.5347909546e+02
    6.6197845459e+01    1.5347810364e+02
    6.6298194885e+01    1.5347709656e+02
    6.6398262024e+01    1.5347610474e+02
    6.6498519897e+01    1.5347410583e+02
    6.6598686218e+01    1.5347309875e+02
    6.6698509216e+01    1.5347210693e+02
    6.6798591614e+01    1.5347109985e+02
    6.6898544312e+01    1.5346910095e+02
    6.6998733521e+01    1.5346809387e+02
    6.7098770142e+01    1.5346710205e+02
    6.7198829651e+01    1.5346510315e+02
    6.7298980713e+01    1.5346409607e+02
    6.7399002075e+01    1.5346209717e+02
    6.7499534607e+01    1.5346110535e+02
    6.7599525452e+01    1.5346009827e+02
    6.7699531555e+01    1.5345809937e+02
    6.7798042297e+01    1.5345710754e+02
    6.7898216248e+01    1.5345509338e+02
    6.7998252869e+01    1.5345410156e+02
    6.8098693848e+01    1.5345210266e+02
    6.8198913574e+01    1.5345109558e+02
    6.8298782349e+01    1.5344909668e+02
    6.8398986816e+01    1.5344709778e+02
    6.8499481201e+01    1.5344610596e+02
    6.8597953796e+01    1.5344410706e+02
    6.8698005676e+01    1.5344309998e+02
    6.8797988892e+01    1.5344110107e+02
    6.8897949219e+01    1.5343910217e+02
    6.8998046875e+01    1.5343710327e+02
    6.9097831726e+01    1.5343609619e+02
    6.9198135376e+01    1.5343409729e+02
    6.9298446655e+01    1.5343209839e+02
    6.9398414612e+01    1.5343009949e+02
    6.9498527527e+01    1.5342810059e+02
    6.9598350525e+01    1.5342610168e+02
    6.9698768616e+01    1.5342509460e+02
    6.9799407959e+01    1.5342309570e+02
    6.9899475098e+01    1.5342109680e+02
    6.9997924805e+01    1.5341909790e+02
    7.0098091125e+01    1.5341709900e+02
    7.0198341370e+01    1.5341510010e+02
    7.0298690796e+01    1.5341209412e+02
    7.0398597717e+01    1.5341009521e+02
    7.0498893738e+01    1.5340809631e+02
    7.0598968506e+01    1.5340609741e+02
    7.0699203491e+01    1.5340409851e+02
    7.0798027039e+01    1.5340209961e+02
    7.0898681641e+01    1.5339909363e+02
    7.0998588562e+01    1.5339709473e+02
    7.1099082947e+01    1.5339509583e+02
    7.1199020386e+01    1.5339210510e+02
    7.1299385071e+01    1.5339010620e+02
    7.1398124695e+01    1.5338810730e+02
    7.1498535156e+01    1.5338510132e+02
    7.1599052429e+01    1.5338310242e+02
    7.1697875977e+01    1.5338009644e+02
    7.1799407959e+01    1.5337809753e+02
    7.1898132324e+01    1.5337510681e+02
    7.1998252869e+01    1.5337310791e+02
    7.2098655701e+01    1.5337010193e+02
    7.2198814392e+01    1.5336709595e+02
    7.2299064636e+01    1.5336410522e+02
    7.2397850037e+01    1.5336210632e+02
    7.2498107910e+01    1.5335910034e+02
    7.2598686218e+01    1.5335609436e+02
    7.2699157715e+01    1.5335310364e+02
    7.2797836304e+01    1.5335009766e+02
    7.2898231506e+01    1.5334710693e+02
    7.2998626709e+01    1.5334410095e+02
    7.3099113464e+01    1.5334109497e+02
    7.3197944641e+01    1.5333810425e+02
    7.3298576355e+01    1.5333509827e+02
    7.3399032593e+01    1.5333210754e+02
    7.3497970581e+01    1.5332910156e+02
    7.3598617554e+01    1.5332609558e+02
    7.3698814392e+01    1.5332209778e+02
    7.3799339294e+01    1.5331910706e+02
    7.3898117065e+01    1.5331610107e+02
    7.3998649597e+01    1.5331210327e+02
    7.4099090576e+01    1.5330909729e+02
    7.4199394226e+01    1.5330509949e+02
    7.4298179626e+01    1.5330209351e+02
    7.4398689270e+01    1.5329809570e+02
    7.4499389648e+01    1.5329510498e+02
    7.4598297119e+01    1.5329110718e+02
    7.4698562622e+01    1.5328709412e+02
    7.4799285889e+01    1.5328309631e+02
    7.4898307800e+01    1.5327909851e+02
    7.4998939514e+01    1.5327610779e+02
    7.5097770691e+01    1.5327209473e+02
    7.5198516846e+01    1.5326809692e+02
    7.5299270630e+01    1.5326409912e+02
    7.5398162842e+01    1.5326010132e+02
    7.5498771667e+01    1.5325509644e+02
    7.5597839355e+01    1.5325109863e+02
    7.5698616028e+01    1.5324710083e+02
    7.5799400330e+01    1.5324209595e+02
    7.5898490906e+01    1.5323809814e+02
    7.5999229431e+01    1.5323410034e+02
    7.6098327637e+01    1.5322909546e+02
    7.6199020386e+01    1.5322509766e+02
    7.6298072815e+01    1.5322010803e+02
    7.6398895264e+01    1.5321510315e+02
    7.6499237061e+01    1.5321009827e+02
    7.6598365784e+01    1.5320610046e+02
    7.6699142456e+01    1.5320109558e+02
    7.6798225403e+01    1.5319610596e+02
    7.6899078369e+01    1.5319110107e+02
    7.6998229980e+01    1.5318609619e+02
    7.7099098206e+01    1.5318110657e+02
    7.7198196411e+01    1.5317509460e+02
    7.7299072266e+01    1.5317010498e+02
    7.7398246765e+01    1.5316510010e+02
    7.7498878479e+01    1.5315910339e+02
    7.7598068237e+01    1.5315409851e+02
    7.7698699951e+01    1.5314810181e+02
    7.7797904968e+01    1.5314309692e+02
    7.7898818970e+01    1.5313710022e+02
    7.7998039246e+01    1.5313110352e+02
    7.8098968506e+01    1.5312510681e+02
    7.8198196411e+01    1.5311909485e+02
    7.8299148560e+01    1.5311309814e+02
    7.8398384094e+01    1.5310710144e+02
    7.8499122620e+01    1.5310009766e+02
    7.8598083496e+01    1.5309410095e+02
    7.8699058533e+01    1.5308810425e+02
    7.8798324585e+01    1.5308110046e+02
    7.8899299622e+01    1.5307510376e+02
    7.8998275757e+01    1.5306809998e+02
    7.9099273682e+01    1.5306109619e+02
    7.9198562622e+01    1.5305410767e+02
    7.9297859192e+01    1.5304710388e+02
    7.9398864746e+01    1.5304010010e+02
    7.9498176575e+01    1.5303309631e+02
    7.9599197388e+01    1.5302610779e+02
    7.9698509216e+01    1.5301910400e+02
    7.9797836304e+01    1.5301109314e+02
    7.9898872375e+01    1.5300309753e+02
    7.9998199463e+01    1.5299609375e+02
    8.0099243164e+01    1.5298809814e+02
    8.0198585510e+01    1.5298010254e+02
    8.0297927856e+01    1.5297210693e+02
    8.0398986816e+01    1.5296409607e+02
    8.0498161316e+01    1.5295610046e+02
    8.0599227905e+01    1.5294709778e+02
    8.0698577881e+01    1.5293910217e+02
    8.0797935486e+01    1.5293009949e+02
    8.0899009705e+01    1.5292210388e+02
    8.0998374939e+01    1.5291310120e+02
    8.1097747803e+01    1.5290409851e+02
    8.1198822021e+01    1.5289509583e+02
    8.1298194885e+01    1.5288609314e+02
    8.1399284363e+01    1.5287609863e+02
    8.1498657227e+01    1.5286709595e+02
    8.1598037720e+01    1.5285710144e+02
    8.1699127197e+01    1.5284809875e+02
    8.1798507690e+01    1.5283810425e+02
    8.1897880554e+01    1.5282809448e+02
    8.1998970032e+01    1.5281709290e+02
    8.2098327637e+01    1.5280709839e+02
    8.2197662354e+01    1.5279710388e+02
    8.2298675537e+01    1.5278610229e+02
    8.2397956848e+01    1.5277610779e+02
    8.2498916626e+01    1.5276510620e+02
    8.2598136902e+01    1.5275410461e+02
    8.2699050903e+01    1.5274209595e+02
    8.2798217773e+01    1.5273109436e+02
    8.2899063110e+01    1.5271910095e+02
    8.2998176575e+01    1.5270809937e+02
    8.3098968506e+01    1.5269610596e+02
    8.3198020935e+01    1.5268409729e+02
    8.3298736572e+01    1.5267210388e+02
    8.3397705078e+01    1.5266009521e+02
    8.3498329163e+01    1.5264709473e+02
    8.3598907471e+01    1.5263409424e+02
    8.3697738647e+01    1.5262210083e+02
    8.3798225403e+01    1.5260809326e+02
    8.3898658752e+01    1.5259510803e+02
    8.3999046326e+01    1.5258210754e+02
    8.4097694397e+01    1.5256809998e+02
    8.4197982788e+01    1.5255410767e+02
    8.4298233032e+01    1.5254010010e+02
    8.4398429871e+01    1.5252610779e+02
    8.4498573303e+01    1.5251210022e+02
    8.4598678589e+01    1.5249710083e+02
    8.4698722839e+01    1.5248210144e+02
    8.4798728943e+01    1.5246710205e+02
    8.4898681641e+01    1.5245210266e+02
    8.4998580933e+01    1.5243710327e+02
    8.5098434448e+01    1.5242109680e+02
    8.5198242188e+01    1.5240510559e+02
    8.5297996521e+01    1.5238909912e+02
    8.5397705078e+01    1.5237310791e+02
    8.5499053955e+01    1.5235609436e+02
    8.5598655701e+01    1.5233909607e+02
    8.5698219299e+01    1.5232209778e+02
    8.5797721863e+01    1.5230509949e+02
    8.5898864746e+01    1.5228810120e+02
    8.5998275757e+01    1.5227009583e+02
    8.6097633362e+01    1.5225210571e+02
    8.6198623657e+01    1.5223410034e+02
    8.6297874451e+01    1.5221510315e+02
    8.6398757935e+01    1.5219610596e+02
    8.6497917175e+01    1.5217810059e+02
    8.6598693848e+01    1.5215809631e+02
    8.6697746277e+01    1.5213909912e+02
    8.6798423767e+01    1.5211909485e+02
    8.6899055481e+01    1.5209910583e+02
    8.6997955322e+01    1.5207910156e+02
    8.7098480225e+01    1.5205810547e+02
    8.7198951721e+01    1.5203709412e+02
    8.7297698975e+01    1.5201609802e+02
    8.7398063660e+01    1.5199409485e+02
    8.7498382568e+01    1.5197309875e+02
    8.7598648071e+01    1.5195109558e+02
    8.7698860168e+01    1.5192810059e+02
    8.7799026489e+01    1.5190510559e+02
    8.7899139404e+01    1.5188209534e+02
    8.7999191284e+01    1.5185910034e+02
    8.8099205017e+01    1.5183610535e+02
    8.8199157715e+01    1.5181210327e+02
    8.8299064636e+01    1.5178709412e+02
    8.8398925781e+01    1.5176310730e+02
    8.8498725891e+01    1.5173809814e+02
    8.8598480225e+01    1.5171310425e+02
    8.8698181152e+01    1.5168809509e+02
    8.8797836304e+01    1.5166209412e+02
    8.8899093628e+01    1.5163510132e+02
    8.8998649597e+01    1.5160910034e+02
    8.9098144531e+01    1.5158210754e+02
    8.9197593689e+01    1.5155509949e+02
    8.9298652649e+01    1.5152709961e+02
    8.9398002625e+01    1.5149909973e+02
    8.9498954773e+01    1.5147010803e+02
    8.9598197937e+01    1.5144209290e+02
    8.9699050903e+01    1.5141209412e+02
    8.9798202515e+01    1.5138310242e+02
    8.9898948669e+01    1.5135310364e+02
    8.9997993469e+01    1.5132310486e+02
    9.0098640442e+01    1.5129209900e+02
    9.0197593689e+01    1.5126210022e+02
    9.0298133850e+01    1.5123010254e+02
    9.0398628235e+01    1.5119810486e+02
    9.0499069214e+01    1.5116610718e+02
    9.0597816467e+01    1.5113310242e+02
    9.0698158264e+01    1.5110009766e+02
    9.0798446655e+01    1.5106709290e+02
    9.0898689270e+01    1.5103309631e+02
    9.0998878479e+01    1.5099810791e+02
    9.1099014282e+01    1.5096310425e+02
    9.1199104309e+01    1.5092810059e+02
    9.1299133301e+01    1.5089210510e+02
    9.1399093628e+01    1.5085609436e+02
    9.1498985291e+01    1.5082009888e+02
    9.1598800659e+01    1.5078309631e+02
    9.1698547363e+01    1.5074609375e+02
    9.1798225403e+01    1.5070809937e+02
    9.1897827148e+01    1.5067010498e+02
    9.1998985291e+01    1.5063009644e+02
    9.2098442078e+01    1.5059109497e+02
    9.2197830200e+01    1.5055209351e+02
    9.2298759460e+01    1.5051109314e+02
    9.2397994995e+01    1.5047109985e+02
    9.2498779297e+01    1.5042910767e+02
    9.2597862244e+01    1.5038810730e+02
    9.2698493958e+01    1.5034609985e+02
    9.2799049377e+01    1.5030310059e+02
    9.2897911072e+01    1.5026010132e+02
    9.2998313904e+01    1.5021609497e+02
    9.3098640442e+01    1.5017210388e+02
    9.3198890686e+01    1.5012710571e+02
    9.3299057007e+01    1.5008210754e+02
    9.3397537231e+01    1.5003709412e+02
    9.3497550964e+01    1.4999009705e+02
    9.3599098206e+01    1.4994309998e+02
    9.3698471069e+01    1.4989610291e+02
    9.3797874451e+01    1.4984809875e+02
    9.3897583008e+01    1.4980009460e+02
    9.3998558044e+01    1.4975109863e+02
    9.4097656250e+01    1.4970210266e+02
    9.4198127747e+01    1.4965209961e+02
    9.4298797607e+01    1.4960110474e+02
    9.4397720337e+01    1.4955009460e+02
    9.4497962952e+01    1.4949810791e+02
    9.4598190308e+01    1.4944610596e+02
    9.4698867798e+01    1.4939309692e+02
    9.4798393250e+01    1.4934010315e+02
    9.4898483276e+01    1.4928610229e+02
    9.4998680115e+01    1.4923109436e+02
    9.5097946167e+01    1.4917610168e+02
    9.5198860168e+01    1.4912010193e+02
    9.5298225403e+01    1.4906410217e+02
    9.5398056030e+01    1.4900709534e+02
    9.5498756409e+01    1.4895010376e+02
    9.5597625732e+01    1.4889210510e+02
    9.5698646545e+01    1.4883309937e+02
    9.5799057007e+01    1.4877310181e+02
    9.5899009705e+01    1.4871409607e+02
    9.5997787476e+01    1.4865409851e+02
    9.6098403931e+01    1.4859210205e+02
    9.6198554993e+01    1.4853109741e+02
    9.6298202515e+01    1.4846910095e+02
    9.6398735046e+01    1.4840510559e+02
    9.6497741699e+01    1.4834210205e+02
    9.6597770691e+01    1.4827810669e+02
    9.6698013306e+01    1.4821310425e+02
    9.6798889160e+01    1.4814709473e+02
    9.6899002075e+01    1.4808110046e+02
    9.6997802734e+01    1.4801510620e+02
    9.7098602295e+01    1.4794709778e+02
    9.7198913574e+01    1.4787910461e+02
    9.7297637939e+01    1.4781109619e+02
    9.7397674561e+01    1.4774209595e+02
    9.7498847961e+01    1.4767109680e+02
    9.7598915100e+01    1.4760110474e+02
    9.7698242188e+01    1.4753010559e+02
    9.7797790527e+01    1.4745809937e+02
    9.7898391724e+01    1.4738510132e+02
    9.7997573853e+01    1.4731309509e+02
    9.8098457336e+01    1.4723809814e+02
    9.8198997498e+01    1.4716310120e+02
    9.8297714233e+01    1.4708909607e+02
    9.8397796631e+01    1.4701310730e+02
    9.8497787476e+01    1.4693609619e+02
    9.8597671509e+01    1.4685910034e+02
    9.8698921204e+01    1.4678009033e+02
    9.8798599243e+01    1.4670210266e+02
    9.8898429871e+01    1.4662310791e+02
    9.8998657227e+01    1.4654209900e+02
    9.9098037720e+01    1.4646209717e+02
    9.9198776245e+01    1.4638009644e+02
    9.9297958374e+01    1.4629910278e+02
    9.9398498535e+01    1.4621609497e+02
    9.9497650146e+01    1.4613310242e+02
    9.9598304749e+01    1.4604809570e+02
    9.9698539734e+01    1.4596310425e+02
    9.9798675537e+01    1.4587710571e+02
    9.9897613525e+01    1.4579209900e+02
    9.9998992920e+01    1.4570410156e+02
    1.0009886932e+02    1.4561610413e+02
    1.0019860077e+02    1.4552810669e+02
    1.0029824066e+02    1.4543910217e+02
    1.0039778137e+02    1.4535009766e+02
    1.0049865723e+02    1.4525909424e+02
    1.0059799957e+02    1.4516809082e+02
    1.0069867706e+02    1.4507510376e+02
    1.0079782104e+02    1.4498410034e+02
    1.0089830780e+02    1.4489010620e+02
    1.0099868774e+02    1.4479510498e+02
    1.0109896851e+02    1.4470010376e+02
    1.0119772339e+02    1.4460610962e+02
    1.0129779816e+02    1.4450909424e+02
    1.0139778137e+02    1.4441210938e+02
    1.0149767303e+02    1.4431509399e+02
    1.0159887695e+02    1.4421510315e+02
    1.0169856262e+02    1.4411610413e+02
    1.0179814911e+02    1.4401609802e+02
    1.0189762878e+02    1.4391610718e+02
    1.0199844360e+02    1.4381410217e+02
    1.0209773254e+02    1.4371209717e+02
    1.0219864655e+02    1.4360809326e+02
    1.0229773712e+02    1.4350610352e+02
    1.0239813995e+02    1.4340109253e+02
    1.0249845123e+02    1.4329510498e+02
    1.0259866333e+02    1.4318910217e+02
    1.0269876862e+02    1.4308209229e+02
    1.0279876709e+02    1.4297509766e+02
    1.0289868927e+02    1.4286610413e+02
    1.0299849701e+02    1.4275810242e+02
    1.0309821320e+02    1.4264810181e+02
    1.0319783020e+02    1.4253810120e+02
    1.0329875183e+02    1.4242610168e+02
    1.0339817810e+02    1.4231410217e+02
    1.0349890900e+02    1.4220111084e+02
    1.0359813690e+02    1.4208810425e+02
    1.0369867706e+02    1.4197309875e+02
    1.0379772186e+02    1.4185910034e+02
    1.0389807129e+02    1.4174310303e+02
    1.0399832916e+02    1.4162609863e+02
    1.0409848022e+02    1.4150810242e+02
    1.0419854736e+02    1.4139010620e+02
    1.0429853058e+02    1.4127110291e+02
    1.0439840698e+02    1.4115109253e+02
    1.0449819946e+02    1.4103109741e+02
    1.0459790039e+02    1.4091009521e+02
    1.0469889832e+02    1.4078710938e+02
    1.0479842377e+02    1.4066409302e+02
    1.0489785767e+02    1.4054110718e+02
    1.0499858856e+02    1.4041610718e+02
    1.0509784698e+02    1.4029209900e+02
    1.0519840240e+02    1.4016510010e+02
    1.0529885864e+02    1.4003810120e+02
    1.0539787292e+02    1.3991110229e+02
    1.0549816132e+02    1.3978311157e+02
    1.0559837341e+02    1.3965310669e+02
    1.0569848633e+02    1.3952310181e+02
    1.0579853821e+02    1.3939208984e+02
    1.0589849854e+02    1.3926110840e+02
    1.0599836731e+02    1.3912809753e+02
    1.0609816742e+02    1.3899510193e+02
    1.0619789124e+02    1.3886209106e+02
    1.0629888916e+02    1.3872610474e+02
    1.0639845276e+02    1.3859109497e+02
    1.0649793243e+02    1.3845510864e+02
    1.0659868622e+02    1.3831710815e+02
    1.0669801331e+02    1.3818009949e+02
    1.0679862213e+02    1.3804010010e+02
    1.0689779663e+02    1.3790209961e+02
    1.0699825287e+02    1.3776010132e+02
    1.0709863281e+02    1.3761911011e+02
    1.0719757843e+02    1.3747810364e+02
    1.0729781342e+02    1.3733509827e+02
    1.0739797211e+02    1.3719110107e+02
    1.0749804688e+02    1.3704609680e+02
    1.0759806824e+02    1.3690109253e+02
    1.0769801331e+02    1.3675509644e+02
    1.0779788208e+02    1.3660809326e+02
    1.0789766693e+02    1.3646109009e+02
    1.0799874878e+02    1.3631109619e+02
    1.0809841156e+02    1.3616210938e+02
    1.0819799805e+02    1.3601210022e+02
    1.0829885864e+02    1.3586010742e+02
    1.0839830780e+02    1.3570809937e+02
    1.0849770355e+02    1.3555709839e+02
    1.0859835815e+02    1.3540209961e+02
    1.0869760895e+02    1.3524909973e+02
    1.0879812622e+02    1.3509310913e+02
    1.0889859009e+02    1.3493609619e+02
    1.0899764252e+02    1.3478109741e+02
    1.0909796906e+02    1.3462210083e+02
    1.0919822693e+02    1.3446310425e+02
    1.0929843140e+02    1.3430410767e+02
    1.0939855957e+02    1.3414309692e+02
    1.0949861908e+02    1.3398210144e+02
    1.0959861755e+02    1.3382009888e+02
    1.0969856262e+02    1.3365811157e+02
    1.0979843140e+02    1.3349411011e+02
    1.0989823914e+02    1.3333010864e+02
    1.0999799347e+02    1.3316510010e+02
    1.1009767151e+02    1.3300009155e+02
    1.1019862366e+02    1.3283110046e+02
    1.1029817200e+02    1.3266409302e+02
    1.1039765930e+02    1.3249710083e+02
    1.1049842072e+02    1.3232611084e+02
    1.1059777832e+02    1.3215710449e+02
    1.1069841003e+02    1.3198510742e+02
    1.1079765320e+02    1.3181410217e+02
    1.1089813995e+02    1.3164010620e+02
    1.1099857330e+02    1.3146609497e+02
    1.1109761810e+02    1.3129309082e+02
    1.1119790649e+02    1.3111709595e+02
    1.1129814911e+02    1.3094009399e+02
    1.1139832306e+02    1.3076309204e+02
    1.1149842072e+02    1.3058509827e+02
    1.1159844971e+02    1.3040609741e+02
    1.1169841766e+02    1.3022711182e+02
    1.1179831696e+02    1.3004609680e+02
    1.1189816284e+02    1.2986509705e+02
    1.1199791718e+02    1.2968310547e+02
    1.1209761810e+02    1.2950109863e+02
    1.1219856262e+02    1.2931509399e+02
    1.1229812622e+02    1.2913110352e+02
    1.1239762115e+02    1.2894709778e+02
    1.1249835205e+02    1.2875909424e+02
    1.1259770966e+02    1.2857308960e+02
    1.1269830322e+02    1.2838409424e+02
    1.1279882050e+02    1.2819409180e+02
    1.1289797211e+02    1.2800509644e+02
    1.1299835205e+02    1.2781410217e+02
    1.1309866333e+02    1.2762210083e+02
    1.1319760132e+02    1.2743109894e+02
    1.1329778290e+02    1.2723809814e+02
    1.1339788055e+02    1.2704309845e+02
    1.1349790955e+02    1.2684809875e+02
    1.1359786987e+02    1.2665309906e+02
    1.1369776154e+02    1.2645610046e+02
    1.1379757690e+02    1.2625910187e+02
    1.1389862823e+02    1.2605809784e+02
    1.1399830627e+02    1.2586009979e+02
    1.1409792328e+02    1.2566010284e+02
    1.1419876099e+02    1.2545709991e+02
    1.1429823303e+02    1.2525710297e+02
    1.1439763641e+02    1.2505509949e+02
    1.1449826050e+02    1.2485009766e+02
    1.1459882355e+02    1.2464410400e+02
    1.1469802094e+02    1.2444110107e+02
    1.1479843903e+02    1.2423410034e+02
    1.1489878845e+02    1.2402610016e+02
    1.1499778748e+02    1.2382009888e+02
    1.1509799957e+02    1.2361109924e+02
    1.1519815063e+02    1.2340110016e+02
    1.1529823303e+02    1.2319010162e+02
    1.1539823914e+02    1.2297910309e+02
    1.1549819183e+02    1.2276609802e+02
    1.1559806824e+02    1.2255410004e+02
    1.1569788361e+02    1.2234010315e+02
    1.1579763031e+02    1.2212609863e+02
    1.1589859009e+02    1.2190810394e+02
    1.1599820709e+02    1.2169210052e+02
    1.1609776306e+02    1.2147609711e+02
    1.1619851685e+02    1.2125610352e+02
    1.1629795074e+02    1.2103810120e+02
    1.1639858246e+02    1.2081610107e+02
    1.1649787903e+02    1.2059709930e+02
    1.1659838867e+02    1.2037409973e+02
    1.1669756317e+02    1.2015309906e+02
    1.1679795074e+02    1.1992910004e+02
    1.1689826965e+02    1.1970410156e+02
    1.1699852753e+02    1.1947810364e+02
    1.1709873199e+02    1.1925109863e+02
    1.1719760895e+02    1.1902709961e+02
    1.1729769135e+02    1.1879889679e+02
    1.1739772034e+02    1.1857019806e+02
    1.1749768829e+02    1.1834069824e+02
    1.1759760284e+02    1.1811050415e+02
    1.1769872284e+02    1.1787670135e+02
    1.1779852295e+02    1.1764500427e+02
    1.1789826965e+02    1.1741259766e+02
    1.1799796295e+02    1.1717949677e+02
    1.1809760284e+02    1.1694560242e+02
    1.1819844818e+02    1.1670809937e+02
    1.1829798126e+02    1.1647280121e+02
    1.1839871979e+02    1.1623370361e+02
    1.1849816132e+02    1.1599690247e+02
    1.1859754181e+02    1.1575939941e+02
    1.1869812775e+02    1.1551820374e+02
    1.1879868317e+02    1.1527619934e+02
    1.1889791107e+02    1.1503649902e+02
    1.1899835968e+02    1.1479299927e+02
    1.1909750366e+02    1.1455180359e+02
    1.1919786072e+02    1.1430680084e+02
    1.1929817200e+02    1.1406110382e+02
    1.1939842987e+02    1.1381469727e+02
    1.1949864960e+02    1.1356749725e+02
    1.1959757233e+02    1.1332260132e+02
    1.1969770050e+02    1.1307389832e+02
    1.1979779053e+02    1.1282450104e+02
    1.1989782715e+02    1.1257440186e+02
    1.1999783325e+02    1.1232350159e+02
    1.2009779358e+02    1.1207180023e+02
    1.2019770813e+02    1.1181939697e+02
    1.2029757690e+02    1.1156629944e+02
    1.2039866638e+02    1.1130930328e+02
    1.2049845886e+02    1.1105470276e+02
    1.2059821320e+02    1.1079940033e+02
    1.2069792175e+02    1.1054329681e+02
    1.2079759216e+02    1.1028649902e+02
    1.2089846802e+02    1.1002580261e+02
    1.2099806213e+02    1.0976750183e+02
    1.2109760284e+02    1.0950849915e+02
    1.2119835663e+02    1.0924559784e+02
    1.2129782104e+02    1.0898519897e+02
    1.2139849091e+02    1.0872070312e+02
    1.2149787140e+02    1.0845890045e+02
    1.2159845734e+02    1.0819300079e+02
    1.2169776154e+02    1.0792970276e+02
    1.2179826355e+02    1.0766239929e+02
    1.2189749146e+02    1.0739759827e+02
    1.2199790192e+02    1.0712889862e+02
    1.2209828186e+02    1.0685939789e+02
    1.2219860840e+02    1.0658920288e+02
    1.2229766846e+02    1.0632160187e+02
    1.2239791870e+02    1.0605000305e+02
    1.2249812317e+02    1.0577770233e+02
    1.2259828949e+02    1.0550460052e+02
    1.2269841003e+02    1.0523090363e+02
    1.2279847717e+02    1.0495649719e+02
    1.2289852142e+02    1.0468129730e+02
    1.2299758148e+02    1.0440799713e+02
    1.2309767914e+02    1.0413110352e+02
    1.2319757843e+02    1.0385389709e+02
    1.2329866791e+02    1.0357250214e+02
    1.2339849091e+02    1.0329399872e+02
    1.2349825287e+02    1.0301470184e+02
    1.2359797668e+02    1.0273470306e+02
    1.2369766235e+02    1.0245410156e+02
    1.2379853058e+02    1.0216930389e+02
    1.2389811707e+02    1.0188729858e+02
    1.2399765778e+02    1.0160459900e+02
    1.2409838867e+02    1.0131780243e+02
    1.2419785309e+02    1.0103379822e+02
    1.2429847717e+02    1.0074569702e+02
    1.2439785004e+02    1.0046030426e+02
    1.2449839020e+02    1.0017079926e+02
    1.2459767151e+02    9.9884201050e+01
    1.2469812012e+02    9.9593299866e+01
    1.2479852295e+02    9.9301803589e+01
    1.2489765930e+02    9.9013198853e+01
    1.2499797058e+02    9.8720397949e+01
    1.2509824371e+02    9.8426902771e+01
    1.2519860077e+02    9.8132400513e+01
    1.2529754639e+02    9.7841201782e+01
    1.2539768219e+02    9.7545799255e+01
    1.2549774933e+02    9.7249702454e+01
    1.2559777832e+02    9.6953002930e+01
    1.2569776917e+02    9.6655700684e+01
    1.2579769897e+02    9.6357704163e+01
    1.2589759064e+02    9.6059204102e+01
    1.2599864197e+02    9.5756301880e+01
    1.2609842682e+02    9.5456398010e+01
    1.2619818115e+02    9.5155899048e+01
    1.2629786682e+02    9.4854797363e+01
    1.2639752197e+02    9.4553100586e+01
    1.2649833679e+02    9.4247100830e+01
    1.2659789276e+02    9.3944099426e+01
    1.2669860840e+02    9.3636802673e+01
    1.2679807281e+02    9.3332603455e+01
    1.2689749146e+02    9.3027801514e+01
    1.2699806213e+02    9.2718704224e+01
    1.2709860229e+02    9.2408897400e+01
    1.2719786835e+02    9.2102302551e+01
    1.2729859924e+02    9.1790397644e+01
    1.2739785767e+02    9.1482299805e+01
    1.2749819946e+02    9.1170204163e+01
    1.2759848785e+02    9.0857398987e+01
    1.2769754028e+02    9.0547798157e+01
    1.2779773712e+02    9.0233802795e+01
    1.2789790344e+02    8.9919197083e+01
    1.2799800873e+02    8.9604003906e+01
    1.2809808350e+02    8.9288200378e+01
    1.2819810486e+02    8.8971900940e+01
    1.2829808044e+02    8.8654899597e+01
    1.2839802551e+02    8.8337303162e+01
    1.2849790955e+02    8.8019203186e+01
    1.2859774780e+02    8.7700500488e+01
    1.2869755554e+02    8.7381202698e+01
    1.2879852295e+02    8.7057403564e+01
    1.2889823914e+02    8.6736900330e+01
    1.2899792480e+02    8.6415802002e+01
    1.2909756470e+02    8.6094200134e+01
    1.2919834900e+02    8.5768096924e+01
    1.2929791260e+02    8.5445297241e+01
    1.2939862061e+02    8.5118003845e+01
    1.2949809265e+02    8.4793998718e+01
    1.2959753418e+02    8.4469497681e+01
    1.2969813538e+02    8.4140502930e+01
    1.2979869080e+02    8.3810897827e+01
    1.2989801025e+02    8.3484603882e+01
    1.2999848938e+02    8.3153800964e+01
    1.3009773254e+02    8.2826400757e+01
    1.3019813538e+02    8.2494499207e+01
    1.3029850769e+02    8.2162002563e+01
    1.3039758301e+02    8.1833099365e+01
    1.3049763489e+02    8.1500305176e+01
    1.3059863281e+02    8.1163696289e+01
    1.3069819641e+02    8.0831199646e+01
    1.3079870605e+02    8.0494796753e+01
    1.3089778137e+02    8.0162506104e+01
    1.3099780273e+02    7.9826400757e+01
    1.3109875488e+02    7.9486404419e+01
    1.3119830322e+02    7.9150497437e+01
    1.3129879761e+02    7.8810798645e+01
    1.3139787292e+02    7.8475204468e+01
    1.3149786377e+02    7.8135803223e+01
    1.3159881592e+02    7.7792602539e+01
    1.3169833374e+02    7.7453399658e+01
    1.3179881287e+02    7.7110504150e+01
    1.3189787292e+02    7.6771598816e+01
    1.3199787903e+02    7.6428901672e+01
    1.3209878540e+02    7.6082397461e+01
    1.3219833374e+02    7.5740005493e+01
    1.3229878235e+02    7.5393798828e+01
    1.3239787292e+02    7.5051696777e+01
    1.3249792480e+02    7.4705596924e+01
    1.3259883118e+02    7.4355895996e+01
    1.3269854736e+02    7.4009704590e+01
    1.3279786682e+02    7.3664199829e+01
    1.3289810181e+02    7.3314895630e+01
    1.3299827576e+02    7.2965202332e+01
    1.3309805298e+02    7.2616302490e+01
    1.3319874573e+02    7.2263504028e+01
    1.3329808044e+02    7.1914794922e+01
    1.3339831543e+02    7.1562400818e+01
    1.3349835205e+02    7.1210098267e+01
    1.3359814453e+02    7.0858001709e+01
    1.3369885254e+02    7.0502105713e+01
    1.3379823303e+02    7.0150199890e+01
    1.3389868164e+02    6.9793998718e+01
    1.3399873352e+02    6.9438499451e+01
    1.3409857178e+02    6.9083206177e+01
    1.3419830322e+02    6.8727699280e+01
    1.3429882812e+02    6.8368698120e+01
    1.3439819336e+02    6.8013397217e+01
    1.3449829102e+02    6.7654800415e+01
    1.3459822083e+02    6.7296203613e+01
    1.3469898987e+02    6.6934005737e+01
    1.3479847717e+02    6.6575805664e+01
    1.3489883423e+02    6.6213897705e+01
    1.3499798584e+02    6.5855804443e+01
    1.3509901428e+02    6.5490295410e+01
    1.3519877625e+02    6.5128799438e+01
    1.3529833984e+02    6.4767501831e+01
    1.3539877319e+02    6.4402496338e+01
    1.3549899292e+02    6.4037597656e+01
    1.3559904480e+02    6.3672801971e+01
    1.3569888306e+02    6.3308200836e+01
    1.3579853821e+02    6.2943698883e+01
    1.3589906311e+02    6.2575500488e+01
    1.3599833679e+02    6.2211299896e+01
    1.3609848022e+02    6.1843399048e+01
    1.3619844055e+02    6.1475601196e+01
    1.3629820251e+02    6.1108001709e+01
    1.3639883423e+02    6.0736598969e+01
    1.3649824524e+02    6.0369201660e+01
    1.3659851074e+02    5.9998199463e+01
    1.3669859314e+02    5.9627201080e+01
    1.3679849243e+02    5.9256401062e+01
    1.3689822388e+02    5.8885700226e+01
    1.3699879456e+02    5.8511299133e+01
    1.3709840393e+02    5.8139999390e+01
    1.3719862366e+02    5.7765899658e+01
    1.3729872131e+02    5.7391799927e+01
    1.3739859009e+02    5.7017898560e+01
    1.3749833679e+02    5.6644001007e+01
    1.3759890747e+02    5.6266601562e+01
    1.3769825745e+02    5.5893100739e+01
    1.3779847717e+02    5.5515899658e+01
    1.3789852905e+02    5.5138900757e+01
    1.3799841309e+02    5.4762001038e+01
    1.3809915161e+02    5.4381401062e+01
    1.3819885254e+02    5.4004199982e+01
    1.3829823303e+02    5.3627700806e+01
    1.3839846802e+02    5.3247501373e+01
    1.3849853516e+02    5.2867401123e+01
    1.3859844971e+02    5.2487499237e+01
    1.3869920349e+02    5.2103801727e+01
    1.3879879761e+02    5.1724201202e+01
    1.3889923096e+02    5.1340801239e+01
    1.3899880981e+02    5.0960300446e+01
    1.3909892273e+02    5.0577201843e+01
    1.3919888306e+02    5.0194198608e+01
    1.3929876709e+02    4.9811100006e+01
    1.3939854431e+02    4.9428001404e+01
    1.3949902344e+02    4.9041702271e+01
    1.3959837341e+02    4.8659301758e+01
    1.3969856262e+02    4.8273200989e+01
    1.3979879761e+02    4.7886501312e+01
    1.3989868164e+02    4.7500701904e+01
    1.3999841309e+02    4.7115100861e+01
    1.4009899902e+02    4.6725700378e+01
    1.4019845581e+02    4.6340301514e+01
    1.4029873657e+02    4.5951301575e+01
    1.4039886475e+02    4.5562301636e+01
    1.4049887085e+02    4.5173599243e+01
    1.4059872437e+02    4.4784900665e+01
    1.4069842529e+02    4.4396400452e+01
    1.4079896545e+02    4.4004302979e+01
    1.4089936829e+02    4.3612300873e+01
    1.4099865723e+02    4.3224201202e+01
    1.4109895325e+02    4.2831802368e+01
    1.4119894409e+02    4.2440200806e+01
    1.4129879761e+02    4.2048698425e+01
    1.4139865112e+02    4.1656898499e+01
    1.4149919128e+02    4.1261901855e+01
    1.4159869385e+02    4.0870700836e+01
    1.4169932556e+02    4.0474601746e+01
    1.4179849243e+02    4.0083900452e+01
    1.4189875793e+02    3.9688598633e+01
    1.4199880981e+02    3.9293601990e+01
    1.4209855652e+02    3.8899600983e+01
    1.4219941711e+02    3.8500801086e+01
    1.4229914856e+02    3.8106002808e+01
    1.4239875793e+02    3.7711402893e+01
    1.4249894714e+02    3.7314201355e+01
    1.4259927368e+02    3.6916099548e+01
    1.4269920349e+02    3.6519100189e+01
    1.4279902649e+02    3.6122299194e+01
    1.4289901733e+02    3.5724502563e+01
    1.4299882507e+02    3.5326999664e+01
    1.4309951782e+02    3.4925800323e+01
    1.4319917297e+02    3.4528301239e+01
    1.4329884338e+02    3.4130401611e+01
    1.4339912415e+02    3.3729801178e+01
    1.4349906921e+02    3.3330200195e+01
    1.4359890747e+02    3.2930801392e+01
    1.4369906616e+02    3.2529701233e+01
    1.4379867554e+02    3.2130500793e+01
    1.4389912415e+02    3.1727699280e+01
    1.4399870300e+02    3.1327999115e+01
    1.4409918213e+02    3.0924499512e+01
    1.4419949341e+02    3.0521301270e+01
    1.4429870605e+02    3.0122299194e+01
    1.4439881897e+02    2.9719400406e+01
    1.4449955750e+02    2.9313701630e+01
    1.4459950256e+02    2.8910869598e+01
    1.4469938660e+02    2.8508090973e+01
    1.4479905701e+02    2.8105850220e+01
    1.4489956665e+02    2.7699989319e+01
    1.4499957275e+02    2.7295871735e+01
    1.4509878540e+02    2.6894701004e+01
    1.4519944763e+02    2.6487501144e+01
    1.4529890442e+02    2.6084840775e+01
    1.4539961243e+02    2.5676980972e+01
    1.4549961853e+02    2.5271629333e+01
    1.4559889221e+02    2.4869100571e+01
    1.4569892883e+02    2.4463199615e+01
    1.4579954529e+02    2.4054740906e+01
    1.4589924622e+02    2.3649749756e+01
    1.4599928284e+02    2.3243169785e+01
    1.4609957886e+02    2.2835390091e+01
    1.4619931030e+02    2.2429710388e+01
    1.4629879761e+02    2.2024801254e+01
    1.4639927673e+02    2.1615619659e+01
    1.4649961853e+02    2.1206821442e+01
    1.4659951782e+02    2.0799650192e+01
    1.4669927979e+02    2.0392850876e+01
    1.4679934692e+02    1.9984661102e+01
    1.4689935303e+02    1.9576522827e+01
    1.4699961853e+02    1.9167118073e+01
    1.4709907532e+02    1.8760904312e+01
    1.4719888306e+02    1.8353019714e+01
    1.4729963684e+02    1.7941221237e+01
    1.4739949036e+02    1.7532899857e+01
    1.4749925232e+02    1.7124811172e+01
    1.4759939575e+02    1.6715021133e+01
    1.4769894409e+02    1.6307519913e+01
    1.4779945374e+02    1.5896010399e+01
    1.4789938354e+02    1.5486660004e+01
    1.4799905396e+02    1.5078310013e+01
    1.4809904480e+02    1.4668519974e+01
    1.4819969177e+02    1.4255889893e+01
    1.4829957581e+02    1.3846310616e+01
    1.4839956665e+02    1.3436180115e+01
    1.4849960327e+02    1.3025791168e+01
    1.4859936523e+02    1.2616399765e+01
    1.4869955444e+02    1.2205200195e+01
    1.4879942322e+02    1.1795249939e+01
    1.4889913940e+02    1.1385780334e+01
    1.4899902344e+02    1.0975620270e+01
    1.4909927368e+02    1.0563840866e+01
    1.4919938660e+02    1.0152560234e+01
    1.4929957581e+02    9.7409601212e+00
    1.4939952087e+02    9.3302402496e+00
    1.4949938965e+02    8.9198007584e+00
    1.4959913635e+02    8.5099000931e+00
    1.4969970703e+02    8.0964002609e+00
    1.4979908752e+02    7.6880006790e+00
    1.4989956665e+02    7.2749004364e+00
    1.4999931335e+02    6.8648004532e+00
    1.5009954834e+02    6.4527006149e+00
    1.5019914246e+02    6.0432004929e+00
    1.5029957581e+02    5.6303005219e+00
    1.5039985657e+02    5.2180004120e+00
    1.5049926758e+02    4.8092002869e+00
    1.5059939575e+02    4.3975000381e+00
    1.5069973755e+02    3.9850006104e+00
    1.5079986572e+02    3.5734004974e+00
    1.5089990234e+02    3.1622009277e+00
    1.5099978638e+02    2.7516002655e+00
    1.5109954834e+02    2.3415012360e+00
    1.5119917297e+02    1.9321002960e+00
    1.5129942322e+02    1.5202007294e+00
    1.5139991760e+02    1.1072998047e+00
    1.5149977112e+02    6.9709968567e-01
    1.5159939575e+02    2.8790092468e-01
    1.5169995117e+02   -1.2509918213e-01
    1.5179971313e+02   -5.3470039368e-01
    1.5189949036e+02   -9.4429969788e-01
    1.5199981689e+02   -1.3561000824e+00
    1.5209924316e+02   -1.7640991211e+00
    1.5219953918e+02   -2.1756000519e+00
    1.5229981995e+02   -2.5868988037e+00
    1.5239921570e+02   -2.9944000244e+00
    1.5249949646e+02   -3.4053993225e+00
    1.5259974670e+02   -3.8162002563e+00
    1.5269999695e+02   -4.2269001007e+00
    1.5279936218e+02   -4.6338996887e+00
    1.5289959717e+02   -5.0441989899e+00
    1.5299981689e+02   -5.4543991089e+00
    1.5310005188e+02   -5.8643989563e+00
    1.5319940186e+02   -6.2707004547e+00
    1.5329962158e+02   -6.6803989410e+00
    1.5339984131e+02   -7.0898990631e+00
    1.5350006104e+02   -7.4991989136e+00
    1.5359941101e+02   -7.9048004150e+00
    1.5369963074e+02   -8.3137989044e+00
    1.5379986572e+02   -8.7225990295e+00
    1.5390008545e+02   -9.1311988831e+00
    1.5399945068e+02   -9.5361003876e+00
    1.5409968567e+02   -9.9442996979e+00
    1.5419993591e+02   -1.0352298737e+01
    1.5430018616e+02   -1.0760198593e+01
    1.5439959717e+02   -1.1164299011e+01
    1.5449986267e+02   -1.1571800232e+01
    1.5460014343e+02   -1.1979000092e+01
    1.5469956970e+02   -1.2382598877e+01
    1.5479989624e+02   -1.2789400101e+01
    1.5490020752e+02   -1.3196098328e+01
    1.5499967957e+02   -1.3598999023e+01
    1.5510003662e+02   -1.4005199432e+01
    1.5519953918e+02   -1.4407699585e+01
    1.5529992676e+02   -1.4813499451e+01
    1.5539945984e+02   -1.5215599060e+01
    1.5549989319e+02   -1.5620998383e+01
    1.5559947205e+02   -1.6022598267e+01
    1.5569993591e+02   -1.6427497864e+01
    1.5579957581e+02   -1.6828701019e+01
    1.5590008545e+02   -1.7233200073e+01
    1.5599975586e+02   -1.7633899689e+01
    1.5610032654e+02   -1.8037899017e+01
    1.5620004272e+02   -1.8438198090e+01
    1.5629978943e+02   -1.8838199615e+01
    1.5639956665e+02   -1.9237899780e+01
    1.5650024414e+02   -1.9640998840e+01
    1.5660008240e+02   -2.0040298462e+01
    1.5669996643e+02   -2.0439300537e+01
    1.5679986572e+02   -2.0838100433e+01
    1.5689979553e+02   -2.1236598969e+01
    1.5699978638e+02   -2.1634899139e+01
    1.5709979248e+02   -2.2032897949e+01
    1.5719981384e+02   -2.2430599213e+01
    1.5729988098e+02   -2.2827999115e+01
    1.5739993286e+02   -2.3224998474e+01
    1.5750003052e+02   -2.3621700287e+01
    1.5759974670e+02   -2.4016399384e+01
    1.5769970703e+02   -2.4411598206e+01
    1.5779977417e+02   -2.4806900024e+01
    1.5789981079e+02   -2.5201400757e+01
    1.5799992371e+02   -2.5595897675e+01
    1.5810000610e+02   -2.5989700317e+01
    1.5819982910e+02   -2.6382099152e+01
    1.5829977417e+02   -2.6774497986e+01
    1.5840010071e+02   -2.7167900085e+01
    1.5850013733e+02   -2.7559700012e+01
    1.5860008240e+02   -2.7950798035e+01
    1.5870001221e+02   -2.8341197968e+01
    1.5879986572e+02   -2.8730899811e+01
    1.5889981079e+02   -2.9120399475e+01
    1.5899967957e+02   -2.9509201050e+01
    1.5909985352e+02   -2.9898498535e+01
    1.5919996643e+02   -3.0286998749e+01
    1.5930046082e+02   -3.0676399231e+01
    1.5940036011e+02   -3.1062999725e+01
    1.5949981689e+02   -3.1447399139e+01
    1.5960020447e+02   -3.1834800720e+01
    1.5969995117e+02   -3.2219200134e+01
    1.5980052185e+02   -3.2606300354e+01
    1.5990022278e+02   -3.2989398956e+01
    1.6000009155e+02   -3.3372501373e+01
    1.6010003662e+02   -3.3755397797e+01
    1.6019999695e+02   -3.4137599945e+01
    1.6029968262e+02   -3.4518199921e+01
    1.6039982605e+02   -3.4899997711e+01
    1.6050032043e+02   -3.5282398224e+01
    1.6060058594e+02   -3.5663497925e+01
    1.6069982910e+02   -3.6040000916e+01
    1.6079980469e+02   -3.6418800354e+01
    1.6090031433e+02   -3.6798900604e+01
    1.6099981689e+02   -3.7174499512e+01
    1.6109988403e+02   -3.7551498413e+01
    1.6120008850e+02   -3.7928398132e+01
    1.6129977417e+02   -3.8302600861e+01
    1.6139982605e+02   -3.8677398682e+01
    1.6149975586e+02   -3.9051200867e+01
    1.6160055542e+02   -3.9427497864e+01
    1.6169982910e+02   -3.9797599792e+01
    1.6180021667e+02   -4.0171001434e+01
    1.6190063477e+02   -4.0543899536e+01
    1.6200015259e+02   -4.0912700653e+01
    1.6210058594e+02   -4.1284000397e+01
    1.6219993591e+02   -4.1650600433e+01
    1.6230038452e+02   -4.2020599365e+01
    1.6240049744e+02   -4.2388599396e+01
    1.6250033569e+02   -4.2754798889e+01
    1.6260064697e+02   -4.3121997833e+01
    1.6269995117e+02   -4.3484699249e+01
    1.6280015564e+02   -4.3849899292e+01
    1.6290011597e+02   -4.4213397980e+01
    1.6299986267e+02   -4.4575298309e+01
    1.6310067749e+02   -4.4940299988e+01
    1.6320039368e+02   -4.5300598145e+01
    1.6330000305e+02   -4.5659599304e+01
    1.6340058899e+02   -4.6021400452e+01
    1.6350056458e+02   -4.6380203247e+01
    1.6360023499e+02   -4.6736999512e+01
    1.6370050049e+02   -4.7095100403e+01
    1.6380073547e+02   -4.7452301025e+01
    1.6389987183e+02   -4.7804702759e+01
    1.6400068665e+02   -4.8162101746e+01
    1.6410026550e+02   -4.8514396667e+01
    1.6420036316e+02   -4.8867599487e+01
    1.6430067444e+02   -4.9220802307e+01
    1.6440029907e+02   -4.9570602417e+01
    1.6450018311e+02   -4.9920600891e+01
    1.6460017395e+02   -5.0269996643e+01
    1.6470022583e+02   -5.0618698120e+01
    1.6480079651e+02   -5.0968299866e+01
    1.6489991760e+02   -5.1311996460e+01
    1.6500007629e+02   -5.1658500671e+01
    1.6510011292e+02   -5.2003700256e+01
    1.6520007324e+02   -5.2347602844e+01
    1.6530070496e+02   -5.2693000793e+01
    1.6540031433e+02   -5.3033897400e+01
    1.6550004578e+02   -5.3374298096e+01
    1.6560075378e+02   -5.3717002869e+01
    1.6570083618e+02   -5.4056701660e+01
    1.6580020142e+02   -5.4392997742e+01
    1.6590058899e+02   -5.4731796265e+01
    1.6600056458e+02   -5.5068199158e+01
    1.6610064697e+02   -5.5403999329e+01
    1.6620036316e+02   -5.5737602234e+01
    1.6630055237e+02   -5.6071701050e+01
    1.6640071106e+02   -5.6404701233e+01
    1.6650022888e+02   -5.6734703064e+01
    1.6660006714e+02   -5.7064697266e+01
    1.6670086670e+02   -5.7397003174e+01
    1.6680084229e+02   -5.7725402832e+01
    1.6690057373e+02   -5.8052001953e+01
    1.6700091553e+02   -5.8379600525e+01
    1.6710006714e+02   -5.8702201843e+01
    1.6720083618e+02   -5.9029098511e+01
    1.6730006409e+02   -5.9349998474e+01
    1.6740080261e+02   -5.9674797058e+01
    1.6750091553e+02   -5.9996498108e+01
    1.6760099792e+02   -6.0317001343e+01
    1.6770051575e+02   -6.0634696960e+01
    1.6780023193e+02   -6.0951896667e+01
    1.6790037537e+02   -6.1269302368e+01
    1.6800044250e+02   -6.1585395813e+01
    1.6810040283e+02   -6.1900001526e+01
    1.6820074463e+02   -6.2214599609e+01
    1.6830010986e+02   -6.2525199890e+01
    1.6840040588e+02   -6.2837501526e+01
    1.6850057983e+02   -6.3148498535e+01
    1.6860052490e+02   -6.3457595825e+01
    1.6870013428e+02   -6.3764602661e+01
    1.6880018616e+02   -6.4071701050e+01
    1.6890011597e+02   -6.4377296448e+01
    1.6900062561e+02   -6.4683403015e+01
    1.6910049438e+02   -6.4986198425e+01
    1.6920092773e+02   -6.5289596558e+01
    1.6930049133e+02   -6.5589202881e+01
    1.6940107727e+02   -6.5890701294e+01
    1.6950103760e+02   -6.6189201355e+01
    1.6960075378e+02   -6.6485702515e+01
    1.6970019531e+02   -6.6780296326e+01
    1.6980090332e+02   -6.7077499390e+01
    1.6990043640e+02   -6.7369895935e+01
    1.7000082397e+02   -6.7663497925e+01
    1.7010118103e+02   -6.7955802917e+01
    1.7020057678e+02   -6.8244003296e+01
    1.7030107117e+02   -6.8534202576e+01
    1.7040060425e+02   -6.8820297241e+01
    1.7050090027e+02   -6.9107299805e+01
    1.7060119629e+02   -6.9393096924e+01
    1.7070028687e+02   -6.9674201965e+01
    1.7080113220e+02   -6.9958999634e+01
    1.7090086365e+02   -7.0239402771e+01
    1.7100097656e+02   -7.0519599915e+01
    1.7110116577e+02   -7.0798896790e+01
    1.7120042419e+02   -7.1074096680e+01
    1.7130075073e+02   -7.1351097107e+01
    1.7140098572e+02   -7.1626502991e+01
    1.7150091553e+02   -7.1899696350e+01
    1.7160075378e+02   -7.2171302795e+01
    1.7170062256e+02   -7.2441596985e+01
    1.7180097961e+02   -7.2711898804e+01
    1.7190083313e+02   -7.2979499817e+01
    1.7200070190e+02   -7.3245903015e+01
    1.7210086060e+02   -7.3511802673e+01
    1.7220103455e+02   -7.3776496887e+01
    1.7230081177e+02   -7.4038696289e+01
    1.7240043640e+02   -7.4299301147e+01
    1.7250068665e+02   -7.4559997559e+01
    1.7260050964e+02   -7.4818199158e+01
    1.7270115662e+02   -7.5077201843e+01
    1.7280047607e+02   -7.5331398010e+01
    1.7290126038e+02   -7.5587799072e+01
    1.7300088501e+02   -7.5840103149e+01
    1.7310064697e+02   -7.6091300964e+01
    1.7320086670e+02   -7.6342399597e+01
    1.7330096436e+02   -7.6591796875e+01
    1.7340043640e+02   -7.6838195801e+01
    1.7350059509e+02   -7.7084899902e+01
    1.7360043335e+02   -7.7329299927e+01
    1.7370091248e+02   -7.7573898315e+01
    1.7380102539e+02   -7.7816001892e+01
    1.7390107727e+02   -7.8056503296e+01
    1.7400047302e+02   -7.8294097900e+01
    1.7410133362e+02   -7.8533798218e+01
    1.7420132446e+02   -7.8769996643e+01
    1.7430119324e+02   -7.9004501343e+01
    1.7440118408e+02   -7.9237899780e+01
    1.7450140381e+02   -7.9470397949e+01
    1.7460093689e+02   -7.9699897766e+01
    1.7470065308e+02   -7.9928298950e+01
    1.7480053711e+02   -8.0155502319e+01
    1.7490118408e+02   -8.0383102417e+01
    1.7500080872e+02   -8.0606796265e+01
    1.7510136414e+02   -8.0831100464e+01
    1.7520091248e+02   -8.1051902771e+01
    1.7530137634e+02   -8.1272895813e+01
    1.7540089417e+02   -8.1490898132e+01
    1.7550129700e+02   -8.1708900452e+01
    1.7560122681e+02   -8.1923896790e+01
    1.7570129395e+02   -8.2137901306e+01
    1.7580072021e+02   -8.2348899841e+01
    1.7590115356e+02   -8.2560897827e+01
    1.7600111389e+02   -8.2769897461e+01
    1.7610133362e+02   -8.2978897095e+01
    1.7620147705e+02   -8.3184898376e+01
    1.7630059814e+02   -8.3387901306e+01
    1.7640130615e+02   -8.3592903137e+01
    1.7650149536e+02   -8.3794898987e+01
    1.7660069275e+02   -8.3993896484e+01
    1.7670108032e+02   -8.4192901611e+01
    1.7680154419e+02   -8.4390899658e+01
    1.7690115356e+02   -8.4584899902e+01
    1.7700155640e+02   -8.4779899597e+01
    1.7710087585e+02   -8.4970901489e+01
    1.7720103455e+02   -8.5161895752e+01
    1.7730096436e+02   -8.5349899292e+01
    1.7740150452e+02   -8.5537902832e+01
    1.7750146484e+02   -8.5723899841e+01
    1.7760081482e+02   -8.5906898499e+01
    1.7770147705e+02   -8.6089897156e+01
    1.7780126953e+02   -8.6269897461e+01
    1.7790153503e+02   -8.6449897766e+01
    1.7800108337e+02   -8.6625900269e+01
    1.7810142517e+02   -8.6802902222e+01
    1.7820164490e+02   -8.6976898193e+01
    1.7830134583e+02   -8.7147895813e+01
    1.7840086365e+02   -8.7317901611e+01
    1.7850117493e+02   -8.7486900330e+01
    1.7860098267e+02   -8.7653900146e+01
    1.7870146179e+02   -8.7819900513e+01
    1.7880123901e+02   -8.7982902527e+01
    1.7890112305e+02   -8.8144897461e+01
    1.7900146484e+02   -8.8304901123e+01
    1.7910112000e+02   -8.8462898254e+01
    1.7920130920e+02   -8.8619895935e+01
    1.7930143738e+02   -8.8774902344e+01
    1.7940081787e+02   -8.8926902771e+01
    1.7950115967e+02   -8.9078903198e+01
    1.7960131836e+02   -8.9228897095e+01
    1.7970129395e+02   -8.9376899719e+01
    1.7980116272e+02   -8.9522895813e+01
    1.7990165710e+02   -8.9667900085e+01
    1.8000149536e+02   -8.9809898376e+01
    1.8010122681e+02   -8.9949897766e+01
    1.8020141602e+02   -9.0088897705e+01
    1.8030102539e+02   -9.0224899292e+01
    1.8040107727e+02   -9.0360900879e+01
    1.8050177002e+02   -9.0494895935e+01
    1.8060121155e+02   -9.0625900269e+01
    1.8070108032e+02   -9.0754898071e+01
    1.8080181885e+02   -9.0883895874e+01
    1.8090136719e+02   -9.1009902954e+01
    1.8100175476e+02   -9.1133895874e+01
    1.8110098267e+02   -9.1255897522e+01
    1.8120123291e+02   -9.1376899719e+01
    1.8130085754e+02   -9.1494895935e+01
    1.8140144348e+02   -9.1612899780e+01
    1.8150132751e+02   -9.1727897644e+01
    1.8160087585e+02   -9.1839897156e+01
    1.8170126343e+02   -9.1951896667e+01
    1.8180177307e+02   -9.2060897827e+01
    1.8190188599e+02   -9.2168899536e+01
    1.8200180054e+02   -9.2273902893e+01
    1.8210145569e+02   -9.2375900269e+01
    1.8220179749e+02   -9.2477897644e+01
    1.8230099487e+02   -9.2575897217e+01
    1.8240165710e+02   -9.2672897339e+01
    1.8250097656e+02   -9.2766899109e+01
    1.8260156250e+02   -9.2859901428e+01
    1.8270190430e+02   -9.2949897766e+01
    1.8280162048e+02   -9.3036895752e+01
    1.8290126038e+02   -9.3122901917e+01
    1.8300140381e+02   -9.3205902100e+01
    1.8310165405e+02   -9.3287902832e+01
    1.8320101929e+02   -9.3365898132e+01
    1.8330152893e+02   -9.3442901611e+01
    1.8340127563e+02   -9.3516899109e+01
    1.8350108337e+02   -9.3587898254e+01
    1.8360169983e+02   -9.3657897949e+01
    1.8370135498e+02   -9.3724899292e+01
    1.8380201721e+02   -9.3789901733e+01
    1.8390153503e+02   -9.3851898193e+01
    1.8400143433e+02   -9.3911895752e+01
    1.8410165405e+02   -9.3969902039e+01
    1.8420112610e+02   -9.4024902344e+01
    1.8430166626e+02   -9.4078903198e+01
    1.8440147400e+02   -9.4128898621e+01
    1.8450183105e+02   -9.4177902222e+01
    1.8460177612e+02   -9.4223899841e+01
    1.8470196533e+02   -9.4267898560e+01
    1.8480131531e+02   -9.4308898926e+01
    1.8490191650e+02   -9.4347900391e+01
    1.8500172424e+02   -9.4384902954e+01
    1.8510140991e+02   -9.4419898987e+01
    1.8520138550e+02   -9.4450897217e+01
    1.8530189514e+02   -9.4480895996e+01
    1.8540139771e+02   -9.4507896423e+01
    1.8550140381e+02   -9.4532897949e+01
    1.8560128784e+02   -9.4554901123e+01
    1.8570210266e+02   -9.4573898315e+01
    1.8580142212e+02   -9.4589897156e+01
    1.8590168762e+02   -9.4601898193e+01
    1.8600212097e+02   -9.4606903076e+01
    1.8610151672e+02   -9.4603897095e+01
    1.8620208740e+02   -9.4590896606e+01
    1.8630177307e+02   -9.4564903259e+01
    1.8640180969e+02   -9.4525901794e+01
    1.8650192261e+02   -9.4470901489e+01
    1.8660124207e+02   -9.4397895813e+01
    1.8670195007e+02   -9.4305900574e+01
    1.8680143738e+02   -9.4193901062e+01
    1.8690162659e+02   -9.4061897278e+01
    1.8700183105e+02   -9.3908897400e+01
    1.8710206604e+02   -9.3736900330e+01
    1.8720172119e+02   -9.3548896790e+01
    1.8730201721e+02   -9.3343902588e+01
    1.8740222168e+02   -9.3122901917e+01
    1.8750196838e+02   -9.2891899109e+01
    1.8760180664e+02   -9.2650901794e+01
    1.8770188904e+02   -9.2401901245e+01
    1.8780152893e+02   -9.2148902893e+01
    1.8790177917e+02   -9.1891899109e+01
    1.8800141907e+02   -9.1632896423e+01
    1.8810148621e+02   -9.1370903015e+01
    1.8820179749e+02   -9.1106903076e+01
    1.8830216980e+02   -9.0840896606e+01
    1.8840191650e+02   -9.0575897217e+01
    1.8850175476e+02   -9.0308898926e+01
    1.8860208130e+02   -9.0039901733e+01
    1.8870210266e+02   -8.9769897461e+01
    1.8880140686e+02   -8.9501899719e+01
    1.8890153503e+02   -8.9228897095e+01
    1.8900181580e+02   -8.8954902649e+01
    1.8910205078e+02   -8.8679901123e+01
    1.8920150757e+02   -8.8405899048e+01
    1.8930158997e+02   -8.8129898071e+01
    1.8940191650e+02   -8.7851898193e+01
    1.8950215149e+02   -8.7572898865e+01
    1.8960197449e+02   -8.7294898987e+01
    1.8970230103e+02   -8.7013900757e+01
    1.8980216980e+02   -8.6732902527e+01
    1.8990217590e+02   -8.6449897766e+01
    1.9000238037e+02   -8.6165901184e+01
    1.9010208130e+02   -8.5881896973e+01
    1.9020217896e+02   -8.5595901489e+01
    1.9030160522e+02   -8.5309898376e+01
    1.9040144348e+02   -8.5021896362e+01
    1.9050209045e+02   -8.4729896545e+01
    1.9060163879e+02   -8.4440902710e+01
    1.9070225525e+02   -8.4146896362e+01
    1.9080186462e+02   -8.3854896545e+01
    1.9090216064e+02   -8.3559898376e+01
    1.9100163269e+02   -8.3265899658e+01
    1.9110241699e+02   -8.2965896606e+01
    1.9120152283e+02   -8.2670898438e+01
    1.9130183411e+02   -8.2369895935e+01
    1.9140191650e+02   -8.2069900513e+01
    1.9150158691e+02   -8.1768898010e+01
    1.9160174561e+02   -8.1465896606e+01
    1.9170182800e+02   -8.1161895752e+01
    1.9180215454e+02   -8.0855598450e+01
    1.9190231323e+02   -8.0548500061e+01
    1.9200175476e+02   -8.0242301941e+01
    1.9210197449e+02   -7.9932296753e+01
    1.9220213318e+02   -7.9621299744e+01
    1.9230197144e+02   -7.9309898376e+01
    1.9240223694e+02   -7.8995903015e+01
    1.9250227356e+02   -7.8681396484e+01
    1.9260182190e+02   -7.8367095947e+01
    1.9270199585e+02   -7.8049499512e+01
    1.9280183411e+02   -7.7731796265e+01
    1.9290235901e+02   -7.7410400391e+01
    1.9300166321e+02   -7.7091400146e+01
    1.9310250854e+02   -7.6766098022e+01
    1.9320251465e+02   -7.6442100525e+01
    1.9330160522e+02   -7.6119796753e+01
    1.9340179443e+02   -7.5792800903e+01
    1.9350242615e+02   -7.5463195801e+01
    1.9360249329e+02   -7.5134201050e+01
    1.9370210266e+02   -7.4805603027e+01
    1.9380180359e+02   -7.4475296021e+01
    1.9390205383e+02   -7.4141899109e+01
    1.9400172424e+02   -7.3809097290e+01
    1.9410244751e+02   -7.3471595764e+01
    1.9420237732e+02   -7.3135597229e+01
    1.9430198669e+02   -7.2799697876e+01
    1.9440190125e+02   -7.2461799622e+01
    1.9450216675e+02   -7.2121696472e+01
    1.9460191345e+02   -7.1782402039e+01
    1.9470254517e+02   -7.1439002991e+01
    1.9480212402e+02   -7.1098098755e+01
    1.9490194702e+02   -7.0755401611e+01
    1.9500192261e+02   -7.0411003113e+01
    1.9510194397e+02   -7.0065597534e+01
    1.9520260620e+02   -6.9716896057e+01
    1.9530210876e+02   -6.9371299744e+01
    1.9540211487e+02   -6.9022895813e+01
    1.9550262451e+02   -6.8671699524e+01
    1.9560252380e+02   -6.8321601868e+01
    1.9570233154e+02   -6.7970901489e+01
    1.9580212402e+02   -6.7619201660e+01
    1.9590173340e+02   -6.7267295837e+01
    1.9600172424e+02   -6.6913101196e+01
    1.9610188293e+02   -6.6557296753e+01
    1.9620175171e+02   -6.6201599121e+01
    1.9630194092e+02   -6.5843902588e+01
    1.9640177917e+02   -6.5486495972e+01
    1.9650169373e+02   -6.5127899170e+01
    1.9660223389e+02   -6.4766098022e+01
    1.9670198059e+02   -6.4406196594e+01
    1.9680163574e+02   -6.4045600891e+01
    1.9690179443e+02   -6.3682197571e+01
    1.9700262451e+02   -6.3315399170e+01
    1.9710186768e+02   -6.2953498840e+01
    1.9720242310e+02   -6.2585899353e+01
    1.9730253601e+02   -6.2218902588e+01
    1.9740184021e+02   -6.1853897095e+01
    1.9750230408e+02   -6.1483596802e+01
    1.9760238647e+02   -6.1113700867e+01
    1.9770219421e+02   -6.0743797302e+01
    1.9780210876e+02   -6.0372497559e+01
    1.9790199280e+02   -6.0000198364e+01
    1.9800271606e+02   -5.9623802185e+01
    1.9810273743e+02   -5.9248802185e+01
    1.9820214844e+02   -5.8874900818e+01
    1.9830227661e+02   -5.8497100830e+01
    1.9840281677e+02   -5.8116500854e+01
    1.9850262451e+02   -5.7737503052e+01
    1.9860205078e+02   -5.7358695984e+01
    1.9870239258e+02   -5.6975196838e+01
    1.9880226135e+02   -5.6592300415e+01
    1.9890255737e+02   -5.6206596375e+01
    1.9900198364e+02   -5.5822998047e+01
    1.9910218811e+02   -5.5435401917e+01
    1.9920195007e+02   -5.5048400879e+01
    1.9930256653e+02   -5.4656898499e+01
    1.9940278625e+02   -5.4265602112e+01
    1.9950292969e+02   -5.3873497009e+01
    1.9960250854e+02   -5.3482200623e+01
    1.9970246887e+02   -5.3088195801e+01
    1.9980293274e+02   -5.2691101074e+01
    1.9990243530e+02   -5.2296798706e+01
endcurve
